data_mof_unit_44743.cif
_audit_creation_date              2012-12-10T18:10:45-0500
_audit_creation_method            fapswitch 2.2
_symmetry_space_group_name_H-M    P1
_symmetry_Int_Tables_number       1
_space_group_crystal_system       triclinic
_cell_length_a                    12.622718
_cell_length_b                    13.133462
_cell_length_c                    15.733352
_cell_angle_alpha                 90.706059
_cell_angle_beta                  102.669085
_cell_angle_gamma                 82.354364
_cell_volume                      2521.76471594

loop_
_atom_site_label
_atom_site_type_symbol
_atom_type_description
_atom_site_fract_x
_atom_site_fract_y
_atom_site_fract_z
_atom_type_partial_charge
C1    C     C_R   0.438901 0.691245 0.493157 0.845364
C2    C     C_3   0.381261 0.509200 0.027037 -0.382292
C3    C     C_3   0.499811 0.495727 0.082643 0.334469
C4    C     C_3   0.561023 0.392367 0.059853 -0.457293
C5    C     C_3   0.565880 0.393037 0.962074 -0.144413
C6    C     C_1   0.497917 0.496466 0.173864 -0.108188
C7    C     C_1   0.504032 0.498554 0.826341 -0.105572
C8    C     C_1   0.503443 0.499799 0.750879 -0.155970
C9    C     C_R   0.701099 0.067585 0.630211 -0.191533
C10   C     C_R   0.597002 0.200675 0.529864 -0.056197
C11   C     C_R   0.300638 0.836548 0.430338 -0.192058
C12   C     C_R   0.500985 0.500285 0.661485 0.898868
C13   C     C_R   0.272748 0.940698 0.410716 -0.147930
C14   C     C_R   0.346280 0.008858 0.444175 -0.185594
C15   C     C_R   0.447484 0.973826 0.501909 0.088430
C16   C     C_R   0.467104 0.871043 0.531842 0.094689
C17   C     C_R   0.529869 0.037202 0.531104 0.084373
C18   C     C_R   0.621463 0.002938 0.599253 0.175178
C19   C     C_R   0.630819 0.905697 0.636627 -0.253786
C20   C     C_R   0.554386 0.840475 0.603458 -0.209138
C21   C     C_R   0.524239 0.133531 0.493442 -0.252391
C22   C     C_R   0.687790 0.167310 0.596618 -0.178544
C23   C     C_R   0.561015 0.308878 0.510672 0.859624
C24   C     C_R   0.399486 0.800906 0.488458 -0.113457
C25   C     C_R   0.089001 0.344347 0.381480 -0.305998
C26   C     C_R   0.799804 0.629886 0.602409 0.032544
C27   C     C_R   0.903957 0.659079 0.623401 -0.249072
C28   C     C_R   0.985213 0.610283 0.584256 -0.189343
C29   C     C_R   0.962428 0.531118 0.523937 0.016332
C30   C     C_R   0.854697 0.504225 0.504861 0.231689
C31   C     C_R   0.041811 0.477579 0.482216 -0.014419
C32   C     C_R   0.012033 0.398316 0.422920 0.192188
C33   C     C_R   0.905914 0.373277 0.405749 -0.284890
C34   C     C_R   0.499100 0.499544 0.338510 0.898397
C35   C     C_R   0.828572 0.425449 0.446271 -0.201138
C36   C     C_R   0.150385 0.498897 0.496941 -0.044302
C37   C     C_R   0.194831 0.369030 0.399093 0.016536
C38   C     C_3   0.382970 0.512283 0.929365 -0.372611
C39   C     C_3   0.560710 0.585579 0.963463 -0.429146
C40   C     C_3   0.559190 0.584930 0.061314 -0.388452
C41   C     C_1   0.497564 0.497750 0.249213 -0.180892
C42   C     C_3   0.502975 0.496216 0.917782 0.260902
H1    H     H_    0.334604 0.581625 0.044270 0.165422
H2    H     H_    0.335528 0.453264 0.894163 0.211676
H3    H     H_    0.338096 0.444543 0.040356 0.188511
H4    H     H_    0.645912 0.380435 0.100612 0.159836
H5    H     H_    0.744441 0.219622 0.625816 0.164539
H6    H     H_    0.698084 0.879423 0.690640 0.141062
H7    H     H_    0.770696 0.042593 0.682758 0.141879
H8    H     H_    0.460516 0.160571 0.437698 0.138819
H9    H     H_    0.246753 0.783570 0.397765 0.158959
H10   H     H_    0.320561 0.088592 0.425534 0.130459
H11   H     H_    0.195978 0.968202 0.366412 0.141800
H12   H     H_    0.340998 0.588043 0.900695 0.163194
H13   H     H_    0.563236 0.766211 0.635078 0.151147
H14   H     H_    0.255760 0.327844 0.368035 0.126540
H15   H     H_    0.882496 0.312763 0.360814 0.154031
H16   H     H_    0.067607 0.283599 0.336254 0.141113
H17   H     H_    0.180749 0.557309 0.540660 0.126259
H18   H     H_    0.736645 0.667044 0.633034 0.128980
H19   H     H_    0.064578 0.635850 0.602785 0.137403
H20   H     H_    0.921684 0.719307 0.669906 0.146219
H21   H     H_    0.748852 0.402077 0.430744 0.211474
H22   H     H_    0.646974 0.577997 0.955694 0.173306
H23   H     H_    0.518717 0.660618 0.933253 0.180912
H24   H     H_    0.516815 0.659786 0.078242 0.174980
H25   H     H_    0.644765 0.576250 0.100739 0.174548
H26   H     H_    0.653515 0.390604 0.958849 0.132882
H27   H     H_    0.519371 0.327888 0.076007 0.190544
N1    N     N_R   0.222200 0.444690 0.455710 -0.101036
N2    N     N_R   0.776960 0.554780 0.543830 -0.129193
O1    O     O_R   0.366740 0.627160 0.478850 -0.619305
O2    O     O_R   0.544830 0.662520 0.507140 -0.610022
O3    O     O_R   0.410920 0.482310 0.608710 -0.606172
O4    O     O_R   0.589010 0.517670 0.637000 -0.622972
O5    O     O_R   0.455170 0.337480 0.492860 -0.609493
O6    O     O_R   0.633260 0.372840 0.521150 -0.639695
O7    O     O_R   0.410990 0.482330 0.363000 -0.613286
O8    O     O_R   0.589080 0.517690 0.391290 -0.624852
Zn1   Zn    Zn3+2 0.381090 0.476390 0.481110 0.945068
Zn2   Zn    Zn3+2 0.618910 0.523610 0.518890 0.933180
C43   C     C_2   0.527206 0.297953 0.916431 0.912864
O9    O     O_2   0.436359 0.275599 0.917034 -0.640083
O10   O     O_R   0.596893 0.235252 0.873798 -0.812901
H28   H     H_    0.562584 0.174245 0.845376 0.346441

loop_
_geom_bond_atom_site_label_1
_geom_bond_atom_site_label_2
_ccdc_geom_bond_type
C5    C42   S    
C12   O3    A    
C19   C20   A    
C23   O5    A    
C3    C6    S    
C30   N2    A    
C7    C8    T    
C4    H4    S    
C10   C22   A    
C39   H22   S    
C26   C27   A    
C30   C35   A    
C28   C29   A    
C38   C42   S    
C20   H13   S    
O7    Zn1   S    
C9    C22   A    
C15   C16   A    
C11   C24   A    
C18   C19   A    
C7    C42   S    
C21   H8    S    
C25   C37   A    
C37   H14   S    
C14   H10   S    
C6    C41   T    
C8    C12   S    
C28   H19   S    
C36   H17   S    
C25   C32   A    
C22   H5    S    
C16   C24   A    
C40   H24   S    
C37   N1    A    
C26   N2    A    
C39   H23   S    
C34   C41   S    
C5    H26   S    
O2    Zn2   S    
C4    H27   S    
C36   N1    A    
C39   C42   S    
C13   H11   S    
C10   C21   A    
C1    O1    A    
N1    Zn1   S    
C9    H7    S    
O10   H28   S    
C39   C40   S    
O8    Zn2   S    
C19   H6    S    
O4    Zn2   S    
C40   H25   S    
C17   C21   A    
C38   H2    S    
C29   C30   A    
C27   H20   S    
C34   O8    A    
C2    C38   S    
C31   C32   A    
C38   H12   S    
O6    Zn2   S    
C2    H1    S    
C16   C20   A    
C17   C18   A    
C23   O6    A    
C3    C40   S    
C43   O10   S    
C25   H16   S    
C3    C4    S    
C15   C17   A    
C33   H15   S    
C31   C36   A    
O5    Zn1   S    
C4    C5    S    
O3    Zn1   S    
C10   C23   S    
C1    O2    A    
C32   C33   A    
C2    C3    S    
C29   C31   A    
C34   O7    A    
C5    C43   S    
C11   C13   A    
C33   C35   A    
C11   H9    S    
C2    H3    S    
C9    C18   A    
C1    C24   S    
O1    Zn1   S    
C43   O9    D    
C12   O4    A    
C27   C28   A    
C14   C15   A    
C35   H21   S    
C13   C14   A    
C26   H18   S    
N2    Zn2   S    
