data_mof_unit_22271.cif
_audit_creation_date              2013-03-05T15:47:26-0500
_audit_creation_method            fapswitch 2.2
_symmetry_space_group_name_H-M    P1
_symmetry_Int_Tables_number       1
_space_group_crystal_system       triclinic
_cell_length_a                    17.727514
_cell_length_b                    19.106534
_cell_length_c                    11.809621
_cell_angle_alpha                 88.919795
_cell_angle_beta                  76.280701
_cell_angle_gamma                 89.314171
_cell_volume                      3885.12194525

loop_
_atom_site_label
_atom_site_type_symbol
_atom_site_description
_atom_site_fract_x
_atom_site_fract_y
_atom_site_fract_z
_atom_type_partial_charge
O1    O     O_R   0.430030 0.075530 0.417420 -0.609851
O2    O     O_R   0.569970 0.924470 0.582580 -0.547512
O3    O     O_R   0.569970 0.075530 0.582580 -0.618989
O4    O     O_R   0.430030 0.924470 0.417420 -0.622351
O5    O     O_R   0.930030 0.575530 0.417420 -0.622035
O6    O     O_R   0.069970 0.424470 0.582580 -0.618567
O7    O     O_R   0.069970 0.575530 0.582580 -0.625298
O8    O     O_R   0.930030 0.424470 0.417420 -0.557927
O9    O     O_R   0.416860 0.075510 0.614610 -0.600169
O10   O     O_R   0.583140 0.924490 0.385390 -0.611676
O11   O     O_R   0.583140 0.075510 0.385390 -0.602399
O12   O     O_R   0.416860 0.924490 0.614610 -0.587662
O13   O     O_R   0.916860 0.575510 0.614610 -0.601627
O14   O     O_R   0.083140 0.424490 0.385390 -0.534471
O15   O     O_R   0.083140 0.575510 0.385390 -0.524795
O16   O     O_R   0.916860 0.424490 0.614610 -0.617557
C1    C     C_R   0.405029 0.104434 0.518810 0.812421
C2    C     C_R   0.594625 0.895309 0.481119 0.841727
C3    C     C_R   0.598734 0.101891 0.478530 0.784130
C4    C     C_R   0.401811 0.897487 0.521462 0.807247
C5    C     C_R   0.905271 0.604713 0.518836 0.785753
C6    C     C_R   0.094768 0.395460 0.481457 0.840120
C7    C     C_R   0.096739 0.603343 0.478887 0.834645
C8    C     C_R   0.902461 0.396927 0.520826 0.792019
C9    C     C_R   0.407896 0.007770 0.865642 0.140930
C10   C     C_R   0.591951 0.991162 0.134565 0.144076
C11   C     C_R   0.907968 0.508999 0.865467 0.143532
C12   C     C_R   0.091405 0.488298 0.133814 0.158995
Cu1   Cu    Cu3+1 0.507800 0.000000 0.383250 0.905584
Cu2   Cu    Cu3+1 0.492200 0.000000 0.616750 0.937166
Cu3   Cu    Cu3+1 0.007800 0.500000 0.383250 0.983463
Cu4   Cu    Cu3+1 0.992200 0.500000 0.616750 0.907851
C13   C     C_R   0.399396 0.010192 0.986488 -0.266112
C14   C     C_R   0.600617 0.988851 0.013665 -0.285531
C15   C     C_R   0.899980 0.515465 0.985797 -0.278981
C16   C     C_R   0.099687 0.485421 0.013541 -0.373597
C17   C     C_R   0.545197 0.995779 0.839380 0.348676
C18   C     C_R   0.454866 0.004090 0.160595 0.328826
C19   C     C_R   0.045045 0.495414 0.839420 0.324829
C20   C     C_R   0.955103 0.507541 0.160445 0.358745
C21   C     C_R   0.657709 0.157782 0.464449 -0.165969
C22   C     C_R   0.349303 0.835922 0.533858 -0.178441
C23   C     C_R   0.358515 0.169953 0.524863 -0.206639
C24   C     C_R   0.642032 0.830165 0.473972 -0.099660
C25   C     C_R   0.146700 0.666434 0.467515 -0.180689
C26   C     C_R   0.856052 0.331042 0.529556 -0.169941
C27   C     C_R   0.859893 0.671190 0.525083 -0.191973
C28   C     C_R   0.140951 0.329788 0.476464 -0.208653
C29   C     C_R   0.267975 0.744923 0.648925 0.223531
C30   C     C_R   0.769274 0.215013 0.338352 0.132470
C31   C     C_R   0.723816 0.741655 0.355992 0.216640
C32   C     C_R   0.289346 0.268848 0.630274 0.245829
C33   C     C_R   0.782694 0.234958 0.644126 0.225924
C34   C     C_R   0.226179 0.759099 0.353742 0.220320
C35   C     C_R   0.209898 0.230606 0.371486 0.235796
C36   C     C_R   0.789222 0.769086 0.631616 0.171288
C37   C     C_R   0.318004 0.802330 0.644090 0.146727
C38   C     C_R   0.698861 0.179819 0.351529 0.158440
C39   C     C_R   0.659436 0.788529 0.372843 0.126165
C40   C     C_R   0.343675 0.213432 0.624243 0.128044
C41   C     C_R   0.832930 0.292611 0.637290 0.137087
C42   C     C_R   0.173286 0.703501 0.359370 0.157820
C43   C     C_R   0.154097 0.285026 0.378993 0.104883
C44   C     C_R   0.841862 0.712501 0.627159 0.154043
C45   C     C_R   0.330833 0.807925 0.433304 -0.088347
C46   C     C_R   0.679697 0.183974 0.563365 -0.085240
C47   C     C_R   0.672076 0.809318 0.569720 -0.110622
C48   C     C_R   0.330312 0.192095 0.427477 -0.107293
C49   C     C_R   0.837643 0.303294 0.427432 -0.080042
C50   C     C_R   0.166217 0.692810 0.568078 -0.087907
C51   C     C_R   0.169852 0.308311 0.573518 -0.098104
C52   C     C_R   0.838138 0.698100 0.424770 -0.073190
C53   C     C_R   0.263555 0.767242 0.446450 0.047193
C54   C     C_R   0.749791 0.221087 0.548941 0.057312
C55   C     C_R   0.743274 0.772895 0.548300 -0.037084
C56   C     C_R   0.260473 0.230784 0.448583 0.045298
C57   C     C_R   0.787917 0.245186 0.437105 -0.025505
C58   C     C_R   0.232398 0.734684 0.555142 0.043948
C59   C     C_R   0.239613 0.269601 0.552058 0.047404
C60   C     C_R   0.769516 0.738680 0.440670 0.084132
N1    N     N_R   0.519530 0.000000 0.207810 -0.225997
N2    N     N_R   0.480470 0.000000 0.792190 -0.216247
N3    N     N_R   0.019530 0.500000 0.207810 -0.183270
N4    N     N_R   0.980470 0.500000 0.792190 -0.230726
H1    H     H_    0.341453 0.016906 0.040242 0.204519
H2    H     H_    0.658584 0.981640 0.960159 0.199789
H3    H     H_    0.842758 0.526402 0.038880 0.204170
H4    H     H_    0.157162 0.474649 0.960502 0.155318
C61   C     C_R   0.536826 0.996016 0.962841 -0.001345
C62   C     C_R   0.463265 0.003614 0.037157 0.006115
C63   C     C_R   0.036478 0.495765 0.962769 0.058273
C64   C     C_R   0.963426 0.506780 0.036886 -0.002994
C65   C     C_2   0.663550 0.982633 0.178251 0.367949
H5    H     H_    0.667730 0.002299 0.261080 0.135011
O17   O     O_2   0.720874 0.953149 0.119983 -0.554549
C66   C     C_2   0.335840 0.014617 0.822418 0.345172
H6    H     H_    0.333207 0.998787 0.736865 0.138933
O18   O     O_2   0.276146 0.038381 0.884194 -0.551584
C67   C     C_2   0.163686 0.473060 0.172391 0.403554
H7    H     H_    0.203000 0.432769 0.128308 0.049334
O19   O     O_2   0.184021 0.507390 0.245363 -0.521903
C68   C     C_2   0.835417 0.512084 0.822720 0.338861
H8    H     H_    0.833567 0.496518 0.736824 0.146889
O20   O     O_2   0.774241 0.532231 0.885470 -0.564355
C69   C     C_3   0.373064 0.007568 0.236005 -0.825304
H9    H     H_    0.338439 0.964272 0.213496 0.185822
H10   H     H_    0.365995 0.002213 0.329470 0.281307
H11   H     H_    0.346644 0.058306 0.219446 0.215179
C70   C     C_3   0.627030 0.991975 0.763969 -0.809959
H12   H     H_    0.662077 0.034763 0.787047 0.178506
H13   H     H_    0.653151 0.940916 0.779752 0.200510
H14   H     H_    0.634093 0.997921 0.670566 0.275052
C71   C     C_3   0.873749 0.515251 0.236191 -0.796389
H15   H     H_    0.834037 0.478307 0.208866 0.190604
H16   H     H_    0.866276 0.502417 0.328106 0.273249
H17   H     H_    0.853027 0.569467 0.227368 0.191295
C72   C     C_3   0.126879 0.491204 0.764147 -0.822025
H18   H     H_    0.134057 0.498252 0.670872 0.283768
H19   H     H_    0.162581 0.533088 0.788599 0.187131
H20   H     H_    0.152088 0.439539 0.778584 0.211612
C73   C     C_2   0.621599 0.189275 0.677065 0.363772
H21   H     H_    0.598764 0.143354 0.728067 0.112383
O21   O     O_2   0.600657 0.246762 0.716715 -0.528094
C74   C     C_2   0.388085 0.807459 0.318241 0.366428
H22   H     H_    0.409418 0.855091 0.271355 0.115385
O22   O     O_2   0.409778 0.751778 0.271965 -0.525619
C75   C     C_2   0.383481 0.192871 0.308023 0.383399
H23   H     H_    0.441931 0.171945 0.293028 0.109838
O23   O     O_2   0.365435 0.222517 0.225738 -0.537511
C76   C     C_2   0.620606 0.807505 0.690030 0.411481
H24   H     H_    0.643827 0.799656 0.766053 0.088263
O24   O     O_2   0.550064 0.808662 0.705381 -0.542692
C77   C     C_2   0.109614 0.691081 0.683603 0.361665
H25   H     H_    0.093496 0.642668 0.731719 0.115020
O25   O     O_2   0.082839 0.745809 0.728616 -0.527829
C78   C     C_2   0.856466 0.341320 0.313570 0.412935
H26   H     H_    0.809804 0.365274 0.281146 0.056059
O26   O     O_2   0.922443 0.341104 0.252054 -0.538240
C79   C     C_2   0.897853 0.704721 0.312479 0.339499
H27   H     H_    0.941264 0.664904 0.282410 0.110617
O27   O     O_2   0.901621 0.758357 0.253491 -0.518606
C80   C     C_2   0.117344 0.307603 0.693542 0.371657
H28   H     H_    0.060469 0.331726 0.711116 0.108948
O28   O     O_2   0.134077 0.274519 0.773725 -0.529879
C81   C     C_3   0.665206 0.174025 0.245293 -0.787469
H29   H     H_    0.687990 0.215437 0.179264 0.227384
H30   H     H_    0.680117 0.122727 0.203711 0.224211
H31   H     H_    0.601362 0.182568 0.268906 0.234440
C82   C     C_3   0.337855 0.825403 0.755791 -0.739059
H32   H     H_    0.309552 0.794639 0.834328 0.221757
H33   H     H_    0.401269 0.821612 0.747815 0.284968
H34   H     H_    0.316360 0.879332 0.775241 0.219839
C83   C     C_3   0.389397 0.203999 0.717292 -0.713512
H35   H     H_    0.383627 0.247920 0.778413 0.231814
H36   H     H_    0.368758 0.157080 0.771740 0.256498
H37   H     H_    0.452239 0.198627 0.675733 0.232961
C84   C     C_3   0.604954 0.787906 0.291102 -0.737179
H38   H     H_    0.583683 0.734071 0.285107 0.237588
H39   H     H_    0.550678 0.817897 0.322903 0.239131
H40   H     H_    0.635065 0.807983 0.203388 0.251919
C85   C     C_3   0.142137 0.687393 0.253330 -0.744548
H41   H     H_    0.161736 0.723291 0.177907 0.220552
H42   H     H_    0.162751 0.635273 0.219718 0.274797
H43   H     H_    0.077771 0.689889 0.276674 0.221404
C86   C     C_3   0.860135 0.313048 0.744980 -0.765881
H44   H     H_    0.842066 0.277522 0.821232 0.225411
H45   H     H_    0.924468 0.314220 0.724634 0.226287
H46   H     H_    0.834908 0.364559 0.775865 0.236611
C87   C     C_3   0.882420 0.699810 0.725479 -0.720496
H47   H     H_    0.874489 0.742177 0.789779 0.238032
H48   H     H_    0.859101 0.652127 0.775511 0.247832
H49   H     H_    0.945862 0.694220 0.689345 0.243230
C88   C     C_3   0.103604 0.291305 0.291794 -0.718862
H50   H     H_    0.106558 0.245560 0.234828 0.227268
H51   H     H_    0.041775 0.297197 0.338988 0.249079
H52   H     H_    0.121659 0.336919 0.232929 0.235291
C89   C     C_3   0.770913 0.183669 0.746592 -0.848178
H53   H     H_    0.733253 0.207283 0.825600 0.251439
H54   H     H_    0.745085 0.133831 0.728431 0.208039
H55   H     H_    0.827875 0.168257 0.763544 0.237496
C90   C     C_3   0.236001 0.813705 0.256247 -0.835828
H56   H     H_    0.261998 0.862622 0.277822 0.207717
H57   H     H_    0.272410 0.792514 0.174114 0.250541
H58   H     H_    0.178367 0.830232 0.243138 0.242281
C91   C     C_3   0.209564 0.169343 0.292013 -0.761346
H59   H     H_    0.228411 0.186133 0.199155 0.268044
H60   H     H_    0.247086 0.125863 0.309455 0.219418
H61   H     H_    0.150318 0.147016 0.309041 0.215469
C92   C     C_3   0.789796 0.829246 0.713200 -0.864932
H62   H     H_    0.757703 0.875400 0.690473 0.220252
H63   H     H_    0.764769 0.813049 0.805090 0.236608
H64   H     H_    0.850305 0.847243 0.704147 0.261977
C93   C     C_3   0.259453 0.690989 0.747275 -0.846593
H65   H     H_    0.216784 0.709333 0.826059 0.248511
H66   H     H_    0.241238 0.639466 0.721642 0.210541
H67   H     H_    0.316421 0.680957 0.768560 0.245090
C94   C     C_3   0.828654 0.209205 0.222724 -0.793020
H68   H     H_    0.819876 0.251492 0.161265 0.229669
H69   H     H_    0.888689 0.210582 0.235397 0.261314
H70   H     H_    0.823728 0.157965 0.182218 0.238713
C95   C     C_3   0.739767 0.690296 0.255752 -0.806293
H71   H     H_    0.793989 0.703158 0.190860 0.265526
H72   H     H_    0.743344 0.636537 0.291182 0.210627
H73   H     H_    0.694906 0.688860 0.205178 0.237742
C96   C     C_3   0.290020 0.329902 0.710081 -0.785937
H74   H     H_    0.255252 0.374683 0.689454 0.218152
H75   H     H_    0.267993 0.313782 0.802737 0.264034
H76   H     H_    0.350065 0.349985 0.696740 0.222854

loop_
_geom_bond_atom_site_label_1
_geom_bond_atom_site_label_2
_geom_bond_distance
_ccdc_geom_bond_type
O6    Cu4   1.963822 S    
C86   H44   1.104359 S    
C7    C25   1.489493 S    
O2    C2    1.306947 A    
C68   H8    1.070481 S    
C95   H72   1.108585 S    
C87   H47   1.105196 S    
O13   Cu4   1.958170 S    
C49   C57   1.411960 A    
C33   C54   1.414213 A    
C56   C59   1.411863 A    
O14   Cu3   1.958171 S    
C85   H43   1.109172 S    
C51   C59   1.406127 A    
C81   H29   1.110062 S    
C91   H59   1.110235 S    
C38   C81   1.517938 S    
C45   C53   1.407347 A    
C88   H50   1.106175 S    
C16   H4    1.081658 S    
C94   H70   1.111059 S    
O8    C8    1.306106 A    
C69   H10   1.083957 S    
O11   C3    1.307235 A    
C65   H5    1.073509 S    
C29   C93   1.519594 S    
C11   N4    1.379539 A    
C19   N4    1.388477 A    
C72   H19   1.109908 S    
O7    C7    1.308834 A    
C96   H76   1.110426 S    
C42   C85   1.521345 S    
C50   C58   1.404558 A    
C24   C39   1.417583 A    
C46   C54   1.411402 A    
C25   C42   1.429406 A    
Cu3   N3    2.032626 S    
C29   C58   1.416025 A    
C94   H69   1.110021 S    
C14   H2    1.079872 S    
C45   C74   1.490876 S    
C44   C87   1.518274 S    
C92   H63   1.110177 S    
C13   H1    1.079436 S    
C31   C60   1.428506 A    
C26   C49   1.434252 A    
C32   C40   1.414085 A    
C85   H42   1.104624 S    
C40   C83   1.519366 S    
C33   C41   1.413862 A    
C10   C14   1.400826 A    
C84   H38   1.109029 S    
C20   C71   1.513201 S    
C92   H64   1.110561 S    
C66   O18   1.221899 D    
C23   C48   1.414565 A    
C89   H54   1.107732 S    
C54   C57   1.405087 A    
C37   C82   1.517950 S    
C50   C77   1.489636 S    
C53   C58   1.407664 A    
C36   C44   1.413221 A    
O3    C3    1.307378 A    
C83   H36   1.107025 S    
C32   C59   1.419930 A    
C55   C60   1.415255 A    
C17   C70   1.513280 S    
O4    Cu1   1.976851 S    
C71   H17   1.106265 S    
C15   C64   1.403660 A    
C93   H67   1.110749 S    
C10   C65   1.485349 S    
O15   C7    1.308273 A    
O16   C8    1.314721 A    
C36   C55   1.418772 A    
C82   H33   1.107223 S    
C72   H20   1.105645 S    
C12   N3    1.381863 A    
C87   H48   1.105845 S    
C20   N3    1.390743 A    
C92   H62   1.106720 S    
C39   C84   1.519139 S    
C15   H3    1.078838 S    
C72   H18   1.084460 S    
C22   C37   1.431387 A    
C19   C63   1.428459 A    
C81   H30   1.105472 S    
C30   C94   1.518604 S    
C43   C88   1.518580 S    
C52   C79   1.492052 S    
Cu4   N4    2.032628 S    
C69   H11   1.105817 S    
C34   C90   1.519363 S    
C26   C41   1.431979 A    
C32   C96   1.515369 S    
C30   C38   1.399459 A    
C78   O26   1.221777 D    
C82   H34   1.103484 S    
C27   C44   1.423169 A    
C28   C43   1.419812 A    
C34   C42   1.415514 A    
C11   C15   1.401951 A    
C90   H56   1.107169 S    
C35   C43   1.415902 A    
O5    C5    1.306895 A    
Cu2   N2    2.032628 S    
O3    Cu2   1.976850 S    
C76   O24   1.220291 D    
C75   O23   1.220604 D    
Cu1   N1    2.032626 S    
Cu1   Cu2   2.705331 S    
C2    C24   1.485906 S    
C22   C45   1.419886 A    
C34   C53   1.419475 A    
Cu3   Cu4   2.705331 S    
C89   H55   1.110424 S    
C66   H6    1.071770 S    
O12   C4    1.308194 A    
C93   H66   1.109152 S    
C9    N2    1.378637 A    
C46   C73   1.490188 S    
O13   C5    1.310160 A    
C20   C64   1.431721 A    
C83   H37   1.110094 S    
C68   O20   1.221902 D    
C49   C78   1.484409 S    
C48   C75   1.499196 S    
O11   Cu1   1.982280 S    
C73   H21   1.081372 S    
C88   H51   1.111013 S    
O9    Cu2   1.958170 S    
C51   C80   1.499829 S    
C35   C56   1.421354 A    
C23   C40   1.421912 A    
C12   C67   1.482282 S    
O9    C1    1.309793 A    
C86   H46   1.107841 S    
C67   O19   1.215381 D    
C6    C28   1.484418 S    
C89   H53   1.110432 S    
C10   N1    1.377873 A    
C18   N1    1.389418 A    
C77   H25   1.081524 S    
C95   H73   1.102894 S    
C80   O28   1.220824 D    
C17   N2    1.390377 A    
C70   H14   1.084173 S    
C47   C76   1.495484 S    
C31   C39   1.420831 A    
C28   C51   1.414340 A    
C84   H39   1.103943 S    
C75   H23   1.081936 S    
C30   C57   1.419305 A    
C63   C64   1.396524 A    
C81   H31   1.110391 S    
C16   C63   1.401104 A    
C74   O22   1.220982 D    
C71   H15   1.107355 S    
C90   H58   1.110428 S    
C96   H74   1.105453 S    
C36   C92   1.515364 S    
O7    Cu4   1.976850 S    
O12   Cu2   1.982283 S    
C25   C50   1.416242 A    
O8    Cu3   1.976851 S    
C78   H26   1.083931 S    
C91   H61   1.110332 S    
C33   C89   1.519403 S    
C21   C38   1.418647 A    
C29   C37   1.410613 A    
C4    C22   1.492192 S    
C79   H27   1.078725 S    
O15   Cu3   1.982280 S    
C21   C46   1.417621 A    
C84   H40   1.110284 S    
C48   C56   1.407132 A    
C69   H9    1.108870 S    
C18   C62   1.429962 A    
C11   C68   1.489133 S    
O1    C1    1.304796 A    
C67   H7    1.086064 S    
C17   C61   1.430209 A    
O2    Cu2   1.963822 S    
C8    C26   1.500609 S    
O14   C6    1.312157 A    
C18   C69   1.512546 S    
C70   H13   1.106394 S    
C76   H24   1.080158 S    
C83   H35   1.105199 S    
C14   C61   1.404625 A    
C52   C60   1.410973 A    
C19   C72   1.513095 S    
C13   C62   1.403904 A    
C79   O27   1.221737 D    
O10   Cu1   1.958171 S    
O1    Cu1   1.963820 S    
C65   O17   1.221787 D    
C85   H41   1.104726 S    
O10   C2    1.308851 A    
O16   Cu4   1.982283 S    
C88   H52   1.106148 S    
C41   C86   1.522050 S    
C35   C91   1.515011 S    
C94   H68   1.110065 S    
C5    C27   1.488863 S    
C27   C52   1.416163 A    
C73   O21   1.220944 D    
C91   H60   1.104686 S    
O4    C4    1.310145 A    
C31   C95   1.524022 S    
C90   H57   1.110375 S    
C47   C55   1.405536 A    
C95   H71   1.104886 S    
C12   C16   1.394943 A    
C9    C66   1.487331 S    
C86   H45   1.108744 S    
C93   H65   1.110318 S    
C70   H12   1.108842 S    
C1    C23   1.484208 S    
C77   O25   1.220926 D    
C80   H28   1.079496 S    
C24   C47   1.408733 A    
C87   H49   1.108857 S    
O5    Cu3   1.963820 S    
C61   C62   1.396169 A    
C82   H32   1.106013 S    
C96   H75   1.110034 S    
C3    C21   1.482763 S    
C9    C13   1.400677 A    
C74   H22   1.080642 S    
C71   H16   1.085580 S    
O6    C6    1.302596 A    
