data_mof_unit_10120.cif
_audit_creation_date              2013-03-05T15:51:39-0500
_audit_creation_method            fapswitch 2.2
_symmetry_space_group_name_H-M    P1
_symmetry_Int_Tables_number       1
_space_group_crystal_system       triclinic
_cell_length_a                    10.66449
_cell_length_b                    10.897038
_cell_length_c                    9.661759
_cell_angle_alpha                 92.59827
_cell_angle_beta                  88.186737
_cell_angle_gamma                 94.866924
_cell_volume                      1117.17173506

loop_
_atom_site_label
_atom_site_type_symbol
_atom_site_description
_atom_site_fract_x
_atom_site_fract_y
_atom_site_fract_z
_atom_type_partial_charge
O1    O     O_R   0.499990 0.319640 0.618810 -0.561187
O2    O     O_R   0.500000 0.319660 0.381240 -0.558433
C1    C     C_R   0.503918 0.262210 0.496582 0.814274
O3    O     O_R   0.316850 0.499960 0.618770 -0.545772
O4    O     O_R   0.316860 0.499980 0.381190 -0.583040
C2    C     C_R   0.259983 0.498138 0.501559 0.854558
Cu1   Cu    Cu3+1 0.499990 0.499990 0.640660 1.017109
Cu2   Cu    Cu3+1 0.500010 0.500010 0.359340 1.071763
O5    O     O_R   0.500000 0.680340 0.618760 -0.648924
O6    O     O_R   0.500010 0.680360 0.381190 -0.530670
O7    O     O_R   0.683140 0.500020 0.618810 -0.610627
O8    O     O_R   0.683150 0.500040 0.381230 -0.488676
C3    C     C_R   0.487381 0.736115 0.503890 0.872420
C4    C     C_R   0.740534 0.499701 0.499202 0.889058
C5    C     C_3   0.032220 0.389291 0.550536 -0.239975
C6    C     C_3   0.955280 0.404969 0.420352 -0.082045
H1    H     H_    0.058338 0.301397 0.590872 0.207765
C7    C     C_3   0.877916 0.498733 0.500166 -0.163799
C8    C     C_3   0.955574 0.484971 0.628742 0.368287
C9    C     C_3   0.049620 0.591969 0.586187 -0.213903
C10   C     C_3   0.972400 0.605890 0.455535 -0.113427
C11   C     C_3   0.049429 0.511190 0.373037 -0.061552
C12   C     C_3   0.123915 0.497052 0.504175 -0.076587
H2    H     H_    0.090662 0.667925 0.655576 0.193223
H3    H     H_    0.954592 0.697520 0.419402 0.246494
H4    H     H_    0.089710 0.521733 0.266399 0.214145
C13   C     C_R   0.615663 0.133891 0.714338 -0.073673
H5    H     H_    0.669487 0.220284 0.695621 0.185782
C14   C     C_R   0.610822 0.091250 0.847929 -0.054213
H6    H     H_    0.657194 0.145531 0.931067 0.189855
C15   C     C_R   0.539482 0.982040 0.875155 -0.083896
H7    H     H_    0.526841 0.953778 0.980286 0.200255
C16   C     C_R   0.491474 0.905700 0.765938 -0.129638
H8    H     H_    0.439368 0.820026 0.791583 0.186340
C17   C     C_R   0.503267 0.945172 0.628647 0.039742
C18   C     C_R   0.544802 0.069072 0.608988 0.104270
C19   C     C_R   0.506851 0.126409 0.490489 -0.187505
C20   C     C_R   0.447581 0.052481 0.381947 -0.100756
C21   C     C_R   0.428411 0.923907 0.393138 0.297945
C22   C     C_R   0.467681 0.869130 0.511844 -0.203825
H9    H     H_    0.364304 0.350950 0.127363 0.164444
C23   C     C_R   0.650572 0.694669 0.138227 0.382328
C24   C     C_R   0.694150 0.796959 0.060318 -0.094298
C25   C     C_R   0.708567 0.779667 0.918860 -0.288973
H10   H     H_    0.759792 0.848957 0.857030 0.214620
C26   C     C_R   0.653301 0.675863 0.853241 -0.082020
H11   H     H_    0.670393 0.672462 0.744767 0.215940
C27   C     C_R   0.575179 0.588358 0.924957 0.123489
C28   C     C_R   0.574617 0.592195 0.074234 0.101390
N1    N     N_R   0.501210 0.501210 0.147910 -0.218511
C29   C     C_R   0.426463 0.417140 0.072942 -0.029643
C30   C     C_R   0.424742 0.417545 0.925797 0.426906
N2    N     N_R   0.501250 0.501290 0.852040 -0.257197
C31   C     C_2   0.908269 0.299652 0.325782 0.907764
O9    O     O_2   0.983804 0.235636 0.266574 -0.564399
O10   O     O_R   0.779334 0.274906 0.305780 -0.737161
H12   H     H_    0.759403 0.203195 0.237493 0.356023
N3    N     N_R   0.357573 0.849655 0.290810 0.146653
O11   O     O_R   0.261897 0.775598 0.329223 -0.354619
O12   O     O_R   0.389497 0.853357 0.160067 -0.383763
N4    N     N_R   0.737872 0.673533 0.239885 0.124444
O13   O     O_R   0.746300 0.744862 0.351560 -0.404280
O14   O     O_R   0.834561 0.614641 0.198813 -0.339338
C32   C     C_2   0.751460 0.913495 0.125457 0.921393
O15   O     O_2   0.708687 0.953899 0.235533 -0.572069
O16   O     O_R   0.852012 0.979295 0.058025 -0.727243
H13   H     H_    0.882984 0.057257 0.111633 0.370173
N5    N     N_R   0.337468 0.331408 0.855938 0.131860
O17   O     O_R   0.226216 0.364569 0.831729 -0.327875
O18   O     O_R   0.352619 0.214404 0.858833 -0.351689
N6    N     N_R   0.905975 0.471346 0.770055 0.158514
O19   O     O_R   0.934873 0.555990 0.865644 -0.299466
O20   O     O_R   0.839913 0.370735 0.803364 -0.365914
C33   C     C_2   0.400663 0.106607 0.258073 0.932427
O21   O     O_2   0.475342 0.146478 0.169105 -0.590857
O22   O     O_R   0.271092 0.106811 0.240698 -0.697233
H14   H     H_    0.250265 0.142813 0.150115 0.367024

loop_
_geom_bond_atom_site_label_1
_geom_bond_atom_site_label_2
_geom_bond_distance
_ccdc_geom_bond_type
C13   C14   1.389470 A    
C7    C10   1.543790 S    
C4    C7    1.466363 S    
C8    N6    1.457838 S    
C8    C9    1.534074 S    
Cu1   Cu2   2.718049 S    
C30   N2    1.379189 A    
C5    C8    1.536311 S    
C19   C20   1.423817 A    
C33   O22   1.397428 S    
C18   C19   1.414953 A    
O4    C2    1.294697 A    
O7    C4    1.290488 A    
N3    O12   1.299342 A    
C5    C6    1.546964 S    
O10   H12   1.012450 S    
Cu1   O5    1.986142 S    
C7    C8    1.534498 S    
N4    O14   1.302249 A    
O5    C3    1.305283 A    
C3    C22   1.480391 S    
C26   H11   1.057609 S    
C9    H2    1.110356 S    
N5    O17   1.300356 A    
C15   C16   1.396422 A    
C30   N5    1.427216 S    
C5    C12   1.536526 S    
O16   H13   1.011156 S    
C10   C11   1.550130 S    
O3    Cu1   1.971126 S    
C25   C26   1.369058 A    
C24   C32   1.484067 S    
N1    C29   1.360805 A    
C31   O10   1.396406 S    
C27   N2    1.365918 A    
C26   C27   1.404299 A    
C33   O21   1.222191 D    
C29   C30   1.422594 A    
O22   H14   1.013612 S    
O3    C2    1.300017 A    
C21   C22   1.407819 A    
N6    O20   1.299425 A    
N3    O11   1.301359 A    
C21   N3    1.440105 S    
O1    C1    1.312377 A    
C17   C18   1.404142 A    
C32   O16   1.398639 S    
Cu1   O7    1.957897 S    
C24   C25   1.376720 A    
C14   H6    1.082625 S    
C15   H7    1.075829 S    
C9    C12   1.533121 S    
Cu2   O8    1.971126 S    
C16   H8    1.079816 S    
C23   N4    1.413971 S    
Cu2   O6    1.967049 S    
C27   C28   1.440821 A    
O8    C4    1.310958 A    
C23   C24   1.411061 A    
Cu1   N2    2.042172 S    
Cu2   N1    2.043049 S    
C25   H10   1.084286 S    
C20   C33   1.477380 S    
C5    H1    1.110313 S    
C10   H3    1.105858 S    
C31   O9    1.221794 D    
C6    C11   1.542278 S    
O1    Cu1   1.967048 S    
O2    Cu2   1.986145 S    
O6    C3    1.315734 A    
O4    Cu2   1.957898 S    
C13   C18   1.413851 A    
C32   O15   1.222273 D    
O2    C1    1.306212 A    
N6    O19   1.300479 A    
C14   C15   1.387942 A    
C20   C21   1.407200 A    
C2    C12   1.449571 S    
C16   C17   1.411501 A    
C17   C22   1.411804 A    
N4    O13   1.301792 A    
C6    C31   1.496521 S    
C23   C28   1.449473 A    
C9    C10   1.548868 S    
C1    C19   1.481276 S    
C6    C7    1.533198 S    
C28   N1    1.414068 A    
C11   H4    1.110680 S    
C13   H5    1.079650 S    
N5    O18   1.300377 A    
C11   C12   1.536960 S    
H9    C29   1.080433 S    
