data_mof_unit_51063.cif
_audit_creation_date              2013-03-05T16:00:58-0500
_audit_creation_method            fapswitch 2.2
_symmetry_space_group_name_H-M    P1
_symmetry_Int_Tables_number       1
_space_group_crystal_system       triclinic
_cell_length_a                    10.633623
_cell_length_b                    14.676369
_cell_length_c                    14.575585
_cell_angle_alpha                 64.534514
_cell_angle_beta                  102.767881
_cell_angle_gamma                 102.680202
_cell_volume                      1982.80948491

loop_
_atom_site_label
_atom_site_type_symbol
_atom_site_description
_atom_site_fract_x
_atom_site_fract_y
_atom_site_fract_z
_atom_type_partial_charge
O1    O     O_R   0.454850 0.022100 0.338110 -0.556230
O2    O     O_R   0.545150 0.977900 0.661890 -0.564921
O3    O     O_R   0.512700 0.160150 0.379180 -0.563386
O4    O     O_R   0.487300 0.839850 0.620820 -0.534483
C1    C     C_R   0.476111 0.120412 0.311295 0.901743
C2    C     C_R   0.524242 0.879602 0.688767 0.927294
O5    O     O_R   0.287930 0.931000 0.479440 -0.576696
O6    O     O_R   0.712070 0.069000 0.520560 -0.563479
O7    O     O_R   0.345780 0.069050 0.520520 -0.583748
O8    O     O_R   0.654220 0.930950 0.479480 -0.576379
C3    C     C_R   0.259638 0.001328 0.498519 0.863739
C4    C     C_R   0.740180 0.999785 0.499466 0.909390
Cu1   Cu    Cu3+1 0.465750 0.918270 0.475680 1.060065
Cu2   Cu    Cu3+1 0.534250 0.081730 0.524320 1.029373
C5    C     C_3   0.042789 0.085612 0.424072 0.376785
C6    C     C_3   0.956834 0.916421 0.570749 0.409554
C7    C     C_3   0.987068 0.082303 0.514281 -0.200625
C8    C     C_3   0.012552 0.920036 0.480601 -0.198478
H1    H     H_    0.975331 0.149686 0.526078 0.204235
H2    H     H_    0.024457 0.852689 0.468818 0.217604
C9    C     C_3   0.876338 0.000407 0.497789 -0.166236
C10   C     C_3   0.123106 0.001685 0.497580 -0.165889
C11   C     C_3   0.930976 0.006209 0.405570 -0.218864
C12   C     C_3   0.068288 0.995860 0.589511 -0.229458
H3    H     H_    0.873294 0.011798 0.330350 0.225037
H4    H     H_    0.125699 0.990203 0.664841 0.193960
C13   C     C_R   0.441860 0.190260 0.203168 -0.275997
C14   C     C_R   0.547444 0.811311 0.799337 -0.316209
C15   C     C_R   0.269621 0.240907 0.057521 0.437281
C16   C     C_R   0.687014 0.767055 0.965410 0.431464
C17   C     C_R   0.329992 0.163760 0.141783 0.191770
C18   C     C_R   0.656026 0.837112 0.863937 0.189489
C19   C     C_R   0.503874 0.291986 0.168570 0.231115
C20   C     C_R   0.467608 0.716290 0.838237 0.261106
C21   C     C_R   0.430235 0.370326 0.097606 -0.081085
C22   C     C_R   0.491692 0.649132 0.943787 -0.087645
C23   C     C_R   0.308866 0.343629 0.044281 -0.143961
C24   C     C_R   0.600149 0.677276 0.008276 -0.157868
C25   C     C_R   0.476278 0.475004 0.075084 0.081636
C26   C     C_R   0.419674 0.549854 0.985456 0.065050
C27   C     C_R   0.291697 0.523102 0.944727 -0.178869
C28   C     C_R   0.569601 0.507847 0.143066 -0.185879
C29   C     C_R   0.234074 0.421398 0.975250 0.312662
C30   C     C_R   0.625577 0.609835 0.112883 0.327058
H5    H     H_    0.232338 0.581369 0.893843 0.217289
H6    H     H_    0.595082 0.454984 0.221356 0.195455
N1    N     N_R   0.585750 0.204560 0.560800 -0.219798
N2    N     N_R   0.414250 0.795440 0.439200 -0.227411
C31   C     C_R   0.726326 0.288635 0.661932 0.265161
C32   C     C_R   0.279557 0.719242 0.328951 0.275278
C33   C     C_R   0.690657 0.206695 0.632282 0.032056
C34   C     C_R   0.314958 0.798454 0.362405 0.072627
C35   C     C_R   0.515751 0.283715 0.511996 0.046000
C36   C     C_R   0.478920 0.713411 0.489863 0.106529
C37   C     C_R   0.543847 0.368866 0.539288 -0.072283
C38   C     C_R   0.442064 0.625879 0.466371 -0.057487
C39   C     C_R   0.645221 0.366285 0.622108 -0.080491
C40   C     C_R   0.339422 0.629169 0.383882 -0.090407
C41   C     C_R   0.474233 0.455127 0.488145 0.037022
C42   C     C_R   0.505480 0.536668 0.521310 0.049872
C43   C     C_R   0.593925 0.524268 0.611912 -0.217466
C44   C     C_R   0.371870 0.461053 0.406842 -0.250152
C45   C     C_R   0.660312 0.439786 0.663885 0.344313
C46   C     C_R   0.300184 0.542500 0.359601 0.370400
H7    H     H_    0.560130 0.719303 0.546884 0.173644
H8    H     H_    0.437769 0.276921 0.453401 0.168967
H9    H     H_    0.266964 0.865589 0.323645 0.204956
H10   H     H_    0.749417 0.145699 0.663835 0.205675
H11   H     H_    0.606634 0.576288 0.648548 0.200191
H12   H     H_    0.339567 0.400345 0.381050 0.203693
N3    N     N_R   0.851464 0.297611 0.721989 0.160688
O9    O     O_R   0.896792 0.216631 0.793324 -0.272789
O10   O     O_R   0.929731 0.383283 0.692443 -0.281552
N4    N     N_R   0.193514 0.736845 0.233961 0.157099
O11   O     O_R   0.089227 0.777877 0.216480 -0.260547
O12   O     O_R   0.233557 0.733255 0.157596 -0.341126
N5    N     N_R   0.093383 0.178584 0.343048 0.143747
O13   O     O_R   0.045169 0.198632 0.247392 -0.251414
O14   O     O_R   0.187157 0.241998 0.366128 -0.380035
N6    N     N_R   0.908402 0.821897 0.650988 0.157377
O15   O     O_R   0.971799 0.793037 0.743593 -0.356021
O16   O     O_R   0.811614 0.760340 0.627832 -0.351650
N7    N     N_R   0.098992 0.399414 0.938088 0.163313
O17   O     O_R   0.049548 0.458467 0.847049 -0.246199
O18   O     O_R   0.020771 0.333452 0.001182 -0.178254
N8    N     N_R   0.706795 0.643373 0.188786 0.163648
O19   O     O_R   0.773243 0.580513 0.268061 -0.293258
O20   O     O_R   0.696976 0.730480 0.188196 -0.249571
N9    N     N_R   0.370868 0.685023 0.767535 0.125498
O21   O     O_R   0.388585 0.613830 0.742940 -0.351264
O22   O     O_R   0.270930 0.733585 0.721066 -0.335210
N10   N     N_R   0.644446 0.312724 0.188916 0.143646
O23   O     O_R   0.708722 0.376555 0.114447 -0.286552
O24   O     O_R   0.709987 0.256060 0.273583 -0.317938
N11   N     N_R   0.743719 0.930172 0.825111 0.129105
O25   O     O_R   0.801895 0.949313 0.747749 -0.394983
O26   O     O_R   0.782987 0.986160 0.877900 -0.246366
N12   N     N_R   0.279259 0.059241 0.161614 0.124936
O27   O     O_R   0.351517 0.001406 0.155911 -0.337134
O28   O     O_R   0.155200 0.028156 0.164290 -0.257315
O29   O     O_3   0.172183 0.215603 0.988243 -0.501519
C47   C     C_3   0.228423 0.198229 0.918525 0.142378
H13   H     H_    0.154485 0.147512 0.888542 0.225807
H14   H     H_    0.315102 0.157414 0.955651 0.149038
C48   C     C_3   0.263946 0.298249 0.827622 -0.359737
H15   H     H_    0.177178 0.338373 0.791424 0.304709
H16   H     H_    0.342246 0.348448 0.855104 0.226452
C49   C     C_3   0.311748 0.279019 0.747002 -0.815218
H17   H     H_    0.400698 0.241225 0.780763 0.265306
H18   H     H_    0.335868 0.352807 0.682409 0.269298
H19   H     H_    0.234896 0.230282 0.716454 0.263074
O30   O     O_3   0.808801 0.782119 0.020075 -0.506932
C50   C     C_3   0.904944 0.756183 0.985009 0.124470
H20   H     H_    0.000213 0.798555 0.003588 0.238579
H21   H     H_    0.889120 0.780264 0.900377 0.184088
C51   C     C_3   0.914519 0.641604 0.038426 -0.352497
H22   H     H_    0.938304 0.619204 0.122662 0.314487
H23   H     H_    0.820099 0.597248 0.021952 0.232442
C52   C     C_3   0.018492 0.614126 0.001092 -0.642569
H24   H     H_    0.992631 0.630764 0.917974 0.289015
H25   H     H_    0.024668 0.531357 0.043022 0.303528
H26   H     H_    0.115161 0.657486 0.014666 0.268542
N13   N     N_R   0.730044 0.424369 0.764878 0.179003
O31   O     O_R   0.787412 0.502440 0.786063 -0.246807
O32   O     O_R   0.713319 0.335454 0.840320 -0.269453
N14   N     N_R   0.181120 0.530645 0.293932 0.156519
O33   O     O_R   0.178275 0.492422 0.227679 -0.322649
O34   O     O_R   0.071623 0.536021 0.316019 -0.273892

loop_
_geom_bond_atom_site_label_1
_geom_bond_atom_site_label_2
_geom_bond_distance
_ccdc_geom_bond_type
O5    Cu1   1.955250 S    
C6    C9    1.522022 S    
C37   C41   1.436087 A    
C29   N7    1.436554 S    
C49   H17   1.111012 S    
C35   C37   1.421390 A    
N11   O25   1.301043 A    
N13   O31   1.301722 A    
C36   H7    1.075053 S    
N5    O13   1.300325 A    
C13   C19   1.409066 A    
N2    C36   1.357226 A    
C48   H16   1.110645 S    
C44   H12   1.072260 S    
O29   C47   1.419037 S    
N4    O12   1.301067 A    
O1    C1    1.302552 A    
C21   C23   1.421178 A    
C12   H4    1.110291 S    
C32   N4    1.434249 S    
N8    O20   1.301574 A    
N13   O32   1.301638 A    
C31   C39   1.421559 A    
C51   H22   1.109798 S    
C16   C24   1.411581 A    
C47   C48   1.535670 S    
C28   H6    1.082491 S    
C17   N12   1.432455 S    
O4    Cu1   1.913174 S    
C43   C45   1.396318 A    
C44   C46   1.394380 A    
C7    H1    1.110417 S    
C1    C13   1.479266 S    
C5    C10   1.522200 S    
C2    C14   1.485441 S    
C49   H18   1.110386 S    
C31   C33   1.396810 A    
C32   C34   1.394702 A    
C38   C40   1.425621 A    
N9    O22   1.302033 A    
C20   C22   1.427093 A    
N1    C35   1.358152 A    
C50   C51   1.535779 S    
C52   H25   1.110088 S    
C14   C20   1.414220 A    
C41   C42   1.424134 A    
C6    C12   1.537182 S    
Cu1   Cu2   2.693610 S    
C27   C29   1.396165 A    
O2    C2    1.302238 A    
C28   C30   1.395218 A    
C30   N8    1.439250 S    
O30   C50   1.421414 S    
C39   C45   1.416287 A    
C25   C28   1.401811 A    
N5    O14   1.298934 A    
C40   C46   1.416384 A    
C48   C49   1.526773 S    
C36   C38   1.420939 A    
C7    C12   1.556921 S    
N4    O11   1.301410 A    
C13   C17   1.411566 A    
C8    C11   1.555923 S    
C32   C40   1.424010 A    
C14   C18   1.413235 A    
N6    O16   1.299934 A    
C19   N10   1.448074 S    
C25   C26   1.408658 A    
N3    O10   1.300938 A    
N8    O19   1.301587 A    
N1    C33   1.352763 A    
O6    Cu2   1.955250 S    
C4    C9    1.451417 S    
C7    C9    1.546245 S    
C38   C42   1.434423 A    
C16   O30   1.389439 S    
C42   C43   1.407507 A    
C6    N6    1.454275 S    
C23   C29   1.415937 A    
C21   C25   1.419434 A    
O7    Cu2   1.962207 S    
C24   C30   1.419511 A    
O5    C3    1.285826 A    
N7    O17   1.300413 A    
C22   C26   1.425844 A    
O6    C4    1.287749 A    
N10   O24   1.300769 A    
C15   O29   1.386435 S    
C49   H19   1.110914 S    
C47   H14   1.115516 S    
C35   H8    1.072789 S    
O7    C3    1.293945 A    
C34   H9    1.079387 S    
O8    C4    1.292648 A    
O4    C2    1.303772 A    
C26   C27   1.402605 A    
N7    O18   1.301447 A    
C46   N14   1.435354 S    
C9    C11   1.541613 S    
C10   C12   1.538640 S    
O1    Cu1   1.924437 S    
C22   C24   1.424722 A    
C50   H20   1.110550 S    
C52   H26   1.109943 S    
C43   H11   1.076884 S    
C5    C7    1.535927 S    
C41   C44   1.406945 A    
N14   O34   1.301314 A    
C8    C10   1.545044 S    
N6    O15   1.298951 A    
O3    C1    1.302688 A    
O8    Cu1   1.962207 S    
Cu1   N2    2.023489 S    
C45   N13   1.439673 S    
C52   H24   1.109404 S    
N11   O26   1.300997 A    
Cu2   N1    2.023489 S    
O3    Cu2   1.913175 S    
C48   H15   1.110240 S    
C3    C10   1.449999 S    
N12   O28   1.301216 A    
C51   C52   1.526932 S    
C37   C39   1.422709 A    
C20   N9    1.435842 S    
N3    O9    1.301256 A    
C15   C17   1.406161 A    
C16   C18   1.406725 A    
C5    N5    1.455612 S    
N14   O33   1.301406 A    
C5    C11   1.537742 S    
N10   O23   1.302044 A    
C19   C21   1.421110 A    
C51   H23   1.109246 S    
C8    H2    1.110411 S    
C33   H10   1.080650 S    
C11   H3    1.110183 S    
C47   H13   1.110899 S    
O2    Cu2   1.924437 S    
N2    C34   1.350996 A    
C18   N11   1.436890 S    
C6    C8    1.533204 S    
N12   O27   1.301148 A    
C31   N3    1.435844 S    
C15   C23   1.411887 A    
C27   H5    1.079077 S    
N9    O21   1.301571 A    
C50   H21   1.111007 S    
