data_mof_unit_36659.cif
_audit_creation_date              2012-12-11T17:17:02-0500
_audit_creation_method            fapswitch 2.2
_symmetry_space_group_name_H-M    P1
_symmetry_Int_Tables_number       1
_space_group_crystal_system       triclinic
_cell_length_a                    6.939391
_cell_length_b                    13.39291
_cell_length_c                    14.706215
_cell_angle_alpha                 99.119398
_cell_angle_beta                  90.061866
_cell_angle_gamma                 90.066774
_cell_volume                      1349.49782114

loop_
_atom_site_label
_atom_site_type_symbol
_atom_type_description
_atom_site_fract_x
_atom_site_fract_y
_atom_site_fract_z
_atom_type_partial_charge
O1    O     O_R   0.354890 0.151580 0.148210 -0.532407
O2    O     O_R   0.645110 0.848420 0.851790 -0.532407
O3    O     O_R   0.682370 0.152980 0.336770 -0.507413
O4    O     O_R   0.317630 0.847020 0.663230 -0.507413
O5    O     O_R   0.854980 0.348430 0.351800 -0.529375
O6    O     O_R   0.145020 0.651570 0.648200 -0.529375
C1    C     C_R   0.514084 0.131887 0.366355 0.817055
C2    C     C_R   0.485916 0.868113 0.633645 0.817055
O7    O     O_R   0.684450 0.139580 0.148000 -0.536065
O8    O     O_R   0.315550 0.860420 0.852000 -0.536065
O9    O     O_R   0.857080 0.334940 0.161680 -0.560402
O10   O     O_R   0.142920 0.665060 0.838320 -0.560402
C3    C     C_R   0.515470 0.112659 0.114038 0.772067
C4    C     C_R   0.484530 0.887341 0.885962 0.772068
O11   O     O_R   0.352790 0.165070 0.338330 -0.551656
O12   O     O_R   0.647210 0.834930 0.661670 -0.551656
O13   O     O_3   0.522170 0.314120 0.254710 -0.383463
O14   O     O_3   0.477830 0.685880 0.745290 -0.383463
V1    V     V_3+5 0.796120 0.238110 0.249130 1.560655
V2    V     V_3+5 0.203880 0.761890 0.750870 1.560655
O15   O     O_R   0.186930 0.347040 0.163240 -0.522601
O16   O     O_R   0.813070 0.652960 0.836760 -0.522600
C5    C     C_R   0.018034 0.368084 0.133391 0.776512
C6    C     C_R   0.981965 0.631916 0.866609 0.776512
O17   O     O_R   0.184850 0.360440 0.352010 -0.544117
O18   O     O_R   0.815150 0.639560 0.647990 -0.544117
C7    C     C_R   0.015901 0.387325 0.385981 0.770577
C8    C     C_R   0.984099 0.612675 0.614019 0.770577
V3    V     V_3+5 0.296410 0.261900 0.250880 1.536534
V4    V     V_3+5 0.703590 0.738100 0.749120 1.536534
O19   O     O_3   0.020490 0.185890 0.245290 -0.370416
O20   O     O_3   0.979510 0.814110 0.754710 -0.370416
C9    C     C_1   0.005232 0.466906 0.466337 -0.130432
C10   C     C_1   0.994767 0.533094 0.533663 -0.130433
C11   C     C_3   0.181773 0.526811 0.978920 -0.303611
C12   C     C_3   0.818227 0.473188 0.021079 -0.303611
C13   C     C_3   0.086049 0.545408 0.075143 0.330645
C14   C     C_3   0.913951 0.454592 0.924857 0.330645
H1    H     H_    0.331041 0.549031 0.963577 0.151368
H2    H     H_    0.668959 0.450969 0.036423 0.151369
C15   C     C_3   0.007775 0.436809 0.062133 -0.080013
C16   C     C_3   0.992225 0.563191 0.937867 -0.080013
C17   C     C_3   0.100077 0.417418 0.965209 -0.064629
C18   C     C_3   0.899923 0.582582 0.034791 -0.064628
C19   C     C_3   0.324058 0.030283 0.483238 0.308670
C20   C     C_3   0.675942 0.969717 0.516762 0.308670
C21   C     C_3   0.390740 0.918995 0.468089 -0.147222
C22   C     C_3   0.609260 0.081005 0.531911 -0.147222
C23   C     C_3   0.492347 0.937495 0.563356 -0.149079
C24   C     C_3   0.507653 0.062505 0.436643 -0.149079
C25   C     C_3   0.423490 0.049119 0.578270 -0.097765
C26   C     C_3   0.576510 0.950881 0.421730 -0.097765
C27   C     C_1   0.504869 0.033098 0.033675 -0.107230
C28   C     C_1   0.495131 0.966902 0.966325 -0.107230
O21   O     O_3   0.176178 0.592895 0.155623 -0.649532
H3    H     H_    0.217313 0.659994 0.142322 0.290179
O22   O     O_3   0.823822 0.407105 0.844377 -0.649532
H4    H     H_    0.782687 0.340006 0.857678 0.290179
C29   C     C_2   0.209963 0.326199 0.921365 0.370958
H5    H     H_    0.267272 0.323500 0.852433 0.071199
O23   O     O_2   0.235373 0.254903 0.962309 -0.532074
C30   C     C_2   0.790037 0.673801 0.078635 0.370958
H6    H     H_    0.732728 0.676500 0.147566 0.071199
O24   O     O_2   0.764627 0.745097 0.037691 -0.532074
C31   C     C_2   0.265094 0.831881 0.428065 0.429057
H7    H     H_    0.198821 0.831426 0.361175 0.047170
O25   O     O_2   0.236960 0.761454 0.469773 -0.528736
C32   C     C_2   0.734905 0.168119 0.571935 0.429057
H8    H     H_    0.801179 0.168574 0.638825 0.047170
O26   O     O_2   0.763040 0.238546 0.530227 -0.528736
O27   O     O_3   0.137917 0.063577 0.467285 -0.615730
H9    H     H_    0.105474 0.032432 0.403404 0.306445
O28   O     O_3   0.862083 0.936423 0.532715 -0.615730
H10   H     H_    0.894526 0.967568 0.596596 0.306445
C33   C     C_2   0.333459 0.108075 0.662665 0.373739
H11   H     H_    0.286677 0.185166 0.661840 0.067597
O29   O     O_2   0.312601 0.070344 0.732256 -0.536460
C34   C     C_2   0.666541 0.891925 0.337335 0.373739
H12   H     H_    0.713323 0.814834 0.338160 0.067597
O30   O     O_2   0.687399 0.929656 0.267744 -0.536460

loop_
_geom_bond_atom_site_label_1
_geom_bond_atom_site_label_2
_ccdc_geom_bond_type
O21   H3    S    
C19   O27   S    
C6    C16   S    
O28   H10   S    
O4    C2    A    
V1    O19   S    
C23   C25   S    
C21   C23   S    
C27   C28   T    
C7    C9    S    
C20   C23   S    
O9    V1    S    
C11   C13   S    
C25   C33   S    
C14   C16   S    
O3    C1    A    
C34   O30   D    
C19   C25   S    
O12   V4    S    
C20   C26   S    
O13   V3    S    
O9    C5    A    
C11   C16   S    
O7    C3    A    
C30   O24   D    
O5    C7    A    
O7    V1    S    
C22   C25   S    
O6    C8    A    
O8    V2    S    
C32   H8    S    
C31   O25   D    
C24   C26   S    
O3    V1    S    
O14   V4    S    
C11   C17   S    
C17   C29   S    
C22   C24   S    
C8    C10   S    
C29   H5    S    
C2    O12   A    
C15   C17   S    
C12   C15   S    
C16   C18   S    
C26   C34   S    
O11   V3    S    
C3    C27   S    
C19   C21   S    
O17   V3    S    
C20   C22   S    
C29   O23   D    
C12   H2    S    
O8    C4    A    
C34   H12   S    
C18   C30   S    
O15   V3    S    
O4    V2    S    
C11   H1    S    
C33   H11   S    
C30   H6    S    
C14   O22   S    
O10   V2    S    
O1    V3    S    
C9    C10   T    
C22   C32   S    
C33   O29   D    
C4    C28   S    
O18   V4    S    
O15   C5    A    
O16   C6    A    
C12   C18   S    
O1    C3    A    
V2    O20   S    
O16   V4    S    
C1    C24   S    
C21   C26   S    
O5    V1    S    
O17   C7    A    
O6    V2    S    
O10   C6    A    
O18   C8    A    
C5    C15   S    
O2    V4    S    
C13   C18   S    
C12   C14   S    
O27   H9    S    
V3    O19   S    
V4    O20   S    
O22   H4    S    
C19   C24   S    
C1    O11   A    
O13   V1    S    
O14   V2    S    
C13   C15   S    
O2    C4    A    
C13   O21   S    
C14   C17   S    
C32   O26   D    
C31   H7    S    
C2    C23   S    
C21   C31   S    
C20   O28   S    
