data_mof_unit_34984.cif
_audit_creation_date              2013-03-05T15:45:01-0500
_audit_creation_method            fapswitch 2.2
_symmetry_space_group_name_H-M    P1
_symmetry_Int_Tables_number       1
_space_group_crystal_system       triclinic
_cell_length_a                    9.835383
_cell_length_b                    11.036895
_cell_length_c                    12.967217
_cell_angle_alpha                 90.067608
_cell_angle_beta                  75.815811
_cell_angle_gamma                 110.887235
_cell_volume                      1269.23697515

loop_
_atom_site_label
_atom_site_type_symbol
_atom_site_description
_atom_site_fract_x
_atom_site_fract_y
_atom_site_fract_z
_atom_type_partial_charge
O1    O     O_R   0.578710 0.332530 0.490040 -0.562899
O2    O     O_R   0.421290 0.667470 0.509960 -0.562897
O3    O     O_R   0.329810 0.295070 0.521560 -0.583139
O4    O     O_R   0.670190 0.704930 0.478440 -0.583140
C1    C     C_R   0.439782 0.254037 0.507761 0.881040
C2    C     C_R   0.560218 0.745963 0.492239 0.881046
O5    O     O_R   0.604230 0.515670 0.637800 -0.594707
O6    O     O_R   0.395770 0.484330 0.362200 -0.594706
O7    O     O_R   0.355330 0.478200 0.669330 -0.534135
O8    O     O_R   0.644670 0.521800 0.330670 -0.534132
C3    C     C_R   0.475137 0.502292 0.702180 0.850460
C4    C     C_R   0.524863 0.497709 0.297819 0.850452
Cu1   Cu    Cu3+1 0.647370 0.522180 0.481340 1.000829
Cu2   Cu    Cu3+1 0.352630 0.477820 0.518660 1.000827
C5    C     C_R   0.535671 0.487308 0.184419 -0.168208
C6    C     C_R   0.464330 0.512696 0.815581 -0.168207
C7    C     C_R   0.349162 0.560119 0.990785 -0.206393
C8    C     C_R   0.650842 0.439888 0.009214 -0.206397
C9    C     C_R   0.358725 0.558683 0.881627 0.334424
C10   C     C_R   0.641281 0.441326 0.118372 0.334431
C11   C     C_R   0.561580 0.474398 0.858545 -0.262394
C12   C     C_R   0.438420 0.525604 0.141455 -0.262392
C13   C     C_R   0.553785 0.478868 0.966690 0.101448
C14   C     C_R   0.446217 0.521137 0.033309 0.101443
H1    H     H_    0.357557 0.560680 0.192208 0.167239
H2    H     H_    0.642441 0.439321 0.807792 0.167237
H3    H     H_    0.268795 0.595238 0.041939 0.186219
H4    H     H_    0.731212 0.404772 0.958061 0.186209
H5    H     H_    0.365971 0.864673 0.517030 0.189556
H6    H     H_    0.634029 0.135327 0.482970 0.189556
C15   C     C_2   0.405874 0.114814 0.511992 -0.317066
C16   C     C_2   0.594127 0.885186 0.488008 -0.317064
C17   C     C_2   0.517028 0.069567 0.497842 -0.117375
C18   C     C_2   0.482972 0.930433 0.502157 -0.117371
H7    H     H_    0.710917 0.951244 0.473195 0.153046
H8    H     H_    0.289083 0.048756 0.526804 0.153048
H9    H     H_    0.835252 0.413736 0.569839 0.151255
H10   H     H_    0.164748 0.586264 0.430161 0.151255
N1    N     N_2   0.131210 0.444490 0.546730 -0.272153
N2    N     N_2   0.868790 0.555510 0.453270 -0.272151
C19   C     C_2   0.082836 0.511283 0.491413 -0.041948
C20   C     C_2   0.917164 0.488717 0.508587 -0.041949
H11   H     H_    0.949169 0.626675 0.396156 0.201862
H12   H     H_    0.050831 0.373325 0.603844 0.201858
N3    N     N_R   0.733501 0.389883 0.161043 0.131379
O9    O     O_R   0.871349 0.411066 0.106899 -0.328035
O10   O     O_R   0.672699 0.303807 0.243759 -0.360303
N4    N     N_R   0.266514 0.610138 0.838954 0.131379
O11   O     O_R   0.128680 0.588990 0.893109 -0.328034
O12   O     O_R   0.327320 0.696197 0.756227 -0.360305

loop_
_geom_bond_atom_site_label_1
_geom_bond_atom_site_label_2
_geom_bond_distance
_ccdc_geom_bond_type
C2    C16   1.449538 S    
O7    Cu2   1.960426 S    
C15   C17   1.330045 D    
C6    C11   1.397837 A    
C3    C6    1.455511 S    
C15   H8    1.087633 S    
C10   N3    1.437056 S    
C4    C5    1.455510 S    
O6    C4    1.295365 A    
N4    O12   1.301366 A    
C17   C18   1.448332 S    
C5    C12   1.397835 A    
N1    C19   1.304965 D    
Cu1   Cu2   2.679256 S    
O5    C3    1.295366 A    
O7    C3    1.289566 A    
O2    C2    1.293404 A    
O3    Cu2   1.947638 S    
O8    C4    1.289566 A    
C6    C9    1.417340 A    
O1    C1    1.293404 A    
N2    C20   1.304966 D    
N4    O11   1.301393 A    
C7    C9    1.395867 A    
C11   H2    1.085331 S    
C8    C10   1.395865 A    
C11   C13   1.387334 A    
C5    C10   1.417337 A    
O2    Cu2   1.950726 S    
C12   C14   1.387335 A    
C7    C14   1.397055 A    
O1    Cu1   1.950726 S    
N1    H12   1.030570 S    
C8    C13   1.397054 A    
C7    H3    1.084405 S    
C16   H7    1.087632 S    
O5    Cu1   1.964217 S    
C8    H4    1.084403 S    
H10   C19   1.085043 S    
O4    C2    1.288897 A    
C19   C20   1.516455 S    
N3    O10   1.301368 A    
H9    C20   1.085043 S    
C9    N4    1.437064 S    
Cu1   N2    2.012713 S    
O6    Cu2   1.964220 S    
C13   C14   1.409359 A    
H6    C17   1.088209 S    
O3    C1    1.288896 A    
Cu2   N1    2.012712 S    
N3    O9    1.301399 A    
H5    C18   1.088209 S    
O8    Cu1   1.960427 S    
N2    H11   1.030569 S    
O4    Cu1   1.947638 S    
C1    C15   1.449537 S    
C12   H1    1.085332 S    
C16   C18   1.330044 D    
