data_mof_unit_65930.cif
_audit_creation_date              2012-10-26T20:36:23-0400
_audit_creation_method            fapswitch 2.2
_symmetry_space_group_name_H-M    P1
_symmetry_Int_Tables_number       1
_space_group_crystal_system       triclinic
_cell_length_a                    15.871633
_cell_length_b                    16.98568
_cell_length_c                    19.36222
_cell_angle_alpha                 91.511645
_cell_angle_beta                  91.023447
_cell_angle_gamma                 95.356787
_cell_volume                      5194.18122094

loop_
_atom_site_label
_atom_site_type_symbol
_atom_type_description
_atom_site_fract_x
_atom_site_fract_y
_atom_site_fract_z
_atom_type_partial_charge
C1    C     C_R   0.490203 0.348645 0.501695 0.572643
C2    C     C_R   0.526946 0.903065 0.489724 0.201090
C3    C     C_R   0.414089 0.134709 0.471833 -0.116657
C4    C     C_R   0.585928 0.865317 0.527840 -0.117471
C5    C     C_R   0.420273 0.216696 0.469676 -0.193003
C6    C     C_R   0.579756 0.783339 0.530089 -0.193090
C7    C     C_R   0.755673 0.464446 0.463292 0.241286
C8    C     C_R   0.249388 0.540643 0.534844 0.243723
C9    C     C_R   0.843078 0.459063 0.471768 0.250395
C10   C     C_R   0.160457 0.542940 0.532903 0.195691
C11   C     C_R   0.890024 0.506404 0.522732 0.209000
C12   C     C_R   0.509795 0.651350 0.498271 0.575094
C13   C     C_R   0.110318 0.491298 0.486753 0.224609
C14   C     C_R   0.844415 0.552947 0.567495 0.196619
C15   C     C_R   0.152571 0.441199 0.442477 0.198533
C16   C     C_R   0.501105 0.501036 0.367578 0.557041
C17   C     C_R   0.498866 0.499428 0.632552 0.578705
C18   C     C_R   0.755835 0.553109 0.559759 0.031620
C19   C     C_R   0.241103 0.441395 0.446091 0.025892
C20   C     C_R   0.434528 0.464270 0.253525 -0.128994
C21   C     C_R   0.569954 0.527586 0.746658 -0.130482
C22   C     C_R   0.434013 0.463753 0.181714 -0.102043
C23   C     C_R   0.485417 0.262319 0.506149 -0.026614
C24   C     C_R   0.570675 0.528271 0.818518 -0.101147
C25   C     C_R   0.502136 0.501508 0.146471 0.015747
C26   C     C_R   0.498316 0.500022 0.854080 0.017612
C27   C     C_R   0.570739 0.540278 0.184469 -0.074598
C28   C     C_R   0.425084 0.471072 0.816355 -0.092900
C29   C     C_R   0.571668 0.541672 0.256977 0.096925
C30   C     C_R   0.423687 0.470279 0.744010 0.090773
C31   C     C_R   0.503133 0.502371 0.291765 0.054318
C32   C     C_R   0.496800 0.499049 0.708587 0.063071
C33   C     C_R   0.499330 0.500420 0.930205 0.355351
C34   C     C_R   0.514575 0.737662 0.493712 -0.031556
C35   C     C_R   0.501251 0.501026 0.070332 0.354480
C36   C     C_R   0.543039 0.224856 0.547743 0.235806
C37   C     C_R   0.456908 0.775058 0.452107 0.226589
C38   C     C_R   0.536464 0.141926 0.549917 0.292683
C39   C     C_R   0.463467 0.857981 0.449842 0.292579
C40   C     C_R   0.473022 0.096901 0.509951 0.200865
Cl1   Cl    Cl    0.115998 0.615302 0.584538 -0.458066
Cl2   Cl    Cl    0.888698 0.387524 0.419920 -0.384644
Cl3   Cl    Cl    0.896649 0.611098 0.634535 -0.440329
Cl4   Cl    Cl    0.096363 0.377763 0.381039 -0.433479
Cl5   Cl    Cl    0.379607 0.719244 0.399366 -0.457437
Cl6   Cl    Cl    0.620300 0.280590 0.600582 -0.443135
Cl7   Cl    Cl    0.395188 0.904918 0.394389 -0.432346
Cl8   Cl    Cl    0.604672 0.094903 0.605367 -0.430205
Cu1   Cu    Cu3+1 0.415220 0.496180 0.496660 1.048879
Cu2   Cu    Cu3+1 0.584780 0.503820 0.503340 1.007543
H1    H     H_    0.381320 0.433982 0.279292 0.144952
H2    H     H_    0.635698 0.899838 0.557322 0.195565
H3    H     H_    0.374812 0.244566 0.438418 0.159713
H4    H     H_    0.625252 0.755521 0.561352 0.161914
H5    H     H_    0.616741 0.633842 0.318937 0.254899
H6    H     H_    0.687603 0.606729 0.261848 0.245975
H7    H     H_    0.334651 0.379895 0.721568 0.252406
H8    H     H_    0.298710 0.470508 0.722534 0.243295
H9    H     H_    0.280611 0.581823 0.631864 0.247166
H10   H     H_    0.291648 0.650870 0.569974 0.273303
H11   H     H_    0.662540 0.386522 0.417626 0.279910
H12   H     H_    0.626851 0.550120 0.720830 0.149986
H13   H     H_    0.701488 0.463873 0.367335 0.277477
H14   H     H_    0.721849 0.588107 0.595338 0.158800
H15   H     H_    0.272743 0.402853 0.411833 0.154598
H16   H     H_    0.380189 0.433411 0.153885 0.166290
H17   H     H_    0.628191 0.550850 0.846122 0.167781
H18   H     H_    0.623208 0.570525 0.157837 0.150574
H19   H     H_    0.368588 0.448665 0.842772 0.152753
H20   H     H_    0.364344 0.100232 0.442288 0.195489
N1    N     N_R   0.569133 0.532990 0.035678 -0.205364
N2    N     N_2   0.020096 0.492258 0.478695 -0.097056
N3    N     N_3   0.640451 0.584748 0.295159 -0.599964
N4    N     N_3   0.348596 0.438460 0.707066 -0.583546
N5    N     N_3   0.300573 0.592400 0.581510 -0.510955
N6    N     N_3   0.715317 0.423295 0.404369 -0.523096
N7    N     N_R   0.431446 0.468478 0.964858 -0.205781
N8    N     N_R   0.568210 0.532647 0.966985 -0.202370
N9    N     N_R   0.432405 0.468744 0.033543 -0.202425
N10   N     N_2   0.466141 0.013432 0.507739 -0.148279
N11   N     N_2   0.533800 0.986534 0.491888 -0.147346
N12   N     N_R   0.712130 0.509560 0.508360 -0.270221
N13   N     N_R   0.287870 0.490440 0.491640 -0.243024
N14   N     N_2   0.980397 0.506540 0.532317 -0.089677
O1    O     O_R   0.420530 0.382500 0.496880 -0.510243
O2    O     O_R   0.579470 0.617500 0.503120 -0.513967
O3    O     O_R   0.563720 0.388950 0.502520 -0.468822
O4    O     O_R   0.436280 0.611050 0.497480 -0.429264
O5    O     O_R   0.428380 0.496760 0.397320 -0.496071
O6    O     O_R   0.571620 0.503240 0.602680 -0.506011
O7    O     O_R   0.571570 0.503220 0.402960 -0.504334
O8    O     O_R   0.428430 0.496780 0.597040 -0.441999

loop_
_geom_bond_atom_site_label_1
_geom_bond_atom_site_label_2
_ccdc_geom_bond_type
C1    O3    A    
C30   C32   A    
C27   C29   A    
C34   C37   A    
C14   C18   A    
C28   H19   S    
C33   N7    A    
C16   C31   S    
C15   C19   A    
H8    N4    S    
C9    Cl2   S    
C4    H2    S    
C5    H3    S    
C24   C26   A    
C15   Cl4   S    
C20   H1    S    
C30   N4    S    
C11   C14   A    
C33   N8    A    
C29   N3    S    
H13   N6    S    
C8    N13   A    
Cu1   Cu2   S    
C22   H16   S    
C27   H18   S    
C24   H17   S    
C2    C39   A    
Cu2   O6    S    
C22   C25   A    
C40   N10   S    
C36   Cl6   S    
C38   Cl8   S    
C35   N1    A    
C16   O5    A    
C10   Cl1   S    
Cu1   O4    S    
C17   O8    A    
C6    H4    S    
C19   N13   A    
N7    N9    A    
H11   N6    S    
C1    O1    A    
C21   C32   A    
C12   O4    A    
Cu1   O1    S    
C3    H20   S    
C4    C6    A    
C8    N5    S    
C6    C34   A    
H7    N4    S    
C2    C4    A    
C26   C33   S    
C5    C23   A    
C9    C11   A    
C21   H12   S    
N2    N14   D    
Cu2   O3    S    
C25   C35   S    
C8    C10   A    
C20   C22   A    
C3    C40   A    
C1    C23   S    
C13   C15   A    
Cu1   O8    S    
C12   C34   S    
C36   C38   A    
H9    N5    S    
Cu2   N12   S    
C39   Cl7   S    
C7    C9    A    
H6    N3    S    
C17   O6    A    
Cu1   O5    S    
N10   N11   D    
C3    C5    A    
C10   C13   A    
C7    N6    S    
C13   N2    S    
C11   N14   S    
C25   C27   A    
H10   N5    S    
C26   C28   A    
C12   O2    A    
Cu1   N13   S    
C28   C30   A    
C29   C31   A    
C38   C40   A    
C18   H14   S    
C35   N9    A    
C18   N12   A    
C19   H15   S    
Cu2   O2    S    
H5    N3    S    
Cu2   O7    S    
C7    N12   A    
C16   O7    A    
C37   C39   A    
C23   C36   A    
C21   C24   A    
C17   C32   S    
C2    N11   S    
C37   Cl5   S    
N1    N8    A    
C14   Cl3   S    
C20   C31   A    
