data_mof_unit_58198.cif
_audit_creation_date              2013-03-05T16:12:47-0500
_audit_creation_method            fapswitch 2.2
_symmetry_space_group_name_H-M    P1
_symmetry_Int_Tables_number       1
_space_group_crystal_system       triclinic
_cell_length_a                    10.657333
_cell_length_b                    9.815286
_cell_length_c                    27.6834
_cell_angle_alpha                 90.064504
_cell_angle_beta                  89.643661
_cell_angle_gamma                 90.426003
_cell_volume                      2895.6779959

loop_
_atom_site_label
_atom_site_type_symbol
_atom_site_description
_atom_site_fract_x
_atom_site_fract_y
_atom_site_fract_z
_atom_type_partial_charge
O1    O     O_R   0.316770 0.614620 0.500000 -0.609217
O2    O     O_R   0.683230 0.385380 0.500000 -0.597681
O3    O     O_R   0.683230 0.614620 0.500000 -0.600293
O4    O     O_R   0.316770 0.385380 0.500000 -0.594340
C1    C     C_R   0.260216 0.499336 0.499861 0.996918
C2    C     C_R   0.739729 0.500586 0.500378 1.026423
O5    O     O_R   0.500030 0.614650 0.428760 -0.612271
O6    O     O_R   0.499970 0.385350 0.571240 -0.573976
O7    O     O_R   0.499970 0.614650 0.571240 -0.643205
O8    O     O_R   0.500030 0.385350 0.428760 -0.601439
C3    C     C_R   0.503707 0.500022 0.405838 1.007750
C4    C     C_R   0.496638 0.500081 0.594228 0.976365
Zn1   Zn    Zn3+2 0.500000 0.653120 0.500000 1.045415
Zn2   Zn    Zn3+2 0.500000 0.346880 0.500000 1.092118
C5    C     C_R   0.393247 0.544711 0.179211 0.643243
C6    C     C_R   0.585518 0.569424 0.820754 0.636637
O9    O     O_2   0.289042 0.546638 0.207111 -0.437539
O10   O     O_2   0.688137 0.589627 0.792825 -0.439704
N1    N     N_R   0.507027 0.524626 0.200464 -0.344676
N2    N     N_R   0.475133 0.532864 0.799363 -0.345684
C7    C     C_R   0.614994 0.513099 0.174122 0.645269
C8    C     C_R   0.368751 0.506531 0.825397 0.655608
C9    C     C_R   0.537913 0.396186 0.274561 -0.143116
C10   C     C_R   0.480913 0.396675 0.726165 -0.148812
C11   C     C_R   0.540079 0.386562 0.324831 0.295976
C12   C     C_R   0.487087 0.384264 0.676045 0.338614
C13   C     C_R   0.486087 0.627197 0.329655 -0.192795
C14   C     C_R   0.475900 0.631483 0.669756 -0.258804
C15   C     C_R   0.489792 0.638164 0.279518 0.359065
C16   C     C_R   0.467088 0.643738 0.719824 0.365759
C17   C     C_R   0.513252 0.520316 0.251945 0.098649
C18   C     C_R   0.471079 0.524561 0.747985 0.105318
C19   C     C_R   0.496412 0.550926 0.101145 -0.084871
C20   C     C_R   0.482196 0.557814 0.898743 -0.085005
C21   C     C_R   0.385294 0.562815 0.128843 -0.149115
C22   C     C_R   0.591798 0.584772 0.871295 -0.152134
C23   C     C_R   0.271883 0.597726 0.105669 0.222365
C24   C     C_R   0.701870 0.630187 0.894990 0.220853
C25   C     C_R   0.611731 0.524699 0.123920 -0.117912
C26   C     C_R   0.369919 0.518967 0.875613 -0.116041
C27   C     C_R   0.510339 0.502850 0.352822 -0.189190
C28   C     C_R   0.486497 0.503359 0.647278 -0.191125
H1    H     H_    0.465329 0.717449 0.350702 0.223613
H2    H     H_    0.473312 0.723452 0.648228 0.223981
C29   C     C_R   0.372418 0.552112 0.976670 -0.037248
C30   C     C_R   0.605460 0.562071 0.023195 -0.039363
C31   C     C_R   0.600195 0.589494 0.973064 -0.032432
C32   C     C_R   0.375867 0.575407 0.027152 -0.033000
C33   C     C_R   0.484828 0.567494 0.949477 -0.007827
C34   C     C_R   0.492559 0.563611 0.050517 -0.008308
C35   C     C_R   0.263225 0.505345 0.952931 0.684866
C36   C     C_R   0.717693 0.524436 0.046361 0.688438
C37   C     C_R   0.262156 0.490683 0.903041 -0.131198
C38   C     C_R   0.720766 0.508518 0.096158 -0.130918
O11   O     O_2   0.262181 0.469821 0.802539 -0.464214
O12   O     O_2   0.725181 0.492211 0.196646 -0.464767
C39   C     C_R   0.268197 0.609232 0.054972 0.236618
C40   C     C_R   0.704945 0.636885 0.945794 0.238108
H3    H     H_    0.484177 0.306248 0.748532 0.207240
H4    H     H_    0.557753 0.307222 0.252680 0.213196
H5    H     H_    0.176696 0.454923 0.886059 0.245557
H6    H     H_    0.808794 0.481097 0.112778 0.251555
C41   C     C_R   0.063937 0.423557 0.535226 0.195570
C42   C     C_R   0.935897 0.576343 0.465042 0.211012
C43   C     C_R   0.934302 0.426929 0.536502 0.210176
C44   C     C_R   0.065568 0.573561 0.463943 0.213873
C45   C     C_R   0.872051 0.502330 0.501009 -0.349449
C46   C     C_R   0.127828 0.497310 0.499209 -0.350586
C47   C     C_R   0.571116 0.072727 0.532302 0.044089
C48   C     C_R   0.429014 0.927286 0.467654 -0.002909
C49   C     C_R   0.428986 0.071364 0.467664 0.029807
C50   C     C_R   0.571080 0.928653 0.532315 -0.009416
H7    H     H_    0.627918 0.128050 0.558080 0.191691
H8    H     H_    0.372364 0.871973 0.441823 0.180288
H9    H     H_    0.372282 0.125596 0.441850 0.165205
H10   H     H_    0.627852 0.874440 0.558112 0.163471
N3    N     N_R   0.500000 0.857200 0.500000 -0.111404
N4    N     N_R   0.500000 0.142800 0.500000 -0.108889
N5    N     N_R   0.469657 0.768692 0.257193 0.242827
O13   O     O_R   0.404928 0.861714 0.279513 -0.272908
O14   O     O_R   0.525423 0.800280 0.216739 -0.327498
N6    N     N_R   0.455926 0.776988 0.741391 0.237929
O15   O     O_R   0.492966 0.884794 0.717796 -0.281221
O16   O     O_R   0.400315 0.793114 0.782953 -0.325214
N7    N     N_R   0.162848 0.632661 0.133384 0.274778
O17   O     O_R   0.075135 0.542224 0.141074 -0.252872
O18   O     O_R   0.151969 0.754486 0.151398 -0.244754
N8    N     N_R   0.808035 0.678393 0.867857 0.276081
O19   O     O_R   0.901023 0.597161 0.858505 -0.245103
O20   O     O_R   0.812030 0.803798 0.852755 -0.250835
N9    N     N_R   0.494166 0.250586 0.655482 0.222802
O21   O     O_R   0.582861 0.168829 0.668922 -0.291831
O22   O     O_R   0.398027 0.200831 0.632520 -0.287032
N10   N     N_R   0.577165 0.260292 0.346358 0.223350
O23   O     O_R   0.532970 0.145732 0.329676 -0.309719
O24   O     O_R   0.673019 0.257898 0.375235 -0.305342
F1    F     F_    0.160922 0.460561 0.977846 -0.571075
F2    F     F_    0.821832 0.489843 0.020844 -0.564931
N11   N     N_R   0.163170 0.675651 0.032723 0.271025
O25   O     O_R   0.048729 0.648975 0.046547 -0.186740
O26   O     O_R   0.182362 0.768408 0.999879 -0.294245
N12   N     N_R   0.805676 0.710153 0.969004 0.268266
O27   O     O_R   0.921420 0.694920 0.954918 -0.185126
O28   O     O_R   0.781068 0.797231 0.003207 -0.304340
N13   N     N_R   0.130918 0.353620 0.572372 0.244713
O29   O     O_R   0.139389 0.406954 0.615270 -0.303080
O30   O     O_R   0.170082 0.230101 0.564960 -0.275127
N14   N     N_R   0.868847 0.644881 0.427566 0.251467
O31   O     O_R   0.812795 0.574519 0.394091 -0.340406
O32   O     O_R   0.851654 0.775761 0.430096 -0.280846
N15   N     N_R   0.866448 0.357519 0.574366 0.242979
O33   O     O_R   0.890570 0.230951 0.584389 -0.279975
O34   O     O_R   0.785111 0.422909 0.600652 -0.376734
N16   N     N_R   0.133449 0.640867 0.425652 0.238866
O35   O     O_R   0.115266 0.769304 0.416786 -0.293241
O36   O     O_R   0.211511 0.572841 0.398747 -0.384717

loop_
_geom_bond_atom_site_label_1
_geom_bond_atom_site_label_2
_geom_bond_distance
_ccdc_geom_bond_type
C35   F1    1.357145 S    
C44   C46   1.403798 A    
C41   C43   1.382430 A    
C13   C15   1.392554 A    
N15   O33   1.301072 A    
C50   H10   1.081781 S    
O3    C2    1.274978 A    
N1    C17   1.427808 S    
N16   O35   1.300744 A    
C32   C39   1.419211 A    
C31   C33   1.410810 A    
N7    O17   1.301034 A    
C5    N1    1.366781 A    
N13   O30   1.300793 A    
C19   C25   1.410292 A    
O1    C1    1.278104 A    
C23   N7    1.432052 S    
N1    C7    1.363773 A    
C10   C12   1.393882 A    
C25   C38   1.399127 A    
C29   C35   1.413396 A    
C39   N11   1.441359 S    
C30   C36   1.412459 A    
N14   O31   1.300727 A    
C36   F2    1.356959 S    
O7    Zn1   2.008400 S    
C43   N15   1.438989 S    
C4    C28   1.472258 S    
C24   C40   1.408482 A    
C37   H5    1.083485 S    
C43   C45   1.403692 A    
C15   N5    1.441160 S    
C48   H8    1.081758 S    
C47   H7    1.081754 S    
C48   C49   1.414166 A    
C40   N12   1.441709 S    
C41   N13   1.433973 S    
O3    Zn1   1.991727 S    
O6    C4    1.293474 A    
N10   O24   1.301426 A    
C32   C34   1.410917 A    
C11   N10   1.435021 S    
C48   N3    1.365629 A    
C47   N4    1.365541 A    
O2    C2    1.277212 A    
C1    C46   1.411115 S    
C5    C21   1.408995 A    
C36   C38   1.388164 A    
C42   N14   1.434361 S    
N7    O18   1.300750 A    
C9    H4    1.083544 S    
Zn1   N3    2.003104 S    
C16   C18   1.407520 A    
C42   C45   1.402844 A    
O8    Zn2   2.008405 S    
C11   C27   1.415631 A    
N9    O21   1.300853 A    
N5    O14   1.301254 A    
C38   H6    1.083360 S    
C19   C34   1.408087 A    
C14   H2    1.082862 S    
C24   N8    1.431953 S    
C35   C37   1.388552 A    
C9    C17   1.397873 A    
C16   N6    1.442513 S    
C47   C50   1.414123 A    
O5    C3    1.291818 A    
C10   C18   1.396770 A    
C50   N3    1.365691 A    
N9    O22   1.300879 A    
C13   C27   1.405800 A    
N11   O25   1.300844 A    
C7    C25   1.395214 A    
C29   C33   1.418115 A    
C6    N2    1.365767 A    
C8    C26   1.395486 A    
N10   O23   1.301198 A    
N15   O34   1.300852 A    
N12   O28   1.301619 A    
C2    C45   1.410392 S    
N11   O26   1.301626 A    
N8    O20   1.300700 A    
C26   C37   1.399110 A    
N6    O16   1.301016 A    
C20   C26   1.410457 A    
O1    Zn1   1.986211 S    
C12   C28   1.415241 A    
N2    C18   1.425444 S    
C29   C32   1.416491 A    
C5    O9    1.349007 S    
C30   C34   1.417382 A    
C30   C31   1.415498 A    
C20   C33   1.408027 A    
O6    Zn2   2.007566 S    
C44   N16   1.438180 S    
C21   C23   1.416379 A    
N2    C8    1.362903 A    
O4    C1    1.274529 A    
C7    O12   1.350102 S    
N16   O36   1.300820 A    
C8    O11   1.350004 S    
N13   O29   1.300662 A    
C41   C46   1.402737 A    
C22   C24   1.416418 A    
C12   N9    1.431981 S    
C14   C16   1.393782 A    
C15   C17   1.408215 A    
C6    C22   1.408993 A    
C31   C40   1.419544 A    
C49   H9    1.081778 S    
C10   H3    1.083695 S    
C14   C28   1.407454 A    
C19   C21   1.412273 A    
N14   O32   1.300719 A    
C3    C27   1.469206 S    
C20   C22   1.413012 A    
Zn2   N4    2.003104 S    
O4    Zn2   1.991727 S    
N12   O27   1.300998 A    
O2    Zn2   1.986211 S    
O7    C4    1.292884 A    
O8    C3    1.292932 A    
N5    O13   1.301576 A    
C13   H1    1.083173 S    
O5    Zn1   2.007571 S    
C9    C11   1.395301 A    
N8    O19   1.301129 A    
C6    O10   1.349003 S    
N6    O15   1.301639 A    
C49   N4    1.365595 A    
C23   C39   1.408960 A    
C42   C44   1.382565 A    
