data_mof_unit_38640.cif
_audit_creation_date              2012-12-10T17:43:18-0500
_audit_creation_method            fapswitch 2.2
_symmetry_space_group_name_H-M    P1
_symmetry_Int_Tables_number       1
_space_group_crystal_system       triclinic
_cell_length_a                    15.013883
_cell_length_b                    13.894067
_cell_length_c                    10.612272
_cell_angle_alpha                 90.257446
_cell_angle_beta                  87.702797
_cell_angle_gamma                 90.746275
_cell_volume                      2211.77710585

loop_
_atom_site_label
_atom_site_type_symbol
_atom_type_description
_atom_site_fract_x
_atom_site_fract_y
_atom_site_fract_z
_atom_type_partial_charge
C1    C     C_R   0.328984 0.499641 0.500597 0.802911
C2    C     C_R   0.671016 0.500359 0.499403 0.802925
C3    C     C_R   0.953301 0.499948 0.499788 0.059414
C4    C     C_R   0.046699 0.500052 0.500212 0.059414
C5    C     C_R   0.909889 0.561085 0.416618 0.104586
C6    C     C_R   0.090112 0.438915 0.583382 0.104586
C7    C     C_R   0.947084 0.378109 0.664566 -0.196131
C8    C     C_R   0.052916 0.621891 0.335435 -0.196129
C9    C     C_R   0.039989 0.378470 0.665319 -0.178897
C10   C     C_R   0.960011 0.621530 0.334682 -0.178897
C11   C     C_R   0.438676 0.793441 0.574907 0.111356
C12   C     C_R   0.561322 0.206559 0.425090 0.111359
C13   C     C_R   0.562125 0.794987 0.426394 0.127003
C14   C     C_R   0.437877 0.205013 0.573608 0.127000
C15   C     C_R   0.561187 0.897699 0.422146 -0.011797
C16   C     C_R   0.438813 0.102301 0.577855 -0.011800
C17   C     C_R   0.438812 0.896178 0.577961 -0.025787
C18   C     C_R   0.561187 0.103822 0.422037 -0.025811
C19   C     C_R   0.499937 0.948380 0.499939 0.062458
C20   C     C_R   0.500063 0.051621 0.500062 0.062467
C21   C     C_R   0.619429 0.951256 0.340673 -0.155962
C22   C     C_R   0.380571 0.048744 0.659328 -0.155976
C23   C     C_R   0.380271 0.948310 0.658926 -0.178647
C24   C     C_R   0.619728 0.051691 0.341073 -0.178672
C25   C     C_R   0.500143 0.499744 0.259512 0.761297
C26   C     C_R   0.499856 0.500256 0.740488 0.761289
C27   C     C_3   0.427238 0.545221 0.046674 -0.158525
C28   C     C_3   0.572761 0.454779 0.953326 -0.158520
C29   C     C_3   0.500899 0.591673 0.960093 -0.138111
C30   C     C_3   0.499101 0.408327 0.039907 -0.138108
C31   C     C_3   0.426268 0.454465 0.961807 -0.175121
C32   C     C_3   0.573731 0.545535 0.038193 -0.175115
C33   C     C_3   0.499923 0.500820 0.877509 0.027611
C34   C     C_3   0.500076 0.499180 0.122491 0.027612
C35   C     C_R   0.817030 0.560459 0.416813 -0.203873
C36   C     C_R   0.182970 0.439541 0.583187 -0.203876
C37   C     C_R   0.767651 0.500490 0.499613 -0.048942
C38   C     C_R   0.232349 0.499510 0.500387 -0.048951
C39   C     C_R   0.810497 0.438816 0.580991 -0.191447
C40   C     C_R   0.189503 0.561183 0.419008 -0.191446
C41   C     C_R   0.903355 0.438467 0.582220 0.104680
C42   C     C_R   0.096645 0.561533 0.417780 0.104681
Cu1   Cu    Cu3+1 0.500000 0.597420 0.500000 0.945707
Cu2   Cu    Cu3+1 0.500000 0.402580 0.500000 0.945720
H1    H     H_    0.365935 0.417353 0.927374 0.123073
H2    H     H_    0.634064 0.582647 0.072625 0.123073
H3    H     H_    0.367730 0.582114 0.088105 0.130229
H4    H     H_    0.632269 0.417886 0.911895 0.130228
H5    H     H_    0.501682 0.666828 0.924933 0.130849
H6    H     H_    0.498317 0.333172 0.075065 0.130845
H7    H     H_    0.771377 0.392173 0.644199 0.145629
H8    H     H_    0.228623 0.607825 0.355801 0.145631
H9    H     H_    0.909439 0.330768 0.728385 0.151312
H10   H     H_    0.090561 0.669232 0.271615 0.151312
H11   H     H_    0.664990 0.916425 0.274054 0.173319
H12   H     H_    0.335010 0.083576 0.725947 0.173317
H13   H     H_    0.333931 0.912225 0.724159 0.166251
H14   H     H_    0.666068 0.087775 0.275840 0.166241
N1    N     N_R   0.500000 0.743810 0.500000 -0.252135
N2    N     N_R   0.500000 0.256190 0.500000 -0.252132
O1    O     O_R   0.370260 0.582280 0.500030 -0.560835
O2    O     O_R   0.629740 0.417720 0.499970 -0.560808
O3    O     O_R   0.629740 0.582280 0.499970 -0.576018
O4    O     O_R   0.370260 0.417720 0.500030 -0.576010
O5    O     O_R   0.499980 0.582260 0.316850 -0.610737
O6    O     O_R   0.500020 0.417740 0.683150 -0.610737
O7    O     O_R   0.500020 0.582260 0.683150 -0.606513
O8    O     O_R   0.499980 0.417740 0.316850 -0.606506
H15   H     H_    0.783181 0.604516 0.350483 0.172049
H16   H     H_    0.216819 0.395485 0.649518 0.172052
H17   H     H_    0.072658 0.331336 0.729630 0.162668
H18   H     H_    0.927342 0.668666 0.270371 0.162668
C43   C     C_2   0.371730 0.740301 0.653926 0.416680
H19   H     H_    0.391207 0.700408 0.735355 0.061199
O9    O     O_2   0.292876 0.743894 0.630512 -0.548851
C44   C     C_2   0.628257 0.259699 0.346054 0.416728
H20   H     H_    0.608775 0.299558 0.264612 0.061170
O10   O     O_2   0.707107 0.256135 0.369466 -0.548862
C45   C     C_2   0.634252 0.744187 0.356055 0.375081
H21   H     H_    0.620208 0.688982 0.287695 0.079781
O11   O     O_2   0.711938 0.765241 0.374052 -0.576820
C46   C     C_2   0.365750 0.255814 0.643948 0.375087
H22   H     H_    0.379796 0.311015 0.712313 0.079775
O12   O     O_2   0.288064 0.234763 0.625950 -0.576819

loop_
_geom_bond_atom_site_label_1
_geom_bond_atom_site_label_2
_ccdc_geom_bond_type
C39   H7    S    
C13   C45   S    
C27   C29   S    
C43   H19   S    
Cu2   O6    S    
C19   C20   A    
Cu1   O5    S    
C6    C9    A    
Cu1   O3    S    
C39   C41   A    
C29   H5    S    
Cu2   O4    S    
C15   C19   A    
C17   C23   A    
C18   C24   A    
C26   O7    A    
C35   C37   A    
C44   O10   D    
C29   C32   S    
C30   C31   S    
C29   C33   S    
C7    C9    A    
C11   C17   A    
C31   C33   S    
Cu1   N1    S    
C25   C34   S    
C40   C42   A    
C30   H6    S    
C43   O9    D    
C28   H4    S    
C25   O8    A    
C11   N1    A    
C36   H16   S    
C27   C34   S    
C30   C34   S    
C27   C31   S    
C26   O6    A    
C28   C32   S    
C25   O5    A    
C44   H20   S    
C4    C6    A    
C11   C43   S    
C8    H10   S    
C45   O11   D    
C22   H12   S    
Cu2   O2    S    
C40   H8    S    
C32   C34   S    
Cu1   Cu2   S    
Cu1   O7    S    
C26   C33   S    
C16   C20   A    
C1    C38   S    
C8    C10   A    
C28   C33   S    
C46   O12   D    
C13   C15   A    
C12   C44   S    
C14   C16   A    
Cu2   O8    S    
C14   C46   S    
C3    C4    A    
C1    O4    A    
C2    O3    A    
Cu1   O1    S    
C21   H11   S    
C27   H3    S    
C23   H13   S    
C3    C41   A    
C16   C22   A    
C32   H2    S    
C9    H17   S    
C8    C42   A    
C3    C5    A    
C1    O1    A    
C13   N1    A    
C14   N2    A    
C28   C30   S    
C5    C10   A    
C37   C39   A    
C38   C40   A    
C2    C37   S    
C4    C42   A    
Cu2   N2    S    
C5    C35   A    
C36   C38   A    
C17   C19   A    
C6    C36   A    
C18   C20   A    
C7    C41   A    
C45   H21   S    
C12   N2    A    
C15   C21   A    
C35   H15   S    
C24   H14   S    
C46   H22   S    
C31   H1    S    
C21   C24   A    
C12   C18   A    
C7    H9    S    
C22   C23   A    
C2    O2    A    
C10   H18   S    
