data_mof_unit_30416.cif
_audit_creation_date              2012-10-26T18:53:18-0400
_audit_creation_method            fapswitch 2.2
_symmetry_space_group_name_H-M    P1
_symmetry_Int_Tables_number       1
_space_group_crystal_system       triclinic
_cell_length_a                    14.769995
_cell_length_b                    14.874631
_cell_length_c                    15.917645
_cell_angle_alpha                 75.973432
_cell_angle_beta                  102.426029
_cell_angle_gamma                 115.659596
_cell_volume                      3033.82733425

loop_
_atom_site_label
_atom_site_type_symbol
_atom_type_description
_atom_site_fract_x
_atom_site_fract_y
_atom_site_fract_z
_atom_type_partial_charge
Br1   Br    Br    0.071686 0.721185 0.046730 -0.290904
Br2   Br    Br    0.667491 0.797240 0.646415 -0.308633
Br3   Br    Br    0.984175 0.145385 0.530503 -0.384900
Br4   Br    Br    0.098366 0.293665 0.696689 -0.238252
Br5   Br    Br    0.880312 0.619298 0.865486 -0.326506
Br6   Br    Br    0.297851 0.241150 0.751740 -0.348675
Br7   Br    Br    0.789260 0.346550 0.084006 -0.342661
Br8   Br    Br    0.832101 0.566960 0.061656 -0.250556
Br9   Br    Br    0.217362 0.614883 0.103256 -0.331524
C1    C     C_R   0.880201 0.311876 0.510278 0.579775
C2    C     C_R   0.188352 0.794329 0.486382 0.008181
C3    C     C_R   0.781266 0.024192 0.561775 -0.042354
C4    C     C_R   0.999671 0.499995 0.659365 0.588467
C5    C     C_R   0.848535 0.124384 0.539769 0.173124
C6    C     C_R   0.707948 0.173630 0.503623 -0.096860
C7    C     C_R   0.639311 0.074619 0.533806 0.008839
C8    C     C_R   0.677602 0.998225 0.562513 0.002903
C9    C     C_R   0.533692 0.048801 0.532921 0.004674
C10   C     C_R   0.466701 0.944638 0.544738 -0.029684
C11   C     C_R   0.507556 0.870975 0.584610 0.058034
C12   C     C_3   0.020101 0.406078 0.076869 -0.265995
C13   C     C_R   0.612449 0.897702 0.591510 0.160562
C14   C     C_R   0.491125 0.121532 0.522393 0.081551
C15   C     C_R   0.386655 0.092720 0.508911 -0.090152
C16   C     C_R   0.120037 0.687431 0.486167 0.537059
C17   C     C_R   0.321391 0.993122 0.504123 0.031440
C18   C     C_R   0.360682 0.918537 0.518900 0.042256
C19   C     C_R   0.216767 0.967365 0.484600 -0.088768
C20   C     C_R   0.150405 0.868000 0.477646 -0.096974
C21   C     C_R   0.293173 0.821474 0.502204 -0.078089
C22   C     C_R   0.697650 0.623927 0.323016 -0.105065
C23   C     C_3   0.997204 0.497022 0.083558 -0.015659
C24   C     C_R   0.781316 0.601014 0.357821 0.050418
C25   C     C_R   0.729579 0.550354 0.498253 0.158037
C26   C     C_R   0.632673 0.553280 0.462152 -0.035794
C27   C     C_R   0.620377 0.597907 0.374046 -0.003872
C28   C     C_R   0.000629 0.500397 0.340627 0.544264
C29   C     C_R   0.546717 0.506437 0.509060 0.023515
C30   C     C_R   0.454079 0.518608 0.473922 0.023918
C31   C     C_R   0.446593 0.570250 0.385734 0.036354
C32   C     C_R   0.529866 0.610802 0.337190 0.053140
C33   C     C_R   0.547164 0.435142 0.584870 -0.079818
C34   C     C_3   0.082279 0.596337 0.040975 0.273669
C35   C     C_R   0.464506 0.381216 0.629221 -0.063782
C36   C     C_R   0.376642 0.398528 0.602614 0.007221
C37   C     C_R   0.371471 0.471228 0.527084 -0.001467
C38   C     C_R   0.294210 0.344280 0.651126 0.140780
C39   C     C_R   0.207866 0.365368 0.626276 0.347799
C40   C     C_3   0.018121 0.399215 0.978418 0.012492
C41   C     C_R   0.284835 0.494142 0.510583 0.041528
C42   C     C_3   0.889357 0.491321 0.931711 0.140117
C43   C     C_3   0.887568 0.480110 0.033704 0.290373
C44   C     C_1   0.001292 0.499877 0.251443 0.075183
C45   C     C_3   0.081252 0.590449 0.944658 -0.201324
C46   C     C_3   0.993773 0.491324 0.917623 -0.100705
C47   C     C_2   0.121198 0.405613 0.963899 0.593572
C48   C     C_2   0.940950 0.296237 0.955731 0.636922
C49   C     C_2   0.444525 0.771271 0.632680 0.606424
C50   C     C_2   0.551003 0.227968 0.529851 0.530632
C51   C     C_2   0.521109 0.664727 0.245856 0.616237
C52   C     C_2   0.770612 0.571999 0.587847 0.619675
C53   C     C_2   0.349808 0.572706 0.337777 0.583446
C54   C     C_2   0.792803 0.413729 0.890126 0.640971
C55   C     C_1   0.000583 0.498961 0.176128 0.072301
C56   C     C_1   0.995784 0.495480 0.824472 0.068731
C57   C     C_1   0.997749 0.498247 0.748840 0.124386
C58   C     C_R   0.812626 0.201981 0.517357 0.013645
Cu1   Cu    Cu3+1 0.081750 0.475690 0.522550 1.079506
Cu2   Cu    Cu3+1 0.918250 0.524310 0.477450 1.039704
H1    H     H_    0.968813 0.335038 0.112988 0.208447
H2    H     H_    0.471551 0.325522 0.685168 0.187932
H3    H     H_    0.691921 0.656484 0.254538 0.169221
H4    H     H_    0.836638 0.618984 0.315222 0.171614
H5    H     H_    0.607811 0.411056 0.606460 0.207624
H6    H     H_    0.155124 0.594364 0.934709 0.180313
H7    H     H_    0.077078 0.659059 0.900397 0.202350
H8    H     H_    0.207104 0.409128 0.878886 0.378365
H9    H     H_    0.832053 0.158691 0.991994 0.380763
H10   H     H_    0.396130 0.619323 0.653229 0.349232
H11   H     H_    0.603879 0.367440 0.460216 0.334329
H12   H     H_    0.093156 0.412930 0.117142 0.214814
H13   H     H_    0.574531 0.794090 0.160079 0.373671
H14   H     H_    0.800161 0.520625 0.715160 0.370010
H15   H     H_    0.268496 0.656703 0.284960 0.366304
H16   H     H_    0.640119 0.358950 0.866175 0.366970
H17   H     H_    0.321526 0.766422 0.499927 0.151509
H18   H     H_    0.069735 0.849027 0.465341 0.165206
H19   H     H_    0.355969 0.149214 0.500719 0.153904
H20   H     H_    0.811750 0.967067 0.577730 0.206883
H21   H     H_    0.682116 0.230272 0.465934 0.167694
H22   H     H_    0.186252 0.024002 0.475390 0.156734
H23   H     H_    0.281352 0.559066 0.464991 0.165641
N1    N     N_R   0.795410 0.560790 0.443550 -0.267101
N2    N     N_R   0.204590 0.439170 0.556520 -0.268030
O1    O     O_R   0.977910 0.338120 0.529720 -0.430376
O2    O     O_R   0.137088 0.404822 0.880544 -0.632078
O3    O     O_2   0.934999 0.276012 0.884061 -0.389013
O4    O     O_R   0.878826 0.222911 0.016013 -0.651797
O5    O     O_2   0.393058 0.767582 0.685239 -0.466817
O6    O     O_R   0.442078 0.681892 0.616515 -0.664045
O7    O     O_2   0.612059 0.251137 0.594532 -0.484324
O8    O     O_R   0.542767 0.301392 0.458786 -0.692366
O9    O     O_2   0.456875 0.620722 0.190192 -0.397132
O10   O     O_R   0.587452 0.765608 0.223969 -0.656965
O11   O     O_2   0.802178 0.658938 0.600435 -0.437988
O12   O     O_R   0.839850 0.379180 0.491640 -0.493322
O13   O     O_R   0.772334 0.494876 0.657816 -0.663731
O14   O     O_2   0.279347 0.494303 0.320873 -0.455483
O15   O     O_R   0.339629 0.665013 0.312492 -0.656672
O16   O     O_2   0.795433 0.357948 0.846522 -0.460215
O17   O     O_R   0.698973 0.411101 0.897810 -0.569887
O18   O     O_R   0.069060 0.479460 0.639610 -0.462780
O19   O     O_R   0.931000 0.520530 0.601530 -0.464827
O20   O     O_R   0.160150 0.620820 0.508360 -0.522434
O21   O     O_R   0.022090 0.661880 0.470280 -0.505215
O22   O     O_R   0.069000 0.479470 0.398470 -0.484786
O23   O     O_R   0.930940 0.520540 0.360390 -0.517727
O24   O     O_2   0.189463 0.409796 0.024050 -0.437269

loop_
_geom_bond_atom_site_label_1
_geom_bond_atom_site_label_2
_ccdc_geom_bond_type
C26   C27   A    
C25   N1    A    
C12   C40   S    
C40   C48   S    
C28   O22   A    
C1    C58   S    
C14   C50   S    
Cu2   O19   S    
C17   C18   A    
C39   N2    A    
C19   C20   A    
C15   C17   A    
Br7   C43   S    
C9    C10   A    
C4    O18   A    
Cu2   N1    S    
C16   O21   A    
C29   C30   A    
C44   C55   T    
C53   O14   D    
C2    C16   S    
C6    C7    A    
C31   C53   S    
C35   H2    S    
C25   C26   A    
Cu1   O18   S    
C23   C43   S    
Br1   C34   S    
Cu2   O21   S    
C10   C11   A    
C2    C21   A    
C7    C8    A    
C3    C8    A    
Br2   C13   S    
C14   C15   A    
C22   C24   A    
C21   H17   S    
C51   O9    D    
C10   C18   A    
Br8   C43   S    
C28   C44   S    
C48   O3    D    
C18   C21   A    
C27   C32   A    
C33   C35   A    
C46   C56   S    
C4    C57   S    
C36   C38   A    
C12   C23   S    
Br9   C34   S    
Cu1   O1    S    
C33   H5    S    
Br6   C38   S    
C42   C43   S    
C50   O7    D    
H10   O6    S    
C26   C29   A    
C49   O6    S    
C23   C55   S    
C30   C31   A    
Cu1   Cu2   S    
C40   C46   S    
C25   C52   S    
Cu1   N2    S    
C9    C14   A    
H11   O8    S    
H9    O4    S    
C3    H20   S    
C34   C45   S    
C38   C39   A    
C5    C58   A    
C6    C58   A    
C42   C54   S    
C15   H19   S    
Br3   C5    S    
Cu1   O22   S    
C30   C37   A    
C45   H7    S    
C24   H4    S    
C22   H3    S    
C11   C13   A    
C1    O12   A    
C11   C49   S    
C52   O11   D    
C35   C36   A    
Br4   C39   S    
C41   H23   S    
C47   O2    S    
C45   C46   S    
C31   C32   A    
C50   O8    S    
C47   O24   D    
C41   N2    A    
C49   O5    D    
C8    C13   A    
C32   C51   S    
C12   H12   S    
H16   O17   S    
C24   N1    A    
Cu2   O12   S    
C29   C33   A    
C40   C47   S    
C37   C41   A    
H8    O2    S    
C17   C19   A    
H15   O15   S    
C12   H1    S    
C54   O16   D    
C3    C5    A    
C16   O20   A    
C6    H21   S    
C53   O15   S    
C1    O1    A    
C48   O4    S    
Cu2   O23   S    
C23   C34   S    
H14   O13   S    
C19   H22   S    
C42   C46   S    
C54   O17   S    
C52   O13   S    
C20   H18   S    
C45   H6    S    
C36   C37   A    
C28   O23   A    
C2    C20   A    
C7    C9    A    
C56   C57   T    
H13   O10   S    
C22   C27   A    
Br5   C42   S    
C51   O10   S    
C4    O19   A    
Cu1   O20   S    
