data_mof_unit_28020.cif
_audit_creation_date              2012-10-26T21:33:20-0400
_audit_creation_method            fapswitch 2.2
_symmetry_space_group_name_H-M    P1
_symmetry_Int_Tables_number       1
_space_group_crystal_system       triclinic
_cell_length_a                    28.34473
_cell_length_b                    18.701219
_cell_length_c                    17.0294
_cell_angle_alpha                 89.92339
_cell_angle_beta                  59.705181
_cell_angle_gamma                 90.073449
_cell_volume                      7794.22316182

loop_
_atom_site_label
_atom_site_type_symbol
_atom_type_description
_atom_site_fract_x
_atom_site_fract_y
_atom_site_fract_z
_atom_type_partial_charge
C1    C     C_R   0.703466 0.273840 0.675110 0.950854
C2    C     C_R   0.103279 0.499953 0.486921 -0.074696
C3    C     C_R   0.195855 0.211167 0.894920 -0.139306
C4    C     C_R   0.077650 0.094605 0.929611 1.021640
C5    C     C_R   0.932340 0.894179 0.060224 0.886105
C6    C     C_R   0.921661 0.093375 0.071110 0.963426
C7    C     C_R   0.069867 0.895808 0.937981 0.922587
C8    C     C_R   0.577659 0.594589 0.929602 1.022468
C9    C     C_R   0.432265 0.394234 0.060296 0.881731
C10   C     C_R   0.422393 0.594284 0.070175 0.971700
C11   C     C_R   0.568035 0.394499 0.939460 0.897411
C12   C     C_R   0.556157 0.129607 0.477740 -0.274969
C13   C     C_R   0.399243 0.000108 0.506687 -0.075970
C14   C     C_R   0.447623 0.870528 0.512634 -0.286018
C15   C     C_R   0.448259 0.129691 0.511321 -0.275202
C16   C     C_R   0.555301 0.870427 0.479655 -0.284595
C17   C     C_R   0.055682 0.629575 0.478853 -0.271257
C18   C     C_R   0.946833 0.370559 0.514659 -0.284649
C19   C     C_R   0.947769 0.629717 0.512509 -0.275718
C20   C     C_R   0.054560 0.370391 0.481526 -0.284529
C21   C     C_R   0.529688 0.194646 0.483498 0.603265
C22   C     C_R   0.474119 0.805479 0.506702 0.600549
C23   C     C_R   0.475184 0.194691 0.504448 0.603351
C24   C     C_R   0.603754 0.999982 0.485778 -0.075084
C25   C     C_R   0.528505 0.805418 0.486168 0.597473
C26   C     C_R   0.029247 0.694624 0.484503 0.608562
C27   C     C_R   0.973254 0.305500 0.508975 0.596174
C28   C     C_R   0.974738 0.694705 0.505487 0.598766
C29   C     C_R   0.027664 0.305397 0.488351 0.597136
C30   C     C_R   0.475786 0.064976 0.500117 -0.077787
C31   C     C_R   0.527948 0.935170 0.489945 -0.076397
C32   C     C_R   0.528357 0.064936 0.489029 -0.077871
C33   C     C_R   0.475436 0.935207 0.500874 -0.076736
C34   C     C_R   0.975230 0.564982 0.501553 -0.078350
C35   C     C_R   0.108066 0.372154 0.465191 0.736225
C36   C     C_R   0.027255 0.435154 0.491760 -0.077135
C37   C     C_R   0.027811 0.564922 0.490422 -0.079644
C38   C     C_R   0.974725 0.435213 0.502750 -0.077013
C39   C     C_R   0.949069 0.500120 0.505963 0.106949
C40   C     C_R   0.053351 0.500005 0.487581 0.107696
C41   C     C_R   0.449676 0.000104 0.504380 0.107508
C42   C     C_R   0.553937 0.000028 0.486088 0.107914
C43   C     C_R   0.872922 0.435047 0.511019 -0.150422
C44   C     C_R   0.128858 0.565019 0.484709 -0.153884
C45   C     C_R   0.128413 0.434825 0.485695 -0.151113
C46   C     C_R   0.893917 0.627887 0.530359 0.724958
C47   C     C_R   0.873233 0.565241 0.510375 -0.147480
C48   C     C_R   0.373418 0.934996 0.509854 -0.150858
C49   C     C_R   0.629218 0.065048 0.483911 -0.146765
C50   C     C_R   0.628862 0.934865 0.484675 -0.151013
C51   C     C_R   0.373624 0.065207 0.509466 -0.146106
C52   C     C_R   0.829700 0.436016 0.490348 -0.218291
C53   C     C_R   0.171189 0.564020 0.507462 -0.225748
C54   C     C_R   0.170969 0.435902 0.507969 -0.218971
C55   C     C_R   0.829830 0.564128 0.490065 -0.226506
C56   C     C_R   0.329938 0.935992 0.489788 -0.217327
C57   C     C_R   0.893135 0.372494 0.531940 0.735828
C58   C     C_R   0.671355 0.064035 0.507098 -0.226515
C59   C     C_R   0.671181 0.935920 0.507486 -0.219057
C60   C     C_R   0.330017 0.064110 0.489634 -0.225093
C61   C     C_R   0.811972 0.500055 0.473913 0.546916
C62   C     C_R   0.188479 0.499977 0.524793 0.547004
C63   C     C_R   0.312072 0.000041 0.473652 0.545637
C64   C     C_R   0.688565 0.999986 0.524578 0.547614
C65   C     C_R   0.109164 0.627597 0.462823 0.729265
C66   C     C_R   0.608706 0.872219 0.463785 0.736962
C67   C     C_R   0.394361 0.127835 0.529392 0.725653
C68   C     C_R   0.393863 0.872408 0.530296 0.740665
C69   C     C_R   0.300158 0.735407 0.323170 0.927389
C70   C     C_R   0.609587 0.127646 0.461953 0.723933
C71   C     C_R   0.712406 0.260209 0.964886 -0.086015
C72   C     C_R   0.271875 0.720326 0.055993 -0.072893
C73   C     C_R   0.286974 0.261510 0.035769 -0.080486
C74   C     C_R   0.729370 0.727113 0.940659 -0.116670
C75   C     C_R   0.215266 0.750135 0.959330 -0.090592
C76   C     C_R   0.770330 0.225895 0.059506 -0.079779
C77   C     C_R   0.787081 0.761355 0.035653 -0.080574
C78   C     C_R   0.229289 0.227246 0.940742 -0.117001
C79   C     C_R   0.757237 0.211651 0.927879 0.403453
C80   C     C_R   0.296529 0.273989 0.324911 0.950933
C81   C     C_R   0.214080 0.725297 0.103379 0.411017
C82   C     C_R   0.240984 0.214507 0.073884 0.424415
C83   C     C_R   0.781116 0.762071 0.895994 0.410593
C84   C     C_R   0.270581 0.725839 0.913509 0.388148
C85   C     C_R   0.719250 0.262236 0.103696 0.386595
C86   C     C_R   0.741107 0.714325 0.073756 0.422420
C87   C     C_R   0.281035 0.262203 0.896087 0.411542
C88   C     C_R   0.789011 0.203526 0.969302 -0.117405
C89   C     C_R   0.187147 0.741488 0.055288 -0.111834
C90   C     C_R   0.209383 0.206881 0.032068 -0.197851
C91   C     C_R   0.699026 0.736997 0.676855 0.925980
C92   C     C_R   0.804520 0.786664 0.946730 -0.115676
C93   C     C_R   0.299091 0.720140 0.960568 -0.107383
C94   C     C_R   0.695827 0.286638 0.052880 -0.118755
C95   C     C_R   0.709490 0.706711 0.031967 -0.197427
C96   C     C_R   0.304425 0.286810 0.946838 -0.120160
C97   C     C_R   0.628286 0.306454 0.958936 0.354532
C98   C     C_R   0.341246 0.650166 0.074299 0.319096
C99   C     C_R   0.371800 0.306313 0.041088 0.348738
C100  C     C_R   0.659965 0.650966 0.921252 0.318379
C101  C     C_R   0.133983 0.813056 0.956595 0.331792
C102  C     C_R   0.202871 0.772558 0.675393 0.957118
C103  C     C_R   0.838336 0.149219 0.080366 0.327873
C104  C     C_R   0.871876 0.806236 0.041022 0.348213
C105  C     C_R   0.159927 0.151041 0.921300 0.317552
C106  C     C_R   0.605910 0.334600 0.907119 -0.328964
C107  C     C_R   0.377097 0.643015 0.109612 -0.337208
C108  C     C_R   0.394469 0.334067 0.092621 -0.326549
C109  C     C_R   0.621941 0.645517 0.890385 -0.266292
C110  C     C_R   0.108330 0.836203 0.906913 -0.317413
C111  C     C_R   0.876332 0.142608 0.111749 -0.345944
C112  C     C_R   0.894521 0.834026 0.092577 -0.325603
C113  C     C_R   0.800894 0.236756 0.323083 0.922892
C114  C     C_R   0.121921 0.145551 0.890401 -0.266223
C115  C     C_R   0.626873 0.313928 0.818553 0.490946
C116  C     C_R   0.369085 0.682231 0.183539 0.474661
C117  C     C_R   0.373481 0.313248 0.181185 0.491390
C118  C     C_R   0.628732 0.685144 0.817309 0.442789
C119  C     C_R   0.126113 0.810142 0.821114 0.476237
C120  C     C_R   0.870052 0.182596 0.184121 0.481775
C121  C     C_R   0.873505 0.813245 0.181170 0.488800
C122  C     C_R   0.128719 0.185156 0.817306 0.442281
C123  C     C_R   0.679821 0.289164 0.771583 -0.250953
C124  C     C_R   0.796539 0.773975 0.324898 0.950555
C125  C     C_R   0.324133 0.725327 0.225785 -0.227069
C126  C     C_R   0.320241 0.289363 0.228451 -0.252275
C127  C     C_R   0.673064 0.729295 0.775067 -0.214806
C128  C     C_R   0.179234 0.786380 0.771916 -0.246632
C129  C     C_R   0.826725 0.228199 0.224981 -0.212308
C130  C     C_R   0.820274 0.789318 0.228410 -0.251955
C131  C     C_R   0.173045 0.229321 0.775069 -0.214789
C132  C     C_R   0.710991 0.284362 0.815894 0.276981
C133  C     C_R   0.296839 0.747647 0.178920 0.314623
C134  C     C_R   0.288900 0.285445 0.184380 0.273989
C135  C     C_R   0.199022 0.237006 0.676854 0.925657
C136  C     C_R   0.698483 0.754135 0.823397 0.332505
C137  C     C_R   0.211904 0.782985 0.813174 0.275609
C138  C     C_R   0.802148 0.253699 0.175610 0.296847
C139  C     C_R   0.788965 0.785327 0.184288 0.275556
C140  C     C_R   0.198441 0.254199 0.823419 0.332544
C141  C     C_R   0.696195 0.128441 0.518083 0.922995
C142  C     C_R   0.304198 0.871579 0.480893 0.914566
C143  C     C_R   0.304211 0.128434 0.480845 0.921567
C144  C     C_R   0.696101 0.871571 0.518343 0.912883
C145  C     C_R   0.196157 0.628435 0.518168 0.918895
C146  C     C_R   0.898733 0.500140 0.507957 -0.076288
C147  C     C_R   0.804128 0.371584 0.481077 0.910290
C148  C     C_R   0.804167 0.628441 0.480949 0.920782
C149  C     C_R   0.196036 0.371569 0.518510 0.911769
C150  C     C_R   0.683658 0.283539 0.913165 -0.066582
C151  C     C_R   0.304381 0.707616 0.102564 -0.091497
C152  C     C_R   0.316118 0.284259 0.087125 -0.073411
C153  C     C_R   0.695909 0.711075 0.894869 -0.138473
C154  C     C_R   0.186421 0.780161 0.909774 -0.054161
C155  C     C_R   0.804303 0.210558 0.104586 -0.063564
C156  C     C_R   0.816205 0.784137 0.087031 -0.072599
F1    F     F_    0.052722 0.241795 0.480618 -0.541435
F2    F     F_    0.222514 0.499989 0.559538 -0.612240
F3    F     F_    0.276840 0.000032 0.441288 -0.611863
F4    F     F_    0.722368 0.999987 0.559776 -0.609866
F5    F     F_    0.141615 0.317980 0.415128 -0.562397
F6    F     F_    0.860349 0.681485 0.582258 -0.600007
F7    F     F_    0.859286 0.318853 0.583659 -0.563973
F8    F     F_    0.143307 0.681499 0.412381 -0.586498
F9    F     F_    0.642342 0.817999 0.414092 -0.562242
F10   F     F_    0.360803 0.181332 0.581586 -0.599894
F11   F     F_    0.360208 0.818694 0.582176 -0.555465
F12   F     F_    0.949543 0.758285 0.513762 -0.539105
F13   F     F_    0.643763 0.181588 0.411702 -0.602290
F14   F     F_    0.597402 0.324532 0.776502 -0.606537
F15   F     F_    0.402511 0.674566 0.218873 -0.603174
F16   F     F_    0.403168 0.323209 0.222980 -0.606946
F17   F     F_    0.595436 0.676185 0.781949 -0.602162
F18   F     F_    0.095005 0.818216 0.781584 -0.610876
F19   F     F_    0.903269 0.173448 0.219604 -0.602168
F20   F     F_    0.903159 0.823268 0.223011 -0.609673
F21   F     F_    0.095439 0.176163 0.781921 -0.603111
F22   F     F_    0.947652 0.241983 0.518163 -0.541851
F23   F     F_    0.054822 0.758142 0.475421 -0.536576
F24   F     F_    0.553602 0.741830 0.478333 -0.540631
F25   F     F_    0.449935 0.258259 0.512914 -0.538459
F26   F     F_    0.448581 0.741938 0.515700 -0.540497
F27   F     F_    0.555208 0.258176 0.474626 -0.537547
F28   F     F_    0.776998 0.500034 0.441028 -0.610064
H1    H     H_    0.663147 0.324846 0.085629 0.253877
H2    H     H_    0.203299 0.686186 0.217254 0.372062
H3    H     H_    0.259316 0.162686 0.152914 0.360127
H4    H     H_    0.801375 0.733412 0.774061 0.384591
H5    H     H_    0.268043 0.674355 0.818165 0.369368
H6    H     H_    0.698964 0.234981 0.226156 0.389391
H7    H     H_    0.759471 0.662512 0.152751 0.359714
H8    H     H_    0.301323 0.233509 0.774152 0.384880
H9    H     H_    0.557291 0.304329 0.070038 0.361135
H10   H     H_    0.345469 0.552692 0.033680 0.348393
H11   H     H_    0.442827 0.303883 0.930064 0.362503
H12   H     H_    0.342543 0.709346 0.921918 0.228921
H13   H     H_    0.701396 0.590073 0.956193 0.347191
H14   H     H_    0.071408 0.822022 0.076572 0.355369
H15   H     H_    0.842245 0.049132 0.047068 0.349228
H16   H     H_    0.942911 0.803860 0.930007 0.363775
H17   H     H_    0.201354 0.090199 0.956305 0.350057
H18   H     H_    0.782557 0.305707 0.798234 0.357987
H19   H     H_    0.256680 0.824867 0.162205 0.360511
H20   H     H_    0.217705 0.308845 0.202046 0.358628
H21   H     H_    0.720923 0.841686 0.855137 0.361578
H22   H     H_    0.279526 0.823443 0.794319 0.365132
H23   H     H_    0.337767 0.324172 0.913256 0.250518
H24   H     H_    0.780941 0.341440 0.142199 0.357287
H25   H     H_    0.717776 0.808671 0.201902 0.359710
H26   H     H_    0.220859 0.341775 0.855144 0.359460
H27   H     H_    0.670415 0.680167 0.070479 0.242986
H28   H     H_    0.143244 0.741528 0.094948 0.235150
H29   H     H_    0.827625 0.176287 0.930609 0.246682
H30   H     H_    0.837859 0.824031 0.913147 0.251255
H31   H     H_    0.170304 0.180346 0.070571 0.243225
H32   H     H_    0.737558 0.160454 0.850162 0.361633
O1    O     O_R   0.746490 0.236330 0.638080 -0.540799
O2    O     O_R   0.325830 0.813840 0.483730 -0.580645
O3    O     O_R   0.325830 0.186160 0.483730 -0.577452
O4    O     O_R   0.674170 0.813840 0.516270 -0.582592
O5    O     O_R   0.174170 0.686160 0.516270 -0.579615
O6    O     O_R   0.825830 0.313840 0.483730 -0.582704
O7    O     O_R   0.825830 0.686160 0.483730 -0.578277
O8    O     O_R   0.174170 0.313840 0.516270 -0.582456
O9    O     O_R   0.739960 0.127620 0.525000 -0.558802
O10   O     O_R   0.260040 0.872380 0.475000 -0.559119
O11   O     O_R   0.260040 0.127620 0.475000 -0.558571
O12   O     O_R   0.253510 0.763670 0.361920 -0.534850
O13   O     O_R   0.739960 0.872380 0.525000 -0.558670
O14   O     O_R   0.239960 0.627620 0.525000 -0.561479
O15   O     O_R   0.760040 0.372380 0.475000 -0.557396
O16   O     O_R   0.760040 0.627620 0.475000 -0.558404
O17   O     O_R   0.239960 0.372380 0.525000 -0.559254
O18   O     O_R   0.680700 0.294870 0.629350 -0.573378
O19   O     O_R   0.319300 0.705130 0.370650 -0.577110
O20   O     O_R   0.319300 0.294870 0.370650 -0.574542
O21   O     O_R   0.680700 0.705130 0.629350 -0.576036
O22   O     O_R   0.180700 0.794870 0.629350 -0.575385
O23   O     O_R   0.253510 0.236330 0.361920 -0.541633
O24   O     O_R   0.819300 0.205130 0.370650 -0.578026
O25   O     O_R   0.819300 0.794870 0.370650 -0.575223
O26   O     O_R   0.180700 0.205130 0.629350 -0.576071
O27   O     O_R   0.062020 0.072840 0.007170 -0.566503
O28   O     O_R   0.937980 0.927160 0.992830 -0.625548
O29   O     O_R   0.937980 0.072840 0.992830 -0.608399
O30   O     O_R   0.062020 0.927160 0.007170 -0.596207
O31   O     O_R   0.562020 0.572840 0.007170 -0.569000
O32   O     O_R   0.437980 0.427160 0.992830 -0.626660
O33   O     O_R   0.437980 0.572840 0.992830 -0.605144
O34   O     O_R   0.746490 0.763670 0.638080 -0.548901
O35   O     O_R   0.562020 0.427160 0.007170 -0.608592
O36   O     O_R   0.947860 0.073950 0.109290 -0.546897
O37   O     O_R   0.052140 0.926050 0.890710 -0.566773
O38   O     O_R   0.052140 0.073950 0.890710 -0.562817
O39   O     O_R   0.947860 0.926050 0.109290 -0.561075
O40   O     O_R   0.447860 0.573950 0.109290 -0.549675
O41   O     O_R   0.552140 0.426050 0.890710 -0.558170
O42   O     O_R   0.552140 0.573950 0.890710 -0.561254
O43   O     O_R   0.447860 0.426050 0.109290 -0.559599
O44   O     O_3   0.771204 0.170094 0.852491 -0.666564
O45   O     O_R   0.246490 0.736330 0.638080 -0.551377
O46   O     O_3   0.181993 0.713242 0.195742 -0.675799
O47   O     O_3   0.225928 0.173580 0.150341 -0.667995
O48   O     O_3   0.811029 0.772117 0.803157 -0.655876
O49   O     O_3   0.296341 0.698135 0.826921 -0.658102
O50   O     O_3   0.689930 0.273719 0.196216 -0.650949
O51   O     O_3   0.726077 0.673370 0.150182 -0.669022
O52   O     O_3   0.310963 0.272229 0.803248 -0.656894
O53   O     O_3   0.596282 0.299448 0.052156 -0.728271
O54   O     O_3   0.340090 0.600807 0.015011 -0.715726
O55   O     O_3   0.403821 0.298936 0.947972 -0.730565
O56   O     O_R   0.753510 0.263670 0.361920 -0.544613
O57   O     O_3   0.662833 0.595070 0.971709 -0.726584
O58   O     O_3   0.111354 0.830448 0.046991 -0.715494
O59   O     O_3   0.831738 0.095196 0.031444 -0.732722
O60   O     O_3   0.903910 0.798873 0.947905 -0.730677
O61   O     O_3   0.162795 0.095169 0.971789 -0.718259
O62   O     O_3   0.767233 0.284139 0.762749 -0.623564
O63   O     O_3   0.262505 0.806166 0.211035 -0.656219
O64   O     O_3   0.232688 0.286643 0.237710 -0.623707
O65   O     O_3   0.723774 0.820068 0.799843 -0.662394
O66   O     O_3   0.267056 0.795977 0.758310 -0.630887
O67   O     O_R   0.753510 0.736330 0.361920 -0.541224
O68   O     O_3   0.777947 0.320177 0.197846 -0.663685
O69   O     O_3   0.732753 0.786459 0.237569 -0.622428
O70   O     O_3   0.223723 0.320136 0.799850 -0.665519
O71   O     O_R   0.246490 0.263670 0.638080 -0.549603
O72   O     O_R   0.674170 0.186160 0.516270 -0.578808
Zn1   Zn    Zn3+2 0.792340 0.208750 0.507670 1.230668
Zn2   Zn    Zn3+2 0.494040 0.500000 0.919480 1.133556
Zn3   Zn    Zn3+2 0.005960 0.000000 0.080520 1.160896
Zn4   Zn    Zn3+2 0.994040 1.000000 0.919480 1.129335
Zn5   Zn    Zn3+2 0.207660 0.791250 0.492330 1.235640
Zn6   Zn    Zn3+2 0.207660 0.208750 0.492330 1.230230
Zn7   Zn    Zn3+2 0.792340 0.791250 0.507670 1.233431
Zn8   Zn    Zn3+2 0.292340 0.708750 0.507670 1.222548
Zn9   Zn    Zn3+2 0.707660 0.291250 0.492330 1.235732
Zn10  Zn    Zn3+2 0.707660 0.708750 0.492330 1.231351
Zn11  Zn    Zn3+2 0.292340 0.291250 0.507670 1.232883
Zn12  Zn    Zn3+2 0.505960 0.500000 0.080520 1.152227

loop_
_geom_bond_atom_site_label_1
_geom_bond_atom_site_label_2
_ccdc_geom_bond_type
C100  C153  A    
C145  O14   A    
C31   C42   A    
C132  C150  A    
C133  C151  A    
C94   H1    S    
C74   C83   A    
C14   C33   A    
C83   O48   S    
C19   C46   A    
C3    C105  A    
C16   C31   A    
C7    O30   A    
C91   C127  S    
C50   C59   A    
C52   C61   A    
C77   C156  S    
C145  O5    A    
H8    O52   S    
O13   Zn7   S    
C131  C140  A    
C13   C51   A    
C147  O15   A    
C44   C53   A    
C118  F17   S    
O7    Zn7   S    
C97   C150  A    
C113  O56   A    
O26   Zn6   S    
C117  C126  A    
C141  O72   A    
O3    Zn11  S    
C87   O52   S    
C119  C128  A    
C47   C146  A    
O5    Zn5   S    
C100  C109  A    
C58   C64   A    
O38   Zn4   S    
C109  C118  A    
C89   H28   S    
O27   Zn3   S    
O43   Zn12  S    
C115  C123  A    
C144  O13   A    
C127  C136  A    
O15   Zn9   S    
C101  C110  A    
C120  C129  A    
C116  F15   S    
C9    C108  S    
C120  F19   S    
O6    Zn1   S    
C72   C151  S    
C91   O21   A    
C124  C130  S    
C137  O66   S    
H26   O70   S    
C35   C45   A    
O21   Zn10  S    
C15   C30   A    
C16   C25   A    
O34   Zn7   S    
O17   Zn11  S    
H7    O51   S    
C143  O11   A    
C23   F25   S    
C132  O62   S    
C76   C155  S    
O35   Zn12  S    
C133  O63   S    
C106  C115  A    
O36   Zn3   S    
C18   C38   A    
C136  C153  A    
C117  F16   S    
C80   C126  S    
C84   C93   A    
C8    O42   A    
C86   C95   A    
C28   F12   S    
C2    C40   A    
C126  C134  A    
H22   O66   S    
C76   C85   A    
C91   O34   A    
C78   C87   A    
C122  F21   S    
H15   O59   S    
C123  C132  A    
C27   C29   A    
H9    O53   S    
C6    C111  S    
C80   O20   A    
C58   C141  S    
C27   F22   S    
C4    O38   A    
C121  C130  A    
H11   O55   S    
C71   C79   A    
C25   F24   S    
C26   F23   S    
H2    O46   S    
C99   C108  A    
C35   F5    S    
C11   O41   A    
C70   F13   S    
C144  O4    A    
C37   C40   A    
C102  C128  S    
C60   C143  S    
C38   C39   A    
C43   C52   A    
C71   C150  S    
C53   C62   A    
C9    O32   A    
C142  O2    A    
O39   Zn3   S    
O2    Zn8   S    
C20   C35   A    
C8    O31   A    
C2    C44   A    
C22   C25   A    
C30   C41   A    
C104  O60   S    
H5    O49   S    
C44   C65   A    
C115  F14   S    
C2    C45   A    
C24   C50   A    
C88   H29   S    
C34   C39   A    
C104  C112  A    
C149  O17   A    
C57   F7    S    
C15   C67   A    
C51   C67   A    
C19   C28   A    
C147  O6    A    
C148  O16   A    
C59   C144  S    
O9    Zn1   S    
C116  C125  A    
C73   C152  S    
C101  O58   S    
C93   H12   S    
C118  C127  A    
C69   O12   A    
C122  C131  A    
O16   Zn10  S    
C12   C70   A    
C61   F28   S    
C32   C42   A    
C4    O27   A    
C66   F9    S    
C108  C117  A    
C110  C119  A    
C77   C86   A    
C5    C112  S    
C99   C152  A    
C7    C110  S    
O31   Zn12  S    
C134  O64   S    
C14   C22   A    
C69   O19   A    
C103  O59   S    
C112  C121  A    
C22   F26   S    
C97   O53   S    
C55   C148  S    
C101  C154  A    
C55   C61   A    
C99   O55   S    
C107  C116  A    
C43   C57   A    
C143  O3    A    
C138  O68   S    
C51   C60   A    
C140  O70   S    
C124  O25   A    
C138  C155  A    
C34   C37   A    
C24   C42   A    
C13   C41   A    
O23   Zn6   S    
C78   C90   A    
O24   Zn1   S    
O71   Zn11  S    
C10   O40   A    
C80   O23   A    
C4    C114  S    
H6    O50   S    
C148  O7    A    
O40   Zn12  S    
C103  C111  A    
O19   Zn8   S    
C90   H31   S    
H17   O61   S    
C113  O24   A    
H19   O63   S    
O72   Zn9   S    
C62   F2    S    
C92   H30   S    
H10   O54   S    
C149  O8    A    
C63   F3    S    
C72   C81   A    
C81   C89   A    
O42   Zn2   S    
C69   C125  S    
C86   O51   S    
C130  C139  A    
C85   O50   S    
O1    Zn1   S    
C79   C88   A    
C142  O10   A    
C98   C151  A    
H25   O69   S    
C96   H23   S    
C29   F1    S    
C54   C62   A    
C98   C107  A    
O12   Zn5   S    
C1    C123  S    
H13   O57   S    
C18   C57   A    
C1    O18   A    
C134  C152  A    
C64   F4    S    
C11   C106  S    
C53   C145  S    
C102  O45   A    
C48   C68   A    
C136  O65   S    
C97   C106  A    
C103  C155  A    
C49   C70   A    
C9    O43   A    
O37   Zn4   S    
C16   C66   A    
C79   O44   S    
C73   C82   A    
C46   C47   A    
C17   C65   A    
O25   Zn7   S    
O32   Zn2   S    
C82   C90   A    
O11   Zn6   S    
C33   C41   A    
C36   C38   A    
C95   H27   S    
C119  F18   S    
C43   C146  A    
C5    O39   A    
O33   Zn2   S    
C39   C146  A    
C72   C93   A    
C137  C154  A    
C5    O28   A    
C75   C84   A    
C20   C36   A    
C14   C68   A    
C1    O1    A    
C73   C96   A    
C3    C78   S    
C77   C92   A    
C105  O61   S    
C6    O29   A    
O67   Zn10  S    
C71   C94   A    
C98   O54   S    
C83   C92   A    
C59   C64   A    
C113  C129  S    
C60   C63   A    
C17   C26   A    
C135  O26   A    
C131  C135  S    
O22   Zn5   S    
C121  F20   S    
H20   O64   S    
C139  O69   S    
O14   Zn8   S    
O28   Zn4   S    
C129  C138  A    
C31   C33   A    
C76   C88   A    
C48   C56   A    
C15   C23   A    
C81   O46   S    
C12   C32   A    
C10   C107  S    
O41   Zn2   S    
H24   O68   S    
C54   C149  S    
C20   C29   A    
O29   Zn4   S    
C141  O9    A    
O30   Zn3   S    
C102  O22   A    
O10   Zn5   S    
C105  C114  A    
C36   C40   A    
O20   Zn11  S    
O4    Zn10  S    
C75   C89   A    
H18   O62   S    
H16   O60   S    
C12   C21   A    
C11   O35   A    
C49   C58   A    
C74   C153  S    
C111  C120  A    
C128  C137  A    
C85   C94   A    
C87   C96   A    
C56   C63   A    
C17   C37   A    
C104  C156  A    
C50   C66   A    
C67   F10   S    
C45   C54   A    
C52   C147  S    
O18   Zn9   S    
O8    Zn6   S    
C135  O71   A    
H32   O44   S    
C47   C55   A    
C124  O67   A    
C125  C133  A    
C24   C49   A    
C21   F27   S    
H21   O65   S    
C74   C95   A    
C18   C27   A    
C19   C34   A    
C13   C48   A    
H14   O58   S    
H4    O48   S    
C26   C28   A    
C6    O36   A    
C100  O57   S    
C10   O33   A    
C21   C23   A    
C8    C109  S    
C30   C32   A    
C75   C154  S    
C139  C156  A    
C65   F8    S    
H3    O47   S    
C84   O49   S    
C56   C142  S    
C114  C122  A    
C68   F11   S    
C46   F6    S    
O45   Zn8   S    
C82   O47   S    
C3    C140  A    
O56   Zn9   S    
C7    O37   A    
