data_mof_unit_14891.cif
_audit_creation_date              2012-12-10T16:48:39-0500
_audit_creation_method            fapswitch 2.2
_symmetry_space_group_name_H-M    P1
_symmetry_Int_Tables_number       1
_space_group_crystal_system       triclinic
_cell_length_a                    7.759508
_cell_length_b                    8.636105
_cell_length_c                    10.866166
_cell_angle_alpha                 88.939877
_cell_angle_beta                  100.336569
_cell_angle_gamma                 92.178615
_cell_volume                      715.776827565

loop_
_atom_site_label
_atom_site_type_symbol
_atom_type_description
_atom_site_fract_x
_atom_site_fract_y
_atom_site_fract_z
_atom_type_partial_charge
C1    C     C_R   0.540386 0.794122 0.492132 0.950317
C2    C     C_2   0.452829 0.045549 0.530839 -0.082779
C3    C     C_3   0.611185 0.006973 0.344520 -0.385153
C4    C     C_3   0.556453 0.897084 0.234456 -0.908157
C5    C     C_3   0.385856 0.988575 0.649601 -0.415312
C6    C     C_3   0.365745 0.111360 0.745419 -0.844775
C7    C     C_R   0.458486 0.206138 0.506113 0.959153
C8    C     C_R   0.575882 0.496497 0.735889 0.874083
C9    C     C_R   0.423821 0.498419 0.264298 0.882301
C10   C     C_2   0.624469 0.479047 0.870581 -0.164473
C11   C     C_2   0.376228 0.500136 0.128916 -0.110055
C12   C     C_2   0.514962 0.530813 0.943328 0.151149
C13   C     C_2   0.495913 0.452935 0.063193 0.132916
C14   C     C_2   0.540651 0.954839 0.463031 -0.089258
H1    H     H_    0.985571 0.385337 0.407443 0.188096
H2    H     H_    0.886428 0.455271 0.895666 0.218196
H3    H     H_    0.628043 0.787925 0.250885 0.282188
H4    H     H_    0.412979 0.871493 0.219533 0.251240
H5    H     H_    0.589396 0.951999 0.147981 0.241070
H6    H     H_    0.561658 0.120644 0.308241 0.233496
H7    H     H_    0.756583 0.017028 0.366895 0.223060
H8    H     H_    0.488149 0.183070 0.768699 0.244845
H9    H     H_    0.252988 0.185240 0.710610 0.287305
H10   H     H_    0.340372 0.053130 0.832756 0.235169
H11   H     H_    0.257477 0.925362 0.623266 0.241196
H12   H     H_    0.014421 0.614678 0.592540 0.194167
H13   H     H_    0.483578 0.909159 0.700049 0.190810
H14   H     H_    0.594505 0.238707 0.051769 0.191074
H15   H     H_    0.738022 0.371553 0.136218 0.219414
H16   H     H_    0.444401 0.746010 0.979053 0.173602
H17   H     H_    0.458743 0.725487 0.832719 0.161223
H18   H     H_    0.111908 0.498014 0.096781 0.194595
H19   H     H_    0.208180 0.676534 0.104453 0.182205
H20   H     H_    0.768011 0.286741 0.877263 0.184854
N1    N     N_2   0.940600 0.458860 0.467170 -0.174661
N2    N     N_2   0.059400 0.541140 0.532830 -0.172375
N3    N     N_3   0.608067 0.329772 0.115179 -0.468855
N4    N     N_3   0.414176 0.666973 0.905956 -0.415722
N5    N     N_3   0.213940 0.565176 0.069669 -0.446468
N6    N     N_3   0.778102 0.394815 0.920243 -0.498433
O1    O     O_R   0.391630 0.738350 0.508060 -0.633283
O2    O     O_R   0.608370 0.261650 0.491940 -0.635537
O3    O     O_R   0.674540 0.711990 0.487010 -0.622206
O4    O     O_R   0.325460 0.288010 0.512990 -0.619598
O5    O     O_R   0.411370 0.508250 0.688780 -0.597594
O6    O     O_R   0.588630 0.491750 0.311220 -0.610738
O7    O     O_R   0.694270 0.481880 0.667740 -0.619921
O8    O     O_R   0.305730 0.518120 0.332260 -0.626012
Zn1   Zn    Zn3+2 0.311100 0.517600 0.514050 0.928340
Zn2   Zn    Zn3+2 0.688900 0.482400 0.485950 0.925299

loop_
_geom_bond_atom_site_label_1
_geom_bond_atom_site_label_2
_ccdc_geom_bond_type
O4    Zn1   S    
O3    Zn2   S    
C11   C13   D    
H1    N1    S    
O6    Zn2   S    
C13   N3    S    
C2    C7    S    
H17   N4    S    
O5    Zn1   S    
C6    H10   S    
N1    Zn2   S    
C8    O7    A    
C4    H4    S    
C9    O6    A    
C7    O4    A    
C11   N5    S    
C9    C11   S    
H19   N5    S    
C3    C14   S    
C10   C12   D    
H14   N3    S    
O2    Zn2   S    
H20   N6    S    
C6    H9    S    
O1    Zn1   S    
O8    Zn1   S    
H2    N6    S    
O7    Zn2   S    
C12   N4    S    
C5    C6    S    
C2    C14   D    
C5    H11   S    
C3    H7    S    
C2    C5    S    
C4    H3    S    
C3    C4    S    
C6    H8    S    
C3    H6    S    
C12   C13   S    
H16   N4    S    
C9    O8    A    
C10   N6    S    
C7    O2    A    
H15   N3    S    
H18   N5    S    
H12   N2    S    
C8    O5    A    
C1    C14   S    
C5    H13   S    
C4    H5    S    
C1    O3    A    
C8    C10   S    
N2    Zn1   S    
C1    O1    A    
N1    N2    D    
