data_mof_unit_61766.cif
_audit_creation_date              2012-12-10T20:43:39-0500
_audit_creation_method            fapswitch 2.2
_symmetry_space_group_name_H-M    P1
_symmetry_Int_Tables_number       1
_space_group_crystal_system       triclinic
_cell_length_a                    10.8326
_cell_length_b                    19.221192
_cell_length_c                    19.211433
_cell_angle_alpha                 94.605847
_cell_angle_beta                  91.800769
_cell_angle_gamma                 96.825103
_cell_volume                      3955.55199978

loop_
_atom_site_label
_atom_site_type_symbol
_atom_type_description
_atom_site_fract_x
_atom_site_fract_y
_atom_site_fract_z
_atom_type_partial_charge
C1    C     C_R   0.513884 0.690232 0.508210 0.793636
C2    C     C_R   0.522505 0.767257 0.511011 0.001291
C3    C     C_R   0.628237 0.805810 0.486411 -0.210020
C4    C     C_R   0.484847 0.309836 0.492690 0.782261
C5    C     C_R   0.636034 0.878608 0.486521 -0.198877
C6    C     C_R   0.477937 0.506427 0.765153 0.001347
C7    C     C_R   0.567298 0.477005 0.804060 -0.224349
C8    C     C_R   0.557895 0.474391 0.875870 -0.169984
C9    C     C_R   0.458239 0.501145 0.910257 0.321383
C10   C     C_R   0.368243 0.529589 0.871255 -0.196080
C11   C     C_R   0.378449 0.532948 0.799292 -0.213425
C12   C     C_R   0.580428 0.201840 0.506764 -0.248983
C13   C     C_R   0.424142 0.463594 0.118527 -0.167642
C14   C     C_R   0.418168 0.461874 0.190857 -0.227179
C15   C     C_R   0.533511 0.493831 0.089260 0.320805
C16   C     C_R   0.513398 0.492981 0.310940 0.795951
C17   C     C_R   0.520429 0.491025 0.234675 0.001965
C18   C     C_R   0.629764 0.520044 0.205196 -0.211284
C19   C     C_R   0.636506 0.520493 0.133005 -0.195039
C20   C     C_R   0.486652 0.506669 0.688967 0.789763
C21   C     C_R   0.835284 0.515419 0.515150 0.861158
C22   C     C_R   0.163951 0.485038 0.485112 0.886568
C23   C     C_R   0.574794 0.129834 0.511230 -0.166259
C24   C     C_2   0.029069 0.479000 0.479528 -0.348889
C25   C     C_2   0.968618 0.521520 0.520599 -0.300940
C26   C     C_R   0.472313 0.232826 0.493415 -0.057804
C27   C     C_3   0.235935 0.224234 0.473985 -0.358553
C28   C     C_3   0.113478 0.176222 0.477724 -0.916122
C29   C     C_R   0.459792 0.086930 0.502709 0.268624
C30   C     C_R   0.351425 0.117506 0.490132 -0.183474
C31   C     C_R   0.354874 0.190535 0.485360 0.125412
C32   C     C_R   0.432531 0.875723 0.535992 -0.167329
C33   C     C_R   0.425448 0.802814 0.536804 -0.227954
C34   C     C_R   0.537825 0.914051 0.509773 0.322446
H1    H     H_    0.978633 0.439718 0.441797 0.145535
H2    H     H_    0.016781 0.561402 0.558448 0.159326
H3    H     H_    0.343291 0.774200 0.556332 0.163652
H4    H     H_    0.355964 0.901881 0.555687 0.149430
H5    H     H_    0.264716 0.083017 0.484129 0.155098
H6    H     H_    0.705071 0.779690 0.466955 0.165909
H7    H     H_    0.660469 0.108088 0.521911 0.157157
H8    H     H_    0.717949 0.907493 0.467010 0.141975
H9    H     H_    0.670150 0.233698 0.513747 0.164956
H10   H     H_    0.103691 0.134041 0.434178 0.260784
H11   H     H_    0.108426 0.152911 0.528782 0.263965
H12   H     H_    0.333084 0.439041 0.212550 0.162325
H13   H     H_    0.034347 0.207541 0.472628 0.256426
H14   H     H_    0.234576 0.268810 0.514475 0.201868
H15   H     H_    0.237036 0.245401 0.421854 0.233628
H16   H     H_    0.344030 0.441071 0.085627 0.149872
H17   H     H_    0.290601 0.549769 0.896873 0.142887
H18   H     H_    0.307602 0.555238 0.770276 0.164805
H19   H     H_    0.710328 0.542177 0.237977 0.163756
H20   H     H_    0.627808 0.450778 0.904258 0.151045
H21   H     H_    0.721602 0.542921 0.111017 0.143119
H22   H     H_    0.644592 0.455841 0.778995 0.167991
N1    N     N_2   0.448296 0.013023 0.507196 -0.198118
N2    N     N_2   0.549219 0.987896 0.506007 -0.200456
N3    N     N_2   0.444822 0.499141 0.983361 -0.202168
N4    N     N_2   0.545045 0.496613 0.016290 -0.204908
O1    O     O_3   0.500000 0.500000 0.500000 -0.477652
O2    O     O_R   0.783160 0.551820 0.473170 -0.638181
O3    O     O_R   0.222430 0.530340 0.530340 -0.640337
O4    O     O_R   0.771990 0.472690 0.551320 -0.634827
O5    O     O_R   0.222420 0.445150 0.445160 -0.651031
O6    O     O_R   0.435070 0.449940 0.339290 -0.642436
O7    O     O_R   0.419380 0.543640 0.654290 -0.646121
O8    O     O_R   0.586230 0.658380 0.469080 -0.646553
O9    O     O_R   0.559310 0.348040 0.537340 -0.633931
O10   O     O_R   0.435110 0.654980 0.544320 -0.643864
O11   O     O_R   0.419350 0.338590 0.449260 -0.656314
O12   O     O_R   0.586210 0.538520 0.349230 -0.643859
O13   O     O_R   0.559330 0.467910 0.657200 -0.645640
Zn1   Zn    Zn3+2 0.396020 0.434560 0.434560 0.957940
Zn2   Zn    Zn3+2 0.611960 0.561120 0.448760 0.968743
Zn3   Zn    Zn3+2 0.595990 0.448060 0.560420 0.968058
Zn4   Zn    Zn3+2 0.396040 0.556260 0.556260 0.963718

loop_
_geom_bond_atom_site_label_1
_geom_bond_atom_site_label_2
_ccdc_geom_bond_type
C27   H14   S    
C5    H8    S    
C28   H13   S    
C15   N4    S    
C20   O7    A    
C16   O12   A    
C7    C8    A    
C14   H12   S    
O1    Zn2   S    
O8    Zn2   S    
C15   C19   A    
C12   C23   A    
C23   C29   A    
C1    C2    S    
C12   H9    S    
C30   C31   A    
O6    Zn1   S    
C1    O8    A    
O9    Zn3   S    
C18   C19   A    
C21   O4    A    
C11   H18   S    
C18   H19   S    
C22   O3    A    
O1    Zn4   S    
C8    C9    A    
O7    Zn4   S    
C20   O13   A    
C32   H4    S    
C9    C10   A    
N3    N4    D    
C13   C14   A    
O10   Zn4   S    
C14   C17   A    
C7    H22   S    
O12   Zn2   S    
C10   H17   S    
C4    O9    A    
O1    Zn3   S    
C28   H11   S    
C24   H1    S    
C27   C31   S    
C24   C25   D    
C8    H20   S    
C6    C11   A    
C16   C17   S    
C28   H10   S    
C33   H3    S    
O5    Zn1   S    
C12   C26   A    
C9    N3    S    
C32   C34   A    
C22   O5    A    
C29   C30   A    
C5    C34   A    
C17   C18   A    
O4    Zn3   S    
C21   O2    A    
C2    C33   A    
C29   N1    S    
C3    H6    S    
C13   C15   A    
O13   Zn3   S    
C22   C24   S    
O2    Zn2   S    
C16   O6    A    
O3    Zn4   S    
C19   H21   S    
C21   C25   S    
C3    C5    A    
O11   Zn1   S    
C4    C26   S    
C6    C7    A    
O1    Zn1   S    
C6    C20   S    
C1    O10   A    
C23   H7    S    
C32   C33   A    
C2    C3    A    
N1    N2    D    
C30   H5    S    
C10   C11   A    
C25   H2    S    
C13   H16   S    
C26   C31   A    
C27   C28   S    
C34   N2    S    
C4    O11   A    
C27   H15   S    
