data_mof_unit_50687.cif
_audit_creation_date              2013-03-05T15:52:30-0500
_audit_creation_method            fapswitch 2.2
_symmetry_space_group_name_H-M    P1
_symmetry_Int_Tables_number       1
_space_group_crystal_system       triclinic
_cell_length_a                    27.770106
_cell_length_b                    10.849882
_cell_length_c                    9.568532
_cell_angle_alpha                 90.974535
_cell_angle_beta                  90.160071
_cell_angle_gamma                 92.865878
_cell_volume                      2878.97996641

loop_
_atom_site_label
_atom_site_type_symbol
_atom_site_description
_atom_site_fract_x
_atom_site_fract_y
_atom_site_fract_z
_atom_type_partial_charge
O1    O     O_R   0.500000 0.319640 0.618810 -0.584040
O2    O     O_R   0.500000 0.319660 0.381240 -0.578054
C1    C     C_R   0.504142 0.263438 0.499314 0.806266
O3    O     O_R   0.430260 0.500010 0.618770 -0.579790
O4    O     O_R   0.430270 0.500030 0.381200 -0.579102
C2    C     C_R   0.407436 0.499525 0.499801 0.811786
Cu1   Cu    Cu3+1 0.500000 0.499990 0.640660 0.921627
Cu2   Cu    Cu3+1 0.500000 0.500010 0.359340 0.932836
O5    O     O_R   0.500000 0.680340 0.618760 -0.610642
O6    O     O_R   0.500000 0.680360 0.381190 -0.596915
O7    O     O_R   0.569730 0.499970 0.618800 -0.607357
O8    O     O_R   0.569740 0.499990 0.381230 -0.598685
C3    C     C_R   0.498211 0.738045 0.502278 0.786139
C4    C     C_R   0.592532 0.500254 0.500294 0.771918
C5    C     C_R   0.175723 0.393416 0.546017 0.532716
O9    O     O_2   0.198990 0.293871 0.587131 -0.536603
N1    N     N_R   0.201465 0.495517 0.499498 -0.468367
C6    C     C_R   0.178844 0.596744 0.453857 0.534961
C7    C     C_R   0.278398 0.498029 0.372663 -0.099159
C8    C     C_R   0.328654 0.499109 0.372628 -0.216064
C9    C     C_R   0.328808 0.497370 0.626185 -0.214779
C10   C     C_R   0.278581 0.496288 0.625907 -0.102364
C11   C     C_R   0.253174 0.496592 0.499259 0.354471
C12   C     C_R   0.101323 0.495910 0.507473 -0.048124
C13   C     C_R   0.125162 0.391378 0.550075 -0.017614
C14   C     C_R   0.098068 0.287484 0.595418 -0.146753
C15   C     C_R   0.128361 0.598749 0.456681 -0.020425
C16   C     C_R   0.354346 0.498783 0.499486 -0.043709
H1    H     H_    0.347569 0.497057 0.725561 0.158025
H2    H     H_    0.259330 0.495554 0.724192 0.141904
H3    H     H_    0.115500 0.206298 0.630366 0.184687
C17   C     C_R   0.645541 0.500387 0.501572 -0.033392
C18   C     C_R   0.972116 0.387451 0.540478 0.054935
C19   C     C_R   0.976908 0.612905 0.505816 0.009696
C20   C     C_R   0.949205 0.500219 0.520924 0.040777
C21   C     C_R   0.943191 0.276800 0.547394 -0.212509
C22   C     C_R   0.893228 0.277513 0.539164 -0.146870
C23   C     C_R   0.870312 0.388564 0.525606 -0.011551
C24   C     C_R   0.898230 0.500327 0.518121 -0.049811
C25   C     C_R   0.875076 0.612130 0.508312 -0.047520
C26   C     C_R   0.824469 0.610032 0.502517 0.543253
N2    N     N_R   0.798101 0.500347 0.507793 -0.469952
C27   C     C_R   0.819858 0.390698 0.519687 0.532718
C28   C     C_R   0.720591 0.485614 0.629616 -0.105760
C29   C     C_R   0.670418 0.485844 0.627987 -0.224103
C30   C     C_R   0.671807 0.515161 0.377015 -0.223661
C31   C     C_R   0.722064 0.515637 0.379152 -0.103254
C32   C     C_R   0.746525 0.500588 0.505376 0.363326
O10   O     O_2   0.792716 0.284207 0.525615 -0.532989
C33   C     C_R   0.023095 0.389021 0.550999 0.045407
C34   C     C_R   0.050373 0.497222 0.514129 0.065973
C35   C     C_R   0.027092 0.606183 0.480883 0.026394
C36   C     C_R   0.047914 0.285728 0.594632 -0.217597
H4    H     H_    0.651165 0.474089 0.725553 0.158761
H5    H     H_    0.739407 0.474067 0.727450 0.136500
H6    H     H_    0.872595 0.190259 0.543888 0.186470
H7    H     H_    0.958323 0.187456 0.554516 0.135321
H8    H     H_    0.029382 0.203326 0.632338 0.141186
O11   O     O_2   0.205145 0.695676 0.407573 -0.536102
C37   C     C_R   0.104299 0.699222 0.405980 -0.150035
H9    H     H_    0.347315 0.500059 0.273377 0.158189
H10   H     H_    0.258997 0.497894 0.274319 0.142933
H11   H     H_    0.123895 0.775864 0.357353 0.187570
C38   C     C_R   0.953043 0.726387 0.521645 0.078372
C39   C     C_R   0.902537 0.723723 0.513489 -0.182938
O12   O     O_2   0.801738 0.716676 0.493084 -0.535561
C40   C     C_R   0.054321 0.701174 0.414713 -0.205022
H12   H     H_    0.653604 0.526814 0.278203 0.160469
H13   H     H_    0.884352 0.809754 0.518884 0.182869
H14   H     H_    0.742029 0.527242 0.282822 0.137399
H15   H     H_    0.037133 0.773605 0.361037 0.145573
H16   H     H_    0.489290 0.106794 0.281013 0.159676
C41   C     C_R   0.544841 0.129916 0.738190 -0.173298
H17   H     H_    0.563238 0.218698 0.723260 0.160993
C42   C     C_R   0.545980 0.075163 0.870383 0.316610
C43   C     C_R   0.521804 0.960445 0.886530 -0.221709
H18   H     H_    0.519217 0.919180 0.988731 0.147603
C44   C     C_R   0.502519 0.895131 0.770987 -0.212799
H19   H     H_    0.482824 0.809736 0.793061 0.188836
C45   C     C_R   0.506775 0.943284 0.634659 0.096502
C46   C     C_R   0.520717 0.069100 0.623830 0.043604
C47   C     C_R   0.509516 0.130285 0.499245 -0.098316
C48   C     C_R   0.496814 0.061922 0.378422 -0.208701
H20   H     H_    0.485342 0.884271 0.284928 0.164905
C49   C     C_R   0.493075 0.934611 0.381837 -0.207888
C50   C     C_R   0.497523 0.873272 0.508643 -0.096289
H21   H     H_    0.444048 0.363253 0.126413 0.139587
C51   C     C_R   0.565640 0.661449 0.147567 -0.164492
H22   H     H_    0.568056 0.671754 0.257813 0.203000
C52   C     C_R   0.598472 0.737848 0.076639 -0.224289
H23   H     H_    0.623588 0.799325 0.134138 0.168254
C53   C     C_R   0.598672 0.736912 0.932656 -0.188221
H24   H     H_    0.623756 0.798112 0.877451 0.170122
C54   C     C_R   0.565784 0.660274 0.858838 -0.157758
H25   H     H_    0.567494 0.671040 0.748965 0.206630
C55   C     C_R   0.532364 0.578900 0.926756 0.179393
C56   C     C_R   0.532324 0.579109 0.076521 0.208248
N3    N     N_R   0.500460 0.501210 0.147910 -0.197066
C57   C     C_R   0.469178 0.424936 0.072304 -0.069836
H26   H     H_    0.443944 0.363605 0.867280 0.148071
C58   C     C_R   0.469110 0.425176 0.924185 -0.073590
N4    N     N_R   0.500480 0.501290 0.852040 -0.205519
C59   C     C_3   0.977937 0.847332 0.574283 -0.407666
C60   C     C_3   0.003756 0.830832 0.714485 -0.314473
C61   C     C_3   0.026726 0.952885 0.769528 -0.848289
H27   H     H_    0.054238 0.989351 0.694804 0.253725
H28   H     H_    0.998821 0.021620 0.785257 0.249305
H29   H     H_    0.044650 0.938112 0.871330 0.251082
H30   H     H_    0.977380 0.794342 0.792627 0.223170
H31   H     H_    0.032535 0.764084 0.702951 0.233464
H32   H     H_    0.002678 0.890198 0.497253 0.190522
H33   H     H_    0.950816 0.918047 0.591860 0.188483
N5    N     N_2   0.570599 0.131979 0.988281 -0.433792
H34   H     H_    0.558571 0.104058 0.085207 0.247977
C62   C     C_3   0.589252 0.258736 0.982078 -0.660077
H35   H     H_    0.605822 0.287164 0.084154 0.230845
H36   H     H_    0.559706 0.320389 0.959696 0.232397
H37   H     H_    0.617625 0.268192 0.900889 0.226804

loop_
_geom_bond_atom_site_label_1
_geom_bond_atom_site_label_2
_geom_bond_distance
_ccdc_geom_bond_type
Cu2   N3    2.023410 S    
C38   C59   1.529190 S    
C26   N2    1.367508 A    
C58   N4    1.366836 A    
C55   N4    1.380421 A    
C17   C29   1.406427 A    
C20   C24   1.415822 A    
C7    C8    1.395057 A    
C12   C15   1.407718 A    
C56   N3    1.382812 A    
Cu1   Cu2   2.691823 S    
C49   C50   1.401876 A    
Cu1   O7    1.948265 S    
C61   H28   1.110849 S    
N1    C11   1.435442 S    
C37   H11   1.083240 S    
C21   C22   1.389890 A    
C43   C44   1.394058 A    
C15   C37   1.399731 A    
O4    C2    1.301475 A    
O7    C4    1.300269 A    
C44   C45   1.416477 A    
C5    C13   1.403806 A    
C7    H10   1.082981 S    
C5    O9    1.349656 S    
C18   C21   1.413327 A    
C59   H32   1.101890 S    
C19   C20   1.421320 A    
C41   H17   1.079439 S    
C41   C46   1.417304 A    
C8    H9    1.083100 S    
O5    C3    1.289668 A    
H26   C58   1.081655 S    
C45   C50   1.429883 A    
C22   H6    1.083486 S    
H20   C49   1.083602 S    
C2    C16   1.473926 S    
C37   C40   1.391842 A    
C62   H36   1.106949 S    
Cu1   N4    2.022409 S    
C3    C50   1.468500 S    
C42   N5    1.431760 S    
C51   C56   1.417555 A    
C12   C34   1.417254 A    
C14   H3    1.083432 S    
C9    C10   1.394250 A    
C41   C42   1.407511 A    
O3    Cu1   1.947413 S    
C53   C54   1.387422 A    
C60   C61   1.525743 S    
C46   C47   1.415637 A    
H21   C57   1.081695 S    
C23   C24   1.409214 A    
C61   H29   1.110354 S    
C33   C36   1.413127 A    
C34   C35   1.415943 A    
C12   C13   1.407150 A    
O3    C2    1.301171 A    
C21   H7    1.078767 S    
C4    C17   1.472010 S    
C24   C25   1.405457 A    
C44   H19   1.076478 S    
C27   O10   1.349716 S    
C8    C16   1.406431 A    
C33   C34   1.415333 A    
C18   C33   1.418221 A    
C9    H1    1.083112 S    
C59   H33   1.112808 S    
O1    C1    1.294782 A    
C7    C11   1.400909 A    
C42   C43   1.395497 A    
C31   H14   1.082908 S    
C30   H12   1.083151 S    
C22   C23   1.398250 A    
C52   C53   1.377595 A    
C31   C32   1.400010 A    
Cu2   O8    1.947407 S    
C62   H37   1.110347 S    
C55   C56   1.433002 A    
C1    C47   1.459776 S    
C19   C38   1.433171 A    
N1    C6    1.369443 A    
N2    C32   1.432532 S    
C43   H18   1.083509 S    
C54   C55   1.415672 A    
C35   C40   1.407761 A    
C25   C26   1.405323 A    
C48   C49   1.380970 A    
C9    C16   1.406159 A    
O8    C4    1.301626 A    
C29   H4    1.083375 S    
C47   C48   1.397689 A    
C25   C39   1.398358 A    
N2    C27   1.367274 A    
C14   C36   1.391957 A    
C28   C29   1.393477 A    
N5    H34   1.031827 S    
Cu1   O5    1.971505 S    
C30   C31   1.395488 A    
C10   H2    1.083025 S    
C57   C58   1.417331 A    
O1    Cu1   1.964375 S    
C17   C30   1.406361 A    
O2    Cu2   1.971505 S    
C6    C15   1.403500 A    
C51   C52   1.387808 A    
C45   C46   1.405802 A    
O6    C3    1.309731 A    
O4    Cu2   1.948268 S    
C36   H8    1.077199 S    
C5    N1    1.369545 A    
C26   O12   1.349702 S    
C61   H27   1.110823 S    
C19   C35   1.419785 A    
C38   C39   1.403352 A    
O2    C1    1.300577 A    
C13   C14   1.399527 A    
C23   C27   1.403460 A    
C60   H31   1.109531 S    
C28   H5    1.082992 S    
C52   H23   1.083011 S    
C60   H30   1.111948 S    
C39   H13   1.083782 S    
C53   H24   1.083007 S    
C18   C20   1.421880 A    
C40   H15   1.076599 S    
C54   H25   1.060694 S    
H16   C48   1.083486 S    
C28   C32   1.399271 A    
C6    O11   1.349579 S    
C51   H22   1.060485 S    
Cu2   O6    1.964375 S    
N3    C57   1.366424 A    
C59   C60   1.536697 S    
C10   C11   1.400710 A    
C62   H35   1.110805 S    
N5    C62   1.447409 S    
