data_mof_unit_10593.cif
_audit_creation_date              2012-12-11T14:04:01-0500
_audit_creation_method            fapswitch 2.2
_symmetry_space_group_name_H-M    P1
_symmetry_Int_Tables_number       1
_space_group_crystal_system       triclinic
_cell_length_a                    19.276594
_cell_length_b                    10.877429
_cell_length_c                    18.942826
_cell_angle_alpha                 89.728577
_cell_angle_beta                  89.058483
_cell_angle_gamma                 89.952396
_cell_volume                      3971.34569313

loop_
_atom_site_label
_atom_site_type_symbol
_atom_type_description
_atom_site_fract_x
_atom_site_fract_y
_atom_site_fract_z
_atom_type_partial_charge
C1    C     C_R   0.241554 0.464464 0.648173 0.555584
C2    C     C_R   0.044351 0.640305 0.562436 -0.032818
C3    C     C_R   0.467675 0.144843 0.436680 -0.023677
C4    C     C_R   0.544277 0.140153 0.562468 -0.033326
C5    C     C_R   0.964845 0.873502 0.447080 -0.078004
C6    C     C_R   0.070434 0.856751 0.542360 -0.068603
C7    C     C_R   0.465298 0.373575 0.446946 -0.077521
C8    C     C_R   0.570980 0.356191 0.542123 -0.068944
C9    C     C_R   0.995652 0.980310 0.471896 -0.065671
C10   C     C_R   0.051009 0.971127 0.517377 -0.070892
C11   C     C_R   0.496501 0.480167 0.471566 -0.065082
C12   C     C_R   0.758972 0.461337 0.349336 0.602170
C13   C     C_R   0.551934 0.470618 0.516942 -0.071221
C14   C     C_R   0.033646 0.750558 0.525471 -0.000255
C15   C     C_R   0.987370 0.755686 0.469504 -0.004662
C16   C     C_R   0.533832 0.250328 0.525402 -0.000942
C17   C     C_R   0.487543 0.255640 0.469453 -0.005013
C18   C     C_R   0.029782 0.524788 0.528387 0.020711
C19   C     C_R   0.989156 0.527985 0.466790 0.041106
C20   C     C_R   0.529562 0.024651 0.528478 0.020832
C21   C     C_R   0.489032 0.027926 0.466817 0.041038
C22   C     C_R   0.058406 0.405165 0.547454 0.125850
C23   C     C_R   0.741574 0.964327 0.648247 0.558055
C24   C     C_R   0.976925 0.410865 0.434732 0.146395
C25   C     C_R   0.558080 0.904984 0.547588 0.125089
C26   C     C_R   0.476903 0.910844 0.434666 0.146656
C27   C     C_R   0.069296 0.319372 0.493609 -0.123711
C28   C     C_R   0.027579 0.321545 0.436562 -0.117150
C29   C     C_R   0.569068 0.819236 0.493742 -0.123851
C30   C     C_R   0.527608 0.821640 0.436507 -0.116644
C31   C     C_2   0.240167 0.907401 0.925292 0.147405
C32   C     C_2   0.760887 0.905106 0.073702 0.132854
C33   C     C_2   0.754888 0.432532 0.915584 0.129540
C34   C     C_R   0.258974 0.961362 0.349352 0.599564
C35   C     C_2   0.261024 0.405135 0.073633 0.145446
C36   C     C_2   0.251274 0.897402 0.085499 -0.090902
C37   C     C_2   0.748848 0.895434 0.914393 -0.091677
C38   C     C_2   0.756048 0.436017 0.074711 -0.083926
C39   C     C_2   0.248975 0.395049 0.914293 -0.098282
C40   C     C_R   0.230125 0.884876 0.654625 0.524535
C41   C     C_R   0.774406 0.869986 0.354289 0.549690
C42   C     C_R   0.730152 0.384958 0.654685 0.526152
C43   C     C_R   0.274372 0.370048 0.354253 0.548546
C44   C     C_2   0.196030 0.921435 0.046893 -0.128353
C45   C     C_2   0.274542 0.882567 0.538395 -0.174231
C46   C     C_2   0.805402 0.914702 0.951795 -0.125085
C47   C     C_2   0.734337 0.525162 0.030675 -0.105942
C48   C     C_2   0.305528 0.414349 0.951746 -0.127907
C49   C     C_2   0.191913 0.877054 0.975066 0.106891
C50   C     C_2   0.809232 0.872555 0.024506 0.096756
C51   C     C_2   0.713735 0.499752 0.958678 0.098413
C52   C     C_2   0.309318 0.372041 0.024456 0.107750
C53   C     C_2   0.003526 0.655200 0.923613 -0.098386
C54   C     C_2   0.005824 0.660320 0.080972 -0.107358
C55   C     C_2   0.511288 0.156179 0.926714 -0.102200
C56   C     C_2   0.731803 0.810097 0.471199 -0.191827
C57   C     C_2   0.510438 0.163201 0.083481 -0.101786
C58   C     C_2   0.008227 0.558779 0.041418 -0.158129
C59   C     C_2   0.020461 0.560573 0.965956 -0.146070
C60   C     C_2   0.520633 0.062222 0.044823 -0.158122
C61   C     C_2   0.534987 0.066751 0.969390 -0.142649
C62   C     C_R   0.063157 0.647404 0.637760 0.559696
C63   C     C_R   0.941256 0.648808 0.363459 0.559651
C64   C     C_R   0.563138 0.147376 0.637764 0.559891
C65   C     C_R   0.441254 0.148813 0.363458 0.559577
C66   C     C_R   0.238267 0.463970 0.849860 0.553882
C67   C     C_2   0.774460 0.382709 0.538413 -0.174745
C68   C     C_R   0.762529 0.469329 0.148102 0.553994
C69   C     C_R   0.738255 0.963996 0.849855 0.551718
C70   C     C_R   0.261815 0.964540 0.150103 0.568103
C71   C     C_R   0.226400 0.873420 0.852816 0.578909
C72   C     C_R   0.773953 0.872797 0.146745 0.591220
C73   C     C_R   0.727521 0.375437 0.851935 0.573755
C74   C     C_R   0.273964 0.372827 0.146729 0.593216
C75   C     C_R   0.029656 0.651652 0.851434 0.578270
C76   C     C_R   0.971934 0.652530 0.149749 0.591957
C77   C     C_R   0.531812 0.151630 0.852764 0.562790
C78   C     C_2   0.231946 0.309973 0.471162 -0.191453
C79   C     C_R   0.472564 0.152872 0.150202 0.590566
C80   C     C_2   0.257210 0.949192 0.594031 -0.108048
C81   C     C_2   0.756647 0.899335 0.427762 -0.097999
C82   C     C_2   0.757234 0.449304 0.594095 -0.107849
C83   C     C_2   0.256554 0.399383 0.427694 -0.097504
C84   C     C_2   0.245316 0.896327 0.414292 0.030096
C85   C     C_2   0.766212 0.893480 0.586273 0.003047
C86   C     C_2   0.745324 0.396275 0.414268 0.029539
C87   C     C_2   0.266227 0.393949 0.586088 0.003137
C88   C     C_2   0.276440 0.942851 0.470655 -0.183252
C89   C     C_R   0.967685 0.644847 0.436682 -0.023580
C90   C     C_2   0.722003 0.829552 0.548008 -0.213838
C91   C     C_2   0.776271 0.443027 0.470674 -0.183533
C92   C     C_2   0.222190 0.329352 0.547986 -0.213650
C93   C     C_2   0.200712 0.784934 0.415447 0.206780
C94   C     C_2   0.841173 0.891348 0.565793 0.222313
C95   C     C_2   0.701027 0.284494 0.415338 0.207116
C96   C     C_2   0.341124 0.393006 0.565250 0.222340
Cr1   Cr    Cr6+3 0.113970 0.508630 0.747920 1.029322
Cr2   Cr    Cr6+3 0.887700 0.820070 0.250200 1.034186
Cr3   Cr    Cr6+3 0.612300 0.320070 0.749800 1.044914
Cr4   Cr    Cr6+3 0.387700 0.320070 0.250200 1.035508
Cr5   Cr    Cr6+3 0.886030 0.508630 0.252080 1.025609
Cr6   Cr    Cr6+3 0.613970 0.008630 0.747920 1.030185
Cr7   Cr    Cr6+3 0.386030 0.008630 0.252080 1.024309
Cr8   Cr    Cr6+3 0.269200 0.666740 0.749850 1.051055
Cr9   Cr    Cr6+3 0.730800 0.666740 0.250150 1.030460
Cr10  Cr    Cr6+3 0.769200 0.166740 0.749850 1.040599
Cr11  Cr    Cr6+3 0.230800 0.166740 0.250150 1.035162
Cr12  Cr    Cr6+3 0.112300 0.820070 0.749800 1.039919
H1    H     H_    0.304183 0.030061 0.466762 0.134406
H2    H     H_    0.044098 0.477450 0.944871 0.164328
H3    H     H_    0.513930 0.971110 0.067685 0.153061
H4    H     H_    0.562957 0.988157 0.947930 0.162675
H5    H     H_    0.018332 0.750043 0.059127 0.086033
H6    H     H_    0.980311 0.738927 0.943867 0.081157
H7    H     H_    0.520633 0.254035 0.061688 0.100180
H8    H     H_    0.484063 0.236205 0.946836 0.083012
H9    H     H_    0.276488 0.782662 0.541330 0.144847
H10   H     H_    0.716024 0.721981 0.450048 0.151926
H11   H     H_    0.776410 0.282807 0.541339 0.144204
H12   H     H_    0.676707 0.794398 0.574231 0.148167
H13   H     H_    0.216399 0.221700 0.450041 0.151846
H14   H     H_    0.247904 0.047560 0.589091 0.098454
H15   H     H_    0.772667 0.987458 0.448760 0.115261
H16   H     H_    0.747949 0.547683 0.589192 0.099204
H17   H     H_    0.272338 0.487686 0.448631 0.115790
H18   H     H_    0.976738 0.069148 0.455342 0.104581
H19   H     H_    0.078164 0.051005 0.535264 0.094774
H20   H     H_    0.477843 0.569104 0.454913 0.105058
H21   H     H_    0.579478 0.550226 0.534589 0.095120
H22   H     H_    0.920912 0.885095 0.413940 0.151490
H23   H     H_    0.803833 0.530418 0.466803 0.134116
H24   H     H_    0.116213 0.848624 0.572279 0.141225
H25   H     H_    0.421350 0.385472 0.413836 0.151733
H26   H     H_    0.616768 0.347699 0.572030 0.140452
H27   H     H_    0.096935 0.235307 0.502463 0.093015
H28   H     H_    0.025004 0.241425 0.403044 0.100899
H29   H     H_    0.596652 0.735156 0.502639 0.092780
H30   H     H_    0.525186 0.741681 0.402854 0.100852
H31   H     H_    0.152887 0.975879 0.067181 0.142213
H32   H     H_    0.849565 0.965042 0.930079 0.140565
H33   H     H_    0.722387 0.616726 0.050331 0.144258
H34   H     H_    0.177081 0.293578 0.574300 0.147273
H35   H     H_    0.349585 0.465144 0.930169 0.143875
H36   H     H_    0.088312 0.857837 0.969177 0.214595
H37   H     H_    0.132074 0.727964 0.990359 0.235800
H38   H     H_    0.912817 0.854812 0.031235 0.215429
H39   H     H_    0.870033 0.723085 0.012629 0.230630
H40   H     H_    0.646169 0.639171 0.942696 0.213442
H41   H     H_    0.609509 0.507028 0.971841 0.228138
H42   H     H_    0.412940 0.353970 0.031489 0.213805
H43   H     H_    0.370258 0.222516 0.012440 0.231223
H44   H     H_    0.300173 0.058011 0.911875 0.217506
H45   H     H_    0.292659 0.838698 0.065180 0.127507
H46   H     H_    0.344330 0.926205 0.925417 0.231516
H47   H     H_    0.700256 0.055387 0.084981 0.230720
H48   H     H_    0.656766 0.922894 0.072515 0.221576
H49   H     H_    0.857950 0.437721 0.893415 0.235199
H50   H     H_    0.831744 0.312541 0.939967 0.236954
H51   H     H_    0.201766 0.557258 0.084624 0.225120
H52   H     H_    0.156961 0.425994 0.072651 0.226238
H53   H     H_    0.189269 0.736210 0.464316 0.090149
H54   H     H_    0.859435 0.821115 0.529765 0.099213
H55   H     H_    0.689575 0.235735 0.464192 0.089951
H56   H     H_    0.706463 0.840166 0.935856 0.112956
H57   H     H_    0.359705 0.322235 0.529735 0.099224
H58   H     H_    0.918006 0.330226 0.361956 0.245481
H59   H     H_    0.892249 0.306303 0.445372 0.215291
H60   H     H_    0.000758 0.343535 0.629518 0.241861
H61   H     H_    0.073390 0.263370 0.619721 0.194962
H62   H     H_    0.418104 0.830198 0.361785 0.245274
H63   H     H_    0.392308 0.806030 0.445167 0.215658
H64   H     H_    0.500378 0.843425 0.629641 0.242605
H65   H     H_    0.573032 0.763221 0.619873 0.196380
H66   H     H_    0.767612 0.343212 0.057243 0.110394
H67   H     H_    0.206701 0.339210 0.935601 0.125895
H68   H     H_    0.998322 0.468476 0.064180 0.161884
N1    N     N_3   0.132459 0.805406 0.957499 -0.595000
N2    N     N_3   0.053644 0.352845 0.617325 -0.545740
N3    N     N_3   0.410780 0.874021 0.410452 -0.580991
N4    N     N_3   0.553269 0.852686 0.617463 -0.544990
N5    N     N_3   0.868925 0.802229 0.043728 -0.601600
N6    N     N_3   0.646977 0.543632 0.937184 -0.598123
N7    N     N_3   0.368960 0.301438 0.043722 -0.597524
N8    N     N_3   0.300968 0.977014 0.941787 -0.665094
N9    N     N_3   0.700021 0.973917 0.055931 -0.667611
N10   N     N_3   0.825507 0.407639 0.934751 -0.654832
N11   N     N_3   0.200696 0.475525 0.055845 -0.666844
N12   N     N_3   0.910750 0.374173 0.410595 -0.581124
O1    O     O_R   0.043230 0.549300 0.667990 -0.478353
O2    O     O_R   0.832470 0.905110 0.169660 -0.488814
O3    O     O_R   0.667530 0.405110 0.830340 -0.476242
O4    O     O_R   0.332470 0.405110 0.169660 -0.492699
O5    O     O_R   0.054010 0.748440 0.822860 -0.472016
O6    O     O_R   0.945990 0.748440 0.177140 -0.472018
O7    O     O_R   0.554010 0.248440 0.822860 -0.484474
O8    O     O_R   0.445990 0.248440 0.177140 -0.472058
O9    O     O_3   0.165160 0.665150 0.749190 -0.279469
O10   O     O_3   0.834840 0.665150 0.250810 -0.279012
O11   O     O_3   0.665160 0.165150 0.749190 -0.285200
O12   O     O_R   0.956770 0.549300 0.332010 -0.484151
O13   O     O_3   0.334840 0.165150 0.250810 -0.277541
O14   O     O_R   0.178620 0.457600 0.674100 -0.509738
O15   O     O_R   0.821380 0.457600 0.325900 -0.509559
O16   O     O_R   0.678620 0.957600 0.674100 -0.508144
O17   O     O_R   0.321380 0.957600 0.325900 -0.510675
O18   O     O_R   0.284680 0.542100 0.669460 -0.455930
O19   O     O_R   0.715320 0.542100 0.330540 -0.512764
O20   O     O_R   0.784680 0.042100 0.669460 -0.455058
O21   O     O_R   0.215320 0.042100 0.330540 -0.514527
O22   O     O_R   0.262860 0.790390 0.676650 -0.491822
O23   O     O_R   0.543230 0.049300 0.667990 -0.476456
O24   O     O_R   0.737140 0.790390 0.323350 -0.490984
O25   O     O_R   0.762860 0.290390 0.676650 -0.491512
O26   O     O_R   0.237140 0.290390 0.323350 -0.492301
O27   O     O_R   0.167460 0.907030 0.670940 -0.549287
O28   O     O_R   0.832540 0.907030 0.329060 -0.544732
O29   O     O_R   0.667460 0.407030 0.670940 -0.546649
O30   O     O_R   0.332540 0.407030 0.329060 -0.545129
O31   O     O_R   0.053950 0.750220 0.675100 -0.486054
O32   O     O_R   0.946050 0.750220 0.324900 -0.501758
O33   O     O_R   0.553950 0.250220 0.675100 -0.484027
O34   O     O_R   0.456770 0.049300 0.332010 -0.484357
O35   O     O_R   0.446050 0.250220 0.324900 -0.501877
O36   O     O_R   0.043300 0.547370 0.827390 -0.516199
O37   O     O_R   0.956700 0.547370 0.172610 -0.514343
O38   O     O_R   0.543300 0.047370 0.827390 -0.512551
O39   O     O_R   0.456700 0.047370 0.172610 -0.512879
O40   O     O_R   0.178690 0.455820 0.821860 -0.503984
O41   O     O_R   0.821310 0.455820 0.178140 -0.493093
O42   O     O_R   0.678690 0.955820 0.821860 -0.505894
O43   O     O_R   0.321310 0.955820 0.178140 -0.500271
O44   O     O_R   0.284750 0.540170 0.828860 -0.507437
O45   O     O_R   0.262920 0.788600 0.824420 -0.501980
O46   O     O_R   0.715250 0.540170 0.171140 -0.512761
O47   O     O_R   0.784750 0.040170 0.828860 -0.511676
O48   O     O_R   0.215250 0.040170 0.171140 -0.509046
O49   O     O_2   0.175634 0.746692 0.361015 -0.492084
O50   O     O_2   0.882957 0.963453 0.589960 -0.481945
O51   O     O_2   0.676210 0.245958 0.360847 -0.490818
O52   O     O_2   0.382466 0.466942 0.588401 -0.482435
O53   O     O_R   0.737080 0.788600 0.175580 -0.508574
O54   O     O_R   0.762920 0.288600 0.824420 -0.515044
O55   O     O_R   0.237080 0.288600 0.175580 -0.498646
O56   O     O_R   0.167530 0.905110 0.830340 -0.498437

loop_
_geom_bond_atom_site_label_1
_geom_bond_atom_site_label_2
_ccdc_geom_bond_type
C44   C49   S    
C1    C87   S    
Cr11  O48   S    
Cr3   O33   S    
C35   C74   S    
C8    C13   A    
C30   H30   S    
C37   C69   S    
C23   O20   A    
C2    C18   A    
C43   C83   S    
Cr8   O9    S    
C57   C79   S    
H64   N4    S    
C42   C82   S    
C52   N7    S    
Cr8   O22   S    
Cr1   O14   S    
Cr2   O2    S    
C42   O29   A    
Cr11  O55   S    
C53   C59   D    
C25   N4    S    
C56   C81   D    
C32   C72   S    
C3    C65   S    
H48   N9    S    
C68   O46   A    
C7    C11   A    
Cr4   O13   S    
Cr9   O24   S    
C32   N9    S    
C81   H15   S    
H58   N12   S    
Cr3   O7    S    
C45   H9    S    
Cr10  O54   S    
C71   O56   A    
C7    H25   S    
Cr2   O32   S    
C86   C91   D    
Cr7   O34   S    
Cr10  O20   S    
C55   C77   S    
Cr6   O23   S    
Cr8   O44   S    
C31   N8    S    
C15   C89   A    
C20   C25   A    
Cr7   O39   S    
C54   H5    S    
C66   O44   A    
Cr6   O38   S    
C59   H2    S    
C63   O12   A    
Cr2   O6    S    
Cr5   O37   S    
C18   C19   A    
Cr9   O46   S    
C12   O15   A    
H51   N11   S    
Cr12  O9    S    
C78   H13   S    
Cr6   O16   S    
C70   O43   A    
Cr12  O31   S    
C78   C83   D    
C94   O50   D    
C73   O54   A    
Cr3   O29   S    
C93   O49   D    
C16   C17   A    
C7    C17   A    
H46   N8    S    
C40   C80   S    
C64   O23   A    
C33   N10   S    
Cr8   O18   S    
H44   N8    S    
C92   H34   S    
C9    C10   A    
C94   H54   S    
C37   C46   D    
C22   N2    S    
C84   C93   S    
C51   N6    S    
C46   C50   S    
Cr1   O1    S    
Cr4   O30   S    
C77   O38   A    
C8    C16   A    
C28   H28   S    
C87   C92   D    
C25   C29   A    
C43   O26   A    
C41   O24   A    
H63   N3    S    
C53   C75   S    
C34   C84   S    
C31   C49   D    
C1    O14   A    
H50   N10   S    
C79   O39   A    
C65   O34   A    
C21   C26   A    
C36   C70   S    
C36   H45   S    
Cr9   O19   S    
C62   O1    A    
C49   N1    S    
Cr4   O8    S    
C34   O17   A    
Cr7   O43   S    
Cr5   O12   S    
Cr10  O47   S    
Cr2   O10   S    
C8    H26   S    
C12   O19   A    
Cr1   O9    S    
Cr4   O4    S    
C45   C88   S    
H49   N10   S    
C57   H7    S    
C83   H17   S    
C41   O28   A    
Cr5   O10   S    
C57   C60   D    
C47   C51   S    
Cr4   O35   S    
C78   C92   S    
C58   C59   S    
C26   N3    S    
C79   O8    A    
C48   H35   S    
C60   C61   S    
C90   H12   S    
C63   O32   A    
C4    C16   A    
Cr7   O13   S    
C5    C9    A    
C29   C30   A    
C19   C89   A    
C34   O21   A    
C95   H55   S    
C6    C14   A    
C85   C94   S    
C93   H53   S    
C3    C21   A    
C41   C81   S    
C87   C96   S    
Cr12  O56   S    
C67   C91   S    
C70   O48   A    
H36   N1    S    
C1    O18   A    
C32   C50   D    
C38   C47   D    
C73   O3    A    
C76   O6    A    
C37   H56   S    
C54   C76   S    
C88   H1    S    
C75   O5    A    
C6    H24   S    
Cr8   O45   S    
C38   C68   S    
C75   O36   A    
C26   C30   A    
C44   H31   S    
C22   C27   A    
H47   N9    S    
H41   N6    S    
C39   C66   S    
C74   O4    A    
C68   O41   A    
C36   C44   D    
C43   O30   A    
C74   O55   A    
Cr3   O11   S    
C10   H19   S    
C35   N11   S    
H61   N2    S    
C65   O35   A    
C53   H6    S    
C24   C28   A    
C46   H32   S    
C82   H16   S    
C54   C58   D    
C33   C73   S    
Cr10  O25   S    
Cr2   O28   S    
Cr9   O10   S    
C96   O52   D    
H38   N5    S    
C76   O37   A    
C18   C22   A    
C56   H10   S    
C72   O53   A    
C58   H68   S    
C84   C88   D    
C39   H67   S    
C66   O40   A    
C6    C10   A    
Cr5   O41   S    
C85   C90   D    
H43   N7    S    
H42   N7    S    
Cr11  O21   S    
C33   C51   D    
C29   H29   S    
C45   C80   D    
C4    C64   S    
C9    H18   S    
H65   N4    S    
Cr1   O36   S    
C12   C86   S    
H62   N3    S    
C24   N12   S    
C40   O22   A    
C27   H27   S    
C62   O31   A    
C19   C24   A    
C69   O47   A    
C23   C85   S    
C50   N5    S    
C60   H3    S    
Cr6   O11   S    
C80   H14   S    
Cr3   O3    S    
C11   C13   A    
H39   N5    S    
Cr11  O26   S    
H60   N2    S    
H59   N12   S    
C55   C61   D    
C40   O27   A    
C56   C90   S    
C95   O51   D    
C64   O33   A    
C3    C17   A    
C47   H33   S    
C11   H20   S    
C63   C89   S    
C71   O45   A    
Cr11  O13   S    
C77   O7    A    
C2    C14   A    
C5    C15   A    
Cr12  O27   S    
C38   H66   S    
C86   C95   S    
C4    C20   A    
C5    H22   S    
Cr7   O17   S    
C48   C52   S    
Cr1   O40   S    
C91   H23   S    
C20   C21   A    
C67   C82   D    
H40   N6    S    
C55   H8    S    
H37   N1    S    
C35   C52   D    
C42   O25   A    
C13   H21   S    
C14   C15   A    
C39   C48   D    
C23   O16   A    
Cr6   O42   S    
C96   H57   S    
H52   N11   S    
Cr12  O5    S    
C69   O42   A    
C61   H4    S    
C67   H11   S    
Cr9   O53   S    
C31   C71   S    
C2    C62   S    
C72   O2    A    
Cr5   O15   S    
Cr10  O11   S    
C27   C28   A    
