data_mof_unit_14005.cif
_audit_creation_date              2012-12-10T17:48:20-0500
_audit_creation_method            fapswitch 2.2
_symmetry_space_group_name_H-M    P1
_symmetry_Int_Tables_number       1
_space_group_crystal_system       triclinic
_cell_length_a                    13.872505
_cell_length_b                    14.753981
_cell_length_c                    14.599104
_cell_angle_alpha                 114.96937
_cell_angle_beta                  106.269328
_cell_angle_gamma                 72.0364
_cell_volume                      2537.47598787

loop_
_atom_site_label
_atom_site_type_symbol
_atom_type_description
_atom_site_fract_x
_atom_site_fract_y
_atom_site_fract_z
_atom_type_partial_charge
C1    C     C_R   0.512842 0.118778 0.688391 0.833632
C2    C     C_R   0.487159 0.881222 0.311609 0.833633
C3    C     C_R   0.502201 0.360284 0.923677 0.011974
C4    C     C_R   0.497806 0.639715 0.076324 0.011975
C5    C     C_R   0.543583 0.320190 0.002839 0.034458
C6    C     C_R   0.456425 0.679809 0.997161 0.034455
C7    C     C_R   0.492096 0.466671 0.947877 0.099425
C8    C     C_R   0.507911 0.533328 0.052123 0.099425
C9    C     C_R   0.527712 0.492551 0.128910 -0.242602
C10   C     C_R   0.472296 0.507448 0.871090 -0.242601
C11   C     C_R   0.551202 0.387570 0.105108 -0.183898
C12   C     C_R   0.448806 0.612429 0.894892 -0.183900
C13   C     C_R   0.332462 0.301293 0.326315 0.107683
C14   C     C_R   0.667541 0.698710 0.673688 0.107672
C15   C     C_R   0.354330 0.217464 0.357337 0.331877
C16   C     C_R   0.645671 0.782537 0.642662 0.331875
C17   C     C_R   0.489333 0.284392 0.488083 -0.030421
C18   C     C_R   0.510666 0.715608 0.511921 -0.030423
C19   C     C_R   0.464651 0.373126 0.461976 -0.102777
C20   C     C_R   0.535350 0.626875 0.538031 -0.102783
C21   C     C_R   0.373908 0.386591 0.392119 -0.045292
C22   C     C_R   0.626095 0.613411 0.607886 -0.045273
C23   C     C_R   0.687113 0.986557 0.503886 0.819786
C24   C     C_R   0.312887 0.013442 0.496113 0.819789
C25   C     C_R   0.523991 0.450260 0.503480 -0.028134
C26   C     C_R   0.476011 0.549742 0.496530 -0.028138
C27   C     C_R   0.369196 0.569453 0.454408 0.063931
C28   C     C_R   0.630806 0.430549 0.545604 0.063918
C29   C     C_R   0.320736 0.486350 0.396529 0.448634
C30   C     C_R   0.679267 0.513652 0.603478 0.448655
C31   C     C_1   0.207306 0.021846 0.494461 -0.182371
C32   C     C_1   0.792694 0.978154 0.505539 -0.182369
C33   C     C_2   0.012893 0.035941 0.492454 -0.154932
C34   C     C_2   0.987107 0.964059 0.507547 -0.154928
C35   C     C_1   0.881522 0.971163 0.506660 0.004829
C36   C     C_1   0.118477 0.028837 0.493341 0.004828
C37   C     C_R   0.516576 0.186653 0.797270 -0.123427
C38   C     C_R   0.483427 0.813346 0.202730 -0.123429
C39   C     C_R   0.572255 0.213568 0.978688 0.453239
C40   C     C_R   0.427752 0.786430 0.021312 0.453237
C41   C     C_R   0.565983 0.147801 0.875320 -0.353988
C42   C     C_R   0.434022 0.852198 0.124679 -0.353983
C43   C     C_R   0.471295 0.292142 0.823758 0.105722
C44   C     C_R   0.528709 0.707858 0.176243 0.105722
Cu1   Cu    Cu3+1 0.526370 0.916390 0.524860 0.926175
Cu2   Cu    Cu3+1 0.473630 0.083610 0.475140 0.926175
H1    H     H_    0.045028 0.899594 0.520512 0.154446
H2    H     H_    0.954972 0.100406 0.479489 0.154442
H3    H     H_    0.573210 0.359558 0.167376 0.188306
H4    H     H_    0.426799 0.640441 0.832624 0.188306
H5    H     H_    0.402347 0.933456 0.143397 0.164331
H6    H     H_    0.597658 0.066542 0.856602 0.164330
H7    H     H_    0.525768 0.540873 0.208332 0.166240
H8    H     H_    0.474239 0.459125 0.791668 0.166238
H9    H     H_    0.450423 0.723091 0.448523 0.164778
H10   H     H_    0.549573 0.276909 0.551483 0.164779
N1    N     N_R   0.433980 0.209250 0.437830 -0.188314
N2    N     N_R   0.566020 0.790750 0.562170 -0.188312
O1    O     O_R   0.534760 0.019630 0.662610 -0.590924
O2    O     O_R   0.465240 0.980370 0.337390 -0.590922
O3    O     O_R   0.490220 0.160840 0.620610 -0.575300
O4    O     O_R   0.509780 0.839160 0.379390 -0.575298
O5    O     O_R   0.663260 0.919400 0.523940 -0.576530
O6    O     O_R   0.336740 0.080600 0.476060 -0.576530
O7    O     O_R   0.618720 0.060610 0.481950 -0.572672
O8    O     O_R   0.381280 0.939390 0.518050 -0.572672
C45   C     C_3   0.277299 0.294788 0.218779 -0.796891
H11   H     H_    0.308209 0.219238 0.162237 0.206878
H12   H     H_    0.193306 0.304651 0.210517 0.246869
H13   H     H_    0.290799 0.353545 0.197957 0.254064
C46   C     C_3   0.722713 0.705214 0.781221 -0.796884
H14   H     H_    0.691809 0.780766 0.837765 0.206874
H15   H     H_    0.709214 0.646460 0.802048 0.254063
H16   H     H_    0.806706 0.695346 0.789473 0.246876
C47   C     C_3   0.301957 0.676862 0.479107 -0.818435
H17   H     H_    0.230558 0.681546 0.501866 0.217953
H18   H     H_    0.337753 0.734280 0.547276 0.228799
H19   H     H_    0.281045 0.699358 0.411265 0.239181
C48   C     C_3   0.698043 0.323140 0.520917 -0.818443
H20   H     H_    0.769453 0.318451 0.498175 0.217959
H21   H     H_    0.718936 0.300646 0.588758 0.239173
H22   H     H_    0.662253 0.265723 0.452740 0.228801
C49   C     C_3   0.626751 0.674121 0.243698 -0.822901
H23   H     H_    0.609841 0.664628 0.308621 0.240100
H24   H     H_    0.674683 0.601280 0.199030 0.231174
H25   H     H_    0.674918 0.731996 0.275412 0.225845
C50   C     C_3   0.373253 0.325880 0.756304 -0.822903
H26   H     H_    0.325322 0.398722 0.800973 0.231175
H27   H     H_    0.390163 0.335374 0.691381 0.240098
H28   H     H_    0.325084 0.268006 0.724591 0.225845
O9    O     O_3   0.616519 0.175444 0.056558 -0.580477
C51   C     C_3   0.554924 0.115313 0.057260 0.039512
H29   H     H_    0.575818 0.035762 0.001977 0.146464
H30   H     H_    0.470822 0.146636 0.037760 0.135637
C52   C     C_3   0.575045 0.112570 0.164188 -0.778883
H31   H     H_    0.527931 0.064642 0.165661 0.194750
H32   H     H_    0.657639 0.079644 0.186040 0.254828
H33   H     H_    0.554144 0.191364 0.220895 0.248480
O10   O     O_3   0.383490 0.824555 0.943442 -0.580475
C53   C     C_3   0.445092 0.884676 0.942735 0.039508
H34   H     H_    0.529193 0.853344 0.962228 0.135638
H35   H     H_    0.424208 0.964228 0.998021 0.146464
C54   C     C_3   0.424967 0.887423 0.835808 -0.778880
H36   H     H_    0.445857 0.808628 0.779098 0.248480
H37   H     H_    0.342375 0.920359 0.813963 0.254827
H38   H     H_    0.472088 0.935343 0.834332 0.194752
O11   O     O_3   0.217529 0.503870 0.351658 -0.572102
C55   C     C_3   0.153776 0.516578 0.419359 0.091665
H39   H     H_    0.103017 0.594355 0.436679 0.156633
H40   H     H_    0.196228 0.509795 0.494328 0.117727
C56   C     C_3   0.083927 0.440349 0.368026 -0.820453
H41   H     H_    0.128514 0.362583 0.364071 0.240128
H42   H     H_    0.022676 0.462815 0.413609 0.198121
H43   H     H_    0.046988 0.439324 0.289667 0.261513
O12   O     O_3   0.782475 0.496133 0.648345 -0.572100
C57   C     C_3   0.846225 0.483403 0.580633 0.091637
H44   H     H_    0.803772 0.490134 0.505645 0.117740
H45   H     H_    0.897008 0.405641 0.563354 0.156652
C58   C     C_3   0.916040 0.559660 0.631920 -0.820509
H46   H     H_    0.953001 0.560716 0.710283 0.261506
H47   H     H_    0.977273 0.537197 0.586319 0.198126
H48   H     H_    0.871427 0.637412 0.635854 0.240152
C59   C     C_3   0.721984 0.851686 0.689316 -0.784769
H49   H     H_    0.769204 0.835488 0.632166 0.231340
H50   H     H_    0.686392 0.933168 0.721116 0.247682
H51   H     H_    0.779223 0.837376 0.754402 0.191696
C60   C     C_3   0.278020 0.148313 0.310676 -0.784766
H52   H     H_    0.230801 0.164501 0.367824 0.231344
H53   H     H_    0.220780 0.162628 0.245594 0.191692
H54   H     H_    0.313614 0.066833 0.278869 0.247675

loop_
_geom_bond_atom_site_label_1
_geom_bond_atom_site_label_2
_ccdc_geom_bond_type
C7    C10   A    
C50   H26   S    
C27   C29   A    
C14   C46   S    
C52   H31   S    
C4    C8    A    
C44   C49   S    
C40   O10   S    
C52   H33   S    
C7    C8    A    
C39   C41   A    
Cu1   Cu2   S    
C55   H39   S    
C25   C28   A    
C3    C43   A    
C26   C27   A    
C19   C21   A    
C16   C59   S    
C5    C11   A    
C3    C7    A    
C1    O1    A    
C6    C12   A    
C2    O2    A    
C23   O5    A    
C59   H50   S    
O12   C57   S    
Cu1   O4    S    
C33   C36   S    
C57   H44   S    
C34   C35   S    
C28   C48   S    
C51   H29   S    
C18   N2    A    
C56   H41   S    
C55   H40   S    
C8    C9    A    
O11   C55   S    
C54   H38   S    
C41   H6    S    
C18   C20   A    
C24   O8    A    
C42   H5    S    
C40   C42   A    
C24   O6    A    
C15   C60   S    
C15   N1    A    
C10   H8    S    
C39   O9    S    
C30   O12   S    
C58   H47   S    
Cu1   N2    S    
Cu2   O3    S    
C45   H11   S    
C32   C35   T    
C59   H49   S    
Cu2   O7    S    
C4    C6    A    
O9    C51   S    
C48   H21   S    
C59   H51   S    
C4    C44   A    
C25   C26   A    
C21   C29   A    
Cu1   O5    S    
C53   C54   S    
Cu2   O6    S    
C45   H12   S    
C37   C43   A    
C47   H17   S    
C60   H53   S    
C38   C44   A    
C11   H3    S    
C48   H22   S    
C47   H18   S    
C2    C38   S    
C49   H23   S    
C51   H30   S    
C33   C34   D    
C13   C21   A    
C56   H42   S    
C55   C56   S    
C16   N2    A    
C9    C11   A    
C17   H10   S    
C10   C12   A    
C18   H9    S    
C49   H24   S    
C20   C22   A    
C50   H27   S    
Cu2   N1    S    
C54   H37   S    
C14   C16   A    
C9    H7    S    
C60   H52   S    
C54   H36   S    
C46   H15   S    
C53   H35   S    
C13   C45   S    
C58   H48   S    
C5    C39   A    
Cu1   O1    S    
C22   C30   A    
Cu2   O2    S    
C3    C5    A    
C1    O3    A    
C46   H16   S    
C12   H4    S    
C58   H46   S    
C52   H32   S    
C38   C42   A    
C1    C37   S    
C57   C58   S    
C45   H13   S    
C43   C50   S    
C23   C32   S    
C23   O7    A    
C13   C15   A    
C24   C31   S    
C46   H14   S    
O10   C53   S    
C14   C22   A    
C20   C26   A    
C28   C30   A    
C53   H34   S    
C17   C19   A    
C57   H45   S    
C56   H43   S    
C6    C40   A    
C51   C52   S    
C37   C41   A    
C19   C25   A    
C47   H19   S    
C60   H54   S    
C27   C47   S    
C48   H20   S    
C49   H25   S    
C50   H28   S    
Cu1   O8    S    
C33   H2    S    
C31   C36   T    
C29   O11   S    
C34   H1    S    
C2    O4    A    
C17   N1    A    
