data_mof_unit_58285.cif
_audit_creation_date              2012-12-10T19:07:37-0500
_audit_creation_method            fapswitch 2.2
_symmetry_space_group_name_H-M    P1
_symmetry_Int_Tables_number       1
_space_group_crystal_system       triclinic
_cell_length_a                    10.815929
_cell_length_b                    10.822076
_cell_length_c                    9.543664
_cell_angle_alpha                 90.190416
_cell_angle_beta                  89.772048
_cell_angle_gamma                 90.120947
_cell_volume                      1117.07609219

loop_
_atom_site_label
_atom_site_type_symbol
_atom_type_description
_atom_site_fract_x
_atom_site_fract_y
_atom_site_fract_z
_atom_type_partial_charge
C1    C     C_R   0.503884 0.262265 0.499560 0.832385
C2    C     C_R   0.936085 0.488148 0.624497 0.134895
C3    C     C_3   0.929708 0.378468 0.719094 -0.466357
C4    C     C_3   0.070032 0.379565 0.719724 -0.474319
C5    C     C_R   0.501763 0.063906 0.623758 0.061246
C6    C     C_R   0.518078 0.128937 0.498928 -0.148841
C7    C     C_R   0.552869 0.063304 0.376317 0.398002
C8    C     C_R   0.550981 0.933376 0.378598 -0.325146
C9    C     C_R   0.515956 0.870387 0.500894 -0.136173
C10   C     C_R   0.500784 0.936959 0.624767 0.165914
C11   C     C_3   0.399196 0.931618 0.731051 -0.445864
C12   C     C_R   0.262413 0.501790 0.500336 0.786875
C13   C     C_3   0.400670 0.071907 0.730586 -0.469535
C14   C     C_R   0.553056 0.595208 0.073669 0.177346
C15   C     C_R   0.436857 0.412900 0.074389 -0.033121
C16   C     C_R   0.436861 0.412885 0.925497 -0.084904
C17   C     C_R   0.551809 0.595975 0.926093 0.179437
C18   C     C_3   0.683683 0.637139 0.919543 0.206388
C19   C     C_3   0.685251 0.634402 0.078904 -0.563864
C20   C     C_R   0.502558 0.737568 0.500200 0.832650
C21   C     C_R   0.737737 0.501772 0.499968 0.808446
C22   C     C_R   0.063389 0.488718 0.624761 0.139198
C23   C     C_R   0.129424 0.512560 0.501968 -0.096521
C24   C     C_R   0.065400 0.552374 0.382660 -0.212805
C25   C     C_R   0.936477 0.552605 0.382757 -0.209216
C26   C     C_R   0.871059 0.512023 0.501493 -0.087937
Cu1   Cu    Cu3+1 0.499990 0.499980 0.640670 0.956182
Cu2   Cu    Cu3+1 0.500010 0.500020 0.359330 0.967702
H1    H     H_    0.114394 0.578998 0.288222 0.166553
H2    H     H_    0.430356 0.891500 0.831923 0.193209
H3    H     H_    0.314549 0.113369 0.688355 0.188403
H4    H     H_    0.433490 0.112306 0.831039 0.202942
H5    H     H_    0.387602 0.341059 0.130093 0.149824
H6    H     H_    0.387308 0.341303 0.869691 0.137450
H7    H     H_    0.746530 0.568789 0.869959 0.157010
H8    H     H_    0.745531 0.559994 0.119408 0.190848
H9    H     H_    0.697498 0.726232 0.129532 0.196742
H10   H     H_    0.888863 0.580574 0.289022 0.157915
H11   H     H_    0.888830 0.401161 0.822969 0.193462
H12   H     H_    0.889666 0.295627 0.666819 0.201329
H13   H     H_    0.109736 0.403921 0.823505 0.200005
H14   H     H_    0.111821 0.297212 0.668192 0.189412
H15   H     H_    0.572029 0.882206 0.283740 0.155249
H16   H     H_    0.312448 0.891267 0.688354 0.193109
N1    N     N_R   0.500790 0.500930 0.147930 -0.173256
N2    N     N_R   0.500790 0.500890 0.852020 -0.201983
O1    O     O_R   0.500000 0.319640 0.618810 -0.596293
O2    O     O_R   0.500010 0.319680 0.381230 -0.526478
O3    O     O_R   0.319650 0.499970 0.618810 -0.582263
O4    O     O_R   0.319660 0.500010 0.381230 -0.591651
O5    O     O_R   0.499990 0.680320 0.618770 -0.559753
O6    O     O_R   0.500000 0.680360 0.381190 -0.589279
O7    O     O_R   0.680340 0.499990 0.618770 -0.581546
O8    O     O_R   0.680350 0.500030 0.381190 -0.578060
O9    O     O_3   0.697802 0.756424 0.863113 -0.699914
H17   H     H_    0.637337 0.812505 0.909186 0.318933
O10   O     O_3   0.583936 0.126373 0.255449 -0.718487
H18   H     H_    0.604858 0.066135 0.180532 0.314505

loop_
_geom_bond_atom_site_label_1
_geom_bond_atom_site_label_2
_ccdc_geom_bond_type
C2    C22   A    
C12   O4    A    
O9    H17   S    
Cu1   O7    S    
C1    O2    A    
C6    C7    A    
C25   H10   S    
C20   O5    A    
C4    C22   S    
C18   H7    S    
C9    C20   S    
C5    C13   S    
C14   C17   A    
C8    H15   S    
C23   C24   A    
C12   O3    A    
C3    H11   S    
C7    C8    A    
C2    C26   A    
C4    H13   S    
C24   C25   A    
C21   O7    A    
Cu2   O6    S    
C12   C23   S    
O10   H18   S    
C21   O8    A    
C4    H14   S    
C18   O9    S    
Cu1   O3    S    
Cu1   N2    S    
C5    C10   A    
C21   C26   S    
Cu1   O5    S    
C3    H12   S    
C17   C18   S    
C14   N1    A    
C2    C3    S    
C19   H8    S    
C5    C6    A    
Cu2   N1    S    
C10   C11   S    
C15   N1    A    
Cu1   O1    S    
C1    C6    S    
C11   H16   S    
C11   C13   S    
C17   N2    A    
C20   O6    A    
C18   C19   S    
C9    C10   A    
C16   N2    A    
Cu1   Cu2   S    
C13   H3    S    
C24   H1    S    
C1    O1    A    
Cu2   O8    S    
C19   H9    S    
C16   H6    S    
C25   C26   A    
C22   C23   A    
C13   H4    S    
Cu2   O4    S    
C14   C19   S    
C7    O10   S    
Cu2   O2    S    
C3    C4    S    
C15   C16   A    
C11   H2    S    
C15   H5    S    
C8    C9    A    
