data_mof_unit_6653.cif
_audit_creation_date              2013-03-05T16:28:01-0500
_audit_creation_method            fapswitch 2.2
_symmetry_space_group_name_H-M    P1
_symmetry_Int_Tables_number       1
_space_group_crystal_system       triclinic
_cell_length_a                    18.21578
_cell_length_b                    18.285217
_cell_length_c                    18.460473
_cell_angle_alpha                 119.852616
_cell_angle_beta                  90.185693
_cell_angle_gamma                 119.379896
_cell_volume                      4390.88629297

loop_
_atom_site_label
_atom_site_type_symbol
_atom_site_description
_atom_site_fract_x
_atom_site_fract_y
_atom_site_fract_z
_atom_type_partial_charge
Zn1   Zn    Zn3+2 0.457170 0.413230 0.543930 1.030002
Zn2   Zn    Zn3+2 0.456070 0.586770 0.542830 0.993852
Zn3   Zn    Zn3+2 0.456070 0.413270 0.369320 1.009638
Zn4   Zn    Zn3+2 0.630690 0.586730 0.543930 1.020433
O1    O     O_3   0.500000 0.500000 0.500000 -0.530191
O2    O     O_R   0.676910 0.731570 0.616180 -0.605582
O3    O     O_R   0.384580 0.268400 0.445300 -0.630428
O4    O     O_R   0.383810 0.560730 0.615410 -0.638893
O5    O     O_R   0.554700 0.439300 0.323100 -0.600155
O6    O     O_R   0.382730 0.560770 0.443450 -0.673961
O7    O     O_R   0.678000 0.560660 0.617260 -0.665157
O8    O     O_R   0.382730 0.439340 0.322020 -0.648508
O9    O     O_R   0.556550 0.439230 0.617260 -0.583006
O10   O     O_R   0.384580 0.439270 0.616180 -0.597206
O11   O     O_R   0.676910 0.560700 0.445300 -0.594128
O12   O     O_R   0.554700 0.731600 0.615410 -0.594740
O13   O     O_R   0.383810 0.268430 0.323100 -0.612922
C1    C     C_R   0.639744 0.780052 0.637701 0.900165
C2    C     C_R   0.361878 0.220465 0.359958 0.850205
C3    C     C_R   0.358210 0.498526 0.638120 0.796280
C4    C     C_R   0.639748 0.498100 0.359816 0.863030
C5    C     C_R   0.359013 0.501349 0.360091 0.827379
C6    C     C_R   0.641652 0.498004 0.639653 0.870883
C7    C     C_3   0.793894 0.520189 0.694574 -0.455729
C8    C     C_3   0.768041 0.430119 0.702601 0.371085
H1    H     H_    0.825378 0.535897 0.648394 0.143944
C9    C     C_3   0.801872 0.502607 0.804035 -0.227119
C10   C     C_3   0.826847 0.592015 0.797220 0.521850
C11   C     C_3   0.733329 0.570537 0.797867 -0.285135
C12   C     C_3   0.709019 0.479754 0.802700 0.174457
C13   C     C_3   0.674830 0.406743 0.702039 0.245577
C14   C     C_3   0.699117 0.496305 0.695288 -0.205670
H2    H     H_    0.719111 0.628843 0.837217 0.182137
C15   C     C_R   0.274698 0.053336 0.338573 -0.129852
C16   C     C_R   0.305285 0.108865 0.301988 -0.209607
C17   C     C_R   0.282550 0.055698 0.208997 0.316638
C18   C     C_R   0.225405 0.947971 0.155631 0.245625
C19   C     C_R   0.193253 0.892380 0.194273 -0.263933
C20   C     C_R   0.216594 0.947213 0.286642 -0.061917
C21   C     C_3   0.261138 0.938043 0.347745 0.065421
C22   C     C_3   0.328043 0.053932 0.401531 0.353003
H3    H     H_    0.288650 0.892073 0.315851 0.082973
H4    H     H_    0.325534 0.095890 0.469274 0.196191
C23   C     C_R   0.784682 0.575664 0.336929 -0.090664
C24   C     C_R   0.693916 0.497275 0.301494 -0.113739
C25   C     C_R   0.655507 0.424530 0.207871 0.316372
C26   C     C_R   0.709689 0.430348 0.154646 -0.210763
H5    H     H_    0.680146 0.371862 0.084059 0.190625
C27   C     C_R   0.801961 0.503795 0.192738 -0.052596
C28   C     C_R   0.836901 0.578539 0.283105 -0.222287
C29   C     C_3   0.917070 0.620807 0.351996 0.625729
C30   C     C_3   0.857072 0.611139 0.410564 0.554659
C31   C     C_R   0.787125 0.947121 0.714441 -0.005241
C32   C     C_R   0.694347 0.891242 0.682789 -0.300505
C33   C     C_R   0.655752 0.945623 0.692427 0.221069
C34   C     C_R   0.706543 0.053052 0.757130 0.382300
C35   C     C_R   0.800815 0.107850 0.794249 -0.284112
C36   C     C_R   0.838168 0.052106 0.765123 -0.037660
C37   C     C_3   0.910801 0.060890 0.813255 0.827081
C38   C     C_3   0.852198 0.942180 0.759227 0.206118
H6    H     H_    0.821272 0.906390 0.794676 0.001972
C39   C     C_R   0.277979 0.571618 0.343664 -0.095312
C40   C     C_R   0.295473 0.496067 0.308498 -0.118603
C41   C     C_R   0.246546 0.409756 0.221667 -0.302279
H7    H     H_    0.256094 0.348830 0.195896 0.172010
C42   C     C_R   0.186252 0.402102 0.166927 0.471802
C43   C     C_R   0.188997 0.491326 0.195966 -0.116900
C44   C     C_R   0.233306 0.572939 0.284942 -0.038403
C45   C     C_3   0.296961 0.685696 0.329382 0.293306
C46   C     C_3   0.340827 0.687606 0.401068 0.307338
H8    H     H_    0.265481 0.728800 0.353639 0.181234
H9    H     H_    0.412583 0.717938 0.411369 0.183955
C47   C     C_R   0.287095 0.574275 0.733549 -0.066697
C48   C     C_R   0.293828 0.491458 0.685246 -0.188366
C49   C     C_R   0.236423 0.402234 0.682855 0.512411
C50   C     C_R   0.187755 0.406512 0.741956 -0.275841
H10   H     H_    0.146336 0.339163 0.741782 0.170115
C51   C     C_R   0.192901 0.496893 0.800682 -0.069606
C52   C     C_R   0.240061 0.578517 0.792343 -0.029503
C53   C     C_3   0.309552 0.691722 0.858612 0.084440
C54   C     C_3   0.359100 0.686005 0.791566 0.116666
H11   H     H_    0.283556 0.739640 0.873735 0.181167
H12   H     H_    0.425859 0.702246 0.812058 0.140613
Zn5   Zn    Zn3+2 0.042790 0.586680 0.956030 0.990008
Zn6   Zn    Zn3+2 0.043880 0.586640 0.130630 1.011636
Zn7   Zn    Zn3+2 0.043880 0.413140 0.957130 0.951645
Zn8   Zn    Zn3+2 0.869270 0.413190 0.956030 1.024882
O14   O     O_3   0.999960 0.499910 0.999960 -0.522511
O15   O     O_R   0.823040 0.439210 0.054650 -0.660522
O16   O     O_R   0.115380 0.560640 0.883770 -0.636983
O17   O     O_R   0.116150 0.731480 0.176860 -0.658380
O18   O     O_R   0.945260 0.268310 0.884540 -0.622081
O19   O     O_R   0.117230 0.560570 0.177940 -0.621755
O20   O     O_R   0.821960 0.439250 0.882690 -0.590242
O21   O     O_R   0.117230 0.439140 0.056500 -0.644696
O22   O     O_R   0.943400 0.560680 0.882690 -0.671057
O23   O     O_R   0.115380 0.731510 0.054650 -0.580092
O24   O     O_R   0.823040 0.268340 0.883770 -0.636419
O25   O     O_R   0.945260 0.560610 0.176860 -0.599339
O26   O     O_R   0.116150 0.439180 0.884540 -0.670459
C55   C     C_R   0.859714 0.500327 0.139123 0.842879
C56   C     C_R   0.140227 0.499908 0.860009 0.817998
C57   C     C_R   0.139654 0.779908 0.139578 0.831559
C58   C     C_R   0.859339 0.219681 0.857818 0.895468
C59   C     C_R   0.139318 0.497314 0.140577 0.845235
C60   C     C_R   0.858600 0.501675 0.860267 0.931156
O27   O     O_3   0.782590 0.351494 0.661538 -0.607342
C61   C     C_3   0.817695 0.348513 0.593047 0.101178
H13   H     H_    0.852571 0.310371 0.583497 0.171124
H14   H     H_    0.868910 0.425841 0.610419 0.117361
C62   C     C_3   0.742552 0.285171 0.506939 -0.343264
H15   H     H_    0.691128 0.211314 0.496291 0.261571
H16   H     H_    0.711573 0.326246 0.512262 0.219046
C63   C     C_3   0.776061 0.263241 0.427752 -0.944222
H17   H     H_    0.827157 0.335490 0.436034 0.277844
H18   H     H_    0.719871 0.217044 0.366571 0.280225
H19   H     H_    0.805046 0.219637 0.419869 0.267431
O28   O     O_3   0.418109 0.087614 0.404618 -0.584539
C64   C     C_3   0.433327 0.053484 0.321968 0.116867
H20   H     H_    0.450609 0.110642 0.307017 0.177458
H21   H     H_    0.375874 0.977740 0.265925 0.116619
C65   C     C_3   0.512990 0.046913 0.328850 -0.370831
H22   H     H_    0.573064 0.125252 0.376048 0.238747
H23   H     H_    0.503136 0.000353 0.354524 0.248017
C66   C     C_3   0.527180 0.000034 0.239656 -0.854616
H24   H     H_    0.468794 0.919906 0.192161 0.291433
H25   H     H_    0.587371 0.999652 0.247876 0.266484
H26   H     H_    0.536883 0.045429 0.212742 0.287217
N1    N     N_R   0.564240 0.338416 0.165957 0.208006
O29   O     O_R   0.515850 0.315084 0.096230 -0.407101
O30   O     O_R   0.536083 0.271742 0.185184 -0.377614
N2    N     N_R   0.946329 0.551598 0.324216 0.204738
O31   O     O_R   0.030887 0.588470 0.340031 -0.341620
O32   O     O_R   0.888732 0.452778 0.280024 -0.428742
O33   O     O_3   0.990973 0.722981 0.385731 -0.569251
C67   C     C_3   0.969743 0.787528 0.383847 0.202052
H27   H     H_    0.017690 0.866144 0.443652 0.235955
H28   H     H_    0.903080 0.769448 0.388985 0.119482
C68   C     C_3   0.978867 0.787392 0.301198 -0.325450
H29   H     H_    0.039328 0.790335 0.288797 0.293113
H30   H     H_    0.920464 0.716082 0.242639 0.198824
C69   C     C_3   0.985038 0.878394 0.311236 -0.931965
H31   H     H_    0.924655 0.876728 0.323062 0.271491
H32   H     H_    0.990381 0.875061 0.249897 0.269659
H33   H     H_    0.045088 0.951283 0.367246 0.292873
O34   O     O_3   0.829562 0.528140 0.418113 -0.645112
C70   C     C_3   0.873294 0.554782 0.499123 0.117913
H34   H     H_    0.829722 0.489048 0.503047 0.166970
H35   H     H_    0.878363 0.620836 0.557898 0.139840
C71   C     C_3   0.964089 0.569699 0.502249 -0.318889
H36   H     H_    0.959500 0.510585 0.437482 0.282208
H37   H     H_    0.014271 0.646485 0.517416 0.261329
C72   C     C_3   0.994770 0.559323 0.571475 -1.040978
H38   H     H_    0.972810 0.589290 0.628888 0.260022
H39   H     H_    0.068143 0.602051 0.594563 0.296270
H40   H     H_    0.967329 0.477940 0.542575 0.267772
N3    N     N_R   0.885051 0.709266 0.492702 0.151109
O35   O     O_R   0.967620 0.772727 0.543875 -0.427923
O36   O     O_R   0.832627 0.740475 0.508167 -0.352920
N4    N     N_R   0.570114 0.894404 0.631624 0.258313
O37   O     O_R   0.552280 0.830352 0.547747 -0.404387
O38   O     O_R   0.517990 0.925072 0.655393 -0.336374
O39   O     O_3   0.664001 0.103060 0.779692 -0.541227
C73   C     C_3   0.651060 0.125900 0.862432 0.141855
H41   H     H_    0.662905 0.202791 0.899058 0.203725
H42   H     H_    0.698430 0.130281 0.905298 0.088221
C74   C     C_3   0.555659 0.048626 0.850134 -0.327245
H43   H     H_    0.507741 0.043133 0.807041 0.287677
H44   H     H_    0.544690 0.972695 0.818482 0.265137
C75   C     C_3   0.538710 0.079760 0.938524 -0.865388
H45   H     H_    0.585138 0.084876 0.982784 0.263319
H46   H     H_    0.469236 0.021584 0.927269 0.293251
H47   H     H_    0.547799 0.155017 0.971252 0.284465
O40   O     O_3   0.984464 0.100927 0.784972 -0.615591
C76   C     C_3   0.068691 0.148979 0.842377 0.070746
H48   H     H_    0.104445 0.119370 0.801672 0.154863
H49   H     H_    0.065493 0.134865 0.894463 0.166941
C77   C     C_3   0.123213 0.262941 0.882636 -0.239225
H50   H     H_    0.119652 0.274920 0.829789 0.225607
H51   H     H_    0.093180 0.295709 0.928774 0.310238
C78   C     C_3   0.220892 0.316461 0.930979 -0.859220
H52   H     H_    0.226942 0.301983 0.981597 0.278503
H53   H     H_    0.256385 0.400308 0.964199 0.276023
H54   H     H_    0.253199 0.288533 0.883255 0.269132
O41   O     O_3   0.928651 0.119117 0.907188 -0.679413
C79   C     C_3   0.855943 0.076349 0.935730 -0.068583
H55   H     H_    0.865306 0.033447 0.956927 0.161845
H56   H     H_    0.789471 0.022513 0.884127 0.118584
C80   C     C_3   0.852750 0.161588 0.013761 -0.294980
H57   H     H_    0.916718 0.218932 0.068972 0.221489
H58   H     H_    0.840991 0.203077 0.992754 0.199779
C81   C     C_3   0.778416 0.117923 0.048305 -0.919739
H59   H     H_    0.712881 0.061398 0.994835 0.258650
H60   H     H_    0.776124 0.180817 0.102893 0.284406
H61   H     H_    0.790845 0.080021 0.073890 0.268994
O42   O     O_3   0.888827 0.896762 0.698973 -0.533837
C82   C     C_3   0.928221 0.862632 0.729885 0.206221
H62   H     H_    0.895328 0.779690 0.678596 0.184758
H63   H     H_    0.919030 0.869886 0.792274 0.049948
C83   C     C_3   0.028455 0.921541 0.743257 -0.307751
H64   H     H_    0.040985 0.944886 0.696925 0.293278
H65   H     H_    0.063974 0.990533 0.812034 0.159088
C84   C     C_3   0.069243 0.862359 0.730635 -0.887576
H66   H     H_    0.089992 0.874319 0.793944 0.237570
H67   H     H_    0.130176 0.893023 0.712682 0.294730
H68   H     H_    0.022573 0.779483 0.678059 0.274297
O43   O     O_3   0.129959 0.311284 0.084588 -0.637247
C85   C     C_3   0.082524 0.227089 0.091709 0.092102
H69   H     H_    0.013449 0.180659 0.050225 0.221938
H70   H     H_    0.078800 0.248861 0.159173 0.101754
C86   C     C_3   0.117585 0.158818 0.057434 -0.405161
H71   H     H_    0.151262 0.167293 0.009621 0.235601
H72   H     H_    0.166689 0.181829 0.113088 0.192080
C87   C     C_3   0.042531 0.045990 0.013095 -0.939929
H73   H     H_    0.005646 0.036441 0.058939 0.272355
H74   H     H_    0.070426 0.999614 0.994821 0.275530
H75   H     H_    0.995618 0.016849 0.952095 0.254978
O44   O     O_3   0.355121 0.709063 0.282071 -0.641292
C88   C     C_3   0.329294 0.740012 0.236148 0.051218
H76   H     H_    0.378694 0.823305 0.269006 0.156671
H77   H     H_    0.262809 0.727375 0.234985 0.156882
C89   C     C_3   0.328831 0.682704 0.141325 -0.354328
H78   H     H_    0.397880 0.720651 0.139223 0.253479
H79   H     H_    0.303833 0.602697 0.116491 0.235748
C90   C     C_3   0.269091 0.679791 0.080767 -0.769341
H80   H     H_    0.199066 0.638219 0.079115 0.218887
H81   H     H_    0.270570 0.637774 0.013242 0.281280
H82   H     H_    0.292509 0.758618 0.103126 0.264279
O45   O     O_3   0.904266 0.691639 0.858757 -0.608991
C91   C     C_3   0.969556 0.723353 0.820211 0.088432
H83   H     H_    0.012019 0.808211 0.864162 0.193190
H84   H     H_    0.940731 0.702351 0.754402 0.098593
C92   C     C_3   0.028898 0.685069 0.816990 -0.307469
H85   H     H_    0.048885 0.698862 0.881388 0.325442
H86   H     H_    0.991144 0.601595 0.764703 0.198597
C93   C     C_3   0.115551 0.741115 0.801660 -0.848467
H87   H     H_    0.102969 0.735465 0.740029 0.263266
H88   H     H_    0.152253 0.706014 0.796440 0.290747
H89   H     H_    0.158180 0.823197 0.857688 0.294051
O46   O     O_3   0.323478 0.741577 0.478724 -0.627724
C94   C     C_3   0.313252 0.706148 0.532920 0.258918
H90   H     H_    0.338011 0.772964 0.602227 0.224560
H91   H     H_    0.356223 0.679957 0.532869 0.203708
C95   C     C_3   0.214081 0.627447 0.511168 -0.359124
H92   H     H_    0.188237 0.667931 0.558193 0.230616
H93   H     H_    0.174348 0.593395 0.443957 0.259094
C96   C     C_3   0.198972 0.540859 0.516811 -0.884429
H94   H     H_    0.219426 0.495741 0.466016 0.255127
H95   H     H_    0.127078 0.488913 0.504705 0.255039
H96   H     H_    0.237600 0.571770 0.583065 0.306803
O47   O     O_3   0.231990 0.312942 0.628524 -0.602425
C97   C     C_3   0.182556 0.262600 0.539974 0.117120
H97   H     H_    0.209569 0.220981 0.495980 0.178634
H98   H     H_    0.189136 0.315961 0.523236 0.086337
C98   C     C_3   0.084079 0.184449 0.519537 -0.361358
H99   H     H_    0.077713 0.124874 0.526663 0.249811
H100  H     H_    0.057156 0.223120 0.567007 0.218981
C99   C     C_3   0.029085 0.133553 0.425912 -0.955365
H101  H     H_    0.029694 0.191174 0.419593 0.263162
H102  H     H_    0.959041 0.073563 0.411231 0.280472
H103  H     H_    0.056459 0.097464 0.376921 0.266443
N5    N     N_R   0.361895 0.717382 0.937867 0.190969
O48   O     O_R   0.396352 0.807079 0.011197 -0.383751
O49   O     O_R   0.388398 0.660860 0.932389 -0.408853
N6    N     N_R   0.359311 0.739693 0.753519 0.201745
O50   O     O_R   0.426704 0.780179 0.729532 -0.413302
O51   O     O_R   0.290810 0.741525 0.737444 -0.455729
N7    N     N_R   0.665088 0.461215 0.863302 0.244916
O52   O     O_R   0.586611 0.377877 0.833346 -0.296322
O53   O     O_R   0.703099 0.530360 0.948064 -0.374802
N8    N     N_R   0.595123 0.302003 0.649827 0.247595
O54   O     O_R   0.587603 0.236532 0.664617 -0.268504
O55   O     O_R   0.537987 0.269589 0.580956 -0.338146
O56   O     O_3   0.335261 0.105570 0.173253 -0.581830
C100  C     C_3   0.287121 0.112762 0.119608 0.165462
H104  H     H_    0.308076 0.193513 0.156211 0.168389
H105  H     H_    0.213436 0.064439 0.102862 0.128486
C101  C     C_3   0.312112 0.085044 0.034781 -0.240167
H106  H     H_    0.385681 0.131344 0.052334 0.292215
H107  H     H_    0.288439 0.003429 0.995011 0.253132
C102  C     C_3   0.273123 0.103686 0.977718 -0.957994
H108  H     H_    0.199411 0.050977 0.952098 0.259097
H109  H     H_    0.297713 0.088404 0.920307 0.292023
H110  H     H_    0.293958 0.184451 0.016286 0.279834
N9    N     N_R   0.206491 0.896043 0.062312 0.219917
O57   O     O_R   0.255526 0.865776 0.024720 -0.386869
O58   O     O_R   0.137474 0.875152 0.014625 -0.467583
N10   N     N_R   0.204864 0.905116 0.395989 0.224588
O59   O     O_R   0.185127 0.823141 0.389828 -0.317739
O60   O     O_R   0.177926 0.959471 0.448698 -0.419805

loop_
_geom_bond_atom_site_label_1
_geom_bond_atom_site_label_2
_geom_bond_distance
_ccdc_geom_bond_type
C8    C13   1.532665 S    
C82   C83   1.535439 S    
C84   H66   1.103714 S    
C98   H100  1.111140 S    
C21   C22   1.524821 S    
N3    O35   1.299282 A    
C31   C36   1.371131 A    
C11   H2    1.110204 S    
C51   C56   1.456624 S    
C47   C48   1.393559 A    
C100  H104  1.111094 S    
Zn8   O14   1.960298 S    
C37   O40   1.424873 S    
C25   N1    1.432546 S    
N1    O29   1.301071 A    
C63   H17   1.107461 S    
C35   C36   1.388617 A    
O47   C97   1.417560 S    
C26   C27   1.400185 A    
C38   O42   1.414561 S    
C31   C32   1.395179 A    
C61   H13   1.110923 S    
C102  H110  1.110604 S    
C84   H67   1.110372 S    
C34   O39   1.388665 S    
C39   C46   1.517879 S    
C19   C57   1.469159 S    
C46   O46   1.424575 S    
Zn1   O1    1.963203 S    
Zn5   O23   1.955714 S    
C10   C11   1.550703 S    
C70   H35   1.108986 S    
C18   C19   1.423232 A    
C50   C51   1.406756 A    
C15   C16   1.388372 A    
C11   C14   1.555691 S    
C83   C84   1.521958 S    
C27   C55   1.449166 S    
C12   C13   1.526497 S    
O40   C76   1.410238 S    
C68   C69   1.524878 S    
Zn7   O14   1.945056 S    
C33   C34   1.419551 A    
C96   H96   1.107462 S    
C75   H45   1.110580 S    
C82   H62   1.109383 S    
N8    O54   1.300466 A    
Zn8   O20   1.959693 S    
O8    C5    1.286654 A    
C90   H82   1.110484 S    
C29   C30   1.550176 S    
C95   H92   1.108165 S    
O9    C6    1.283702 A    
C91   C92   1.537376 S    
C45   H8    1.115489 S    
C94   H90   1.110164 S    
Zn5   O22   1.958471 S    
C17   O56   1.390305 S    
O7    C6    1.284842 A    
C80   H58   1.106160 S    
O28   C64   1.420854 S    
O16   C56   1.280622 A    
Zn3   O8    1.950930 S    
O21   C59   1.278585 A    
C70   H34   1.109464 S    
O19   C59   1.280486 A    
C5    C40   1.430972 S    
C25   C26   1.399346 A    
Zn6   O19   1.951178 S    
Zn7   O18   1.954386 S    
O39   C73   1.423681 S    
C61   H14   1.106709 S    
C85   H69   1.090320 S    
C101  C102  1.523307 S    
C83   H64   1.111300 S    
C66   H26   1.110990 S    
O27   C61   1.407606 S    
Zn3   O13   1.948672 S    
O56   C100  1.415681 S    
C81   H59   1.110748 S    
C22   O28   1.430813 S    
C72   H39   1.103919 S    
Zn7   O26   1.946046 S    
C92   H85   1.103652 S    
C45   O44   1.414599 S    
C101  H106  1.108385 S    
C26   H5    1.083851 S    
Zn8   O24   1.946944 S    
C23   C30   1.509505 S    
N10   O60   1.301634 A    
C96   H95   1.110609 S    
C42   C43   1.414454 A    
C98   C99   1.526285 S    
C37   C38   1.552484 S    
N3    O36   1.301271 A    
C9    C12   1.527088 S    
C54   N6    1.462824 S    
C22   H4    1.110942 S    
C69   H33   1.110053 S    
C73   H41   1.111525 S    
C80   H57   1.107064 S    
C15   C22   1.504932 S    
Zn5   O16   1.936865 S    
C67   C68   1.534195 S    
C49   O47   1.384942 S    
C47   C54   1.491500 S    
C54   H12   1.113976 S    
C31   C38   1.506604 S    
C77   H50   1.109138 S    
C76   C77   1.517822 S    
C4    C24   1.462297 S    
C78   H53   1.110625 S    
C65   C66   1.525714 S    
Zn6   O17   1.948630 S    
O2    C1    1.281433 A    
C84   H68   1.107928 S    
C69   H31   1.110736 S    
C48   C49   1.418164 A    
C85   H70   1.116963 S    
O43   C85   1.425133 S    
C77   C78   1.527015 S    
C81   H61   1.110748 S    
O10   C3    1.282112 A    
O33   C67   1.425619 S    
C100  C101  1.535304 S    
C53   N5    1.462338 S    
C7    C8    1.561600 S    
C10   O45   1.416499 S    
C74   H44   1.108340 S    
C93   H87   1.102583 S    
C18   N9    1.426441 S    
C88   H76   1.108747 S    
C1    C32   1.463360 S    
C51   C52   1.400281 A    
C53   C54   1.525931 S    
N5    O49   1.302808 A    
C9    C60   1.474319 S    
C28   C29   1.499770 S    
C102  H108  1.108059 S    
C78   H52   1.108878 S    
C12   N7    1.457424 S    
C21   N10   1.463101 S    
N2    O32   1.303123 A    
O6    C5    1.267207 A    
C15   C20   1.389589 A    
C38   H6    1.113950 S    
Zn4   O7    1.959693 S    
C16   C17   1.415071 A    
N4    O38   1.299501 A    
C80   C81   1.526204 S    
C99   H102  1.110482 S    
C49   C50   1.404198 A    
C7    C14   1.561265 S    
C86   H71   1.107163 S    
C11   C12   1.544689 S    
Zn6   O25   1.938410 S    
N2    O31   1.301717 A    
C88   H77   1.113952 S    
C92   H86   1.110580 S    
C92   C93   1.525214 S    
C77   H51   1.095587 S    
C13   C14   1.544619 S    
O11   C4    1.301269 A    
C68   H29   1.106353 S    
C70   C71   1.534343 S    
C39   C40   1.404239 A    
O26   C56   1.286284 A    
C90   H80   1.109560 S    
C47   C52   1.380401 A    
C3    C48   1.455600 S    
C62   H16   1.111287 S    
O12   C1    1.280765 A    
O4    C3    1.281598 A    
C50   H10   1.081761 S    
C72   H40   1.107701 S    
C91   H84   1.110237 S    
Zn3   O5    1.938455 S    
N6    O51   1.301794 A    
C75   H47   1.110947 S    
O23   C57   1.291119 A    
C64   H21   1.108200 S    
C79   H55   1.110874 S    
C97   C98   1.531647 S    
C74   C75   1.527369 S    
C67   H28   1.109475 S    
C33   N4    1.441910 S    
C86   H72   1.107738 S    
N7    O53   1.300322 A    
C82   H63   1.114923 S    
C27   C28   1.387706 A    
C76   H49   1.107787 S    
O3    C2    1.298730 A    
Zn8   O15   1.946984 S    
C13   N8    1.459402 S    
C66   H24   1.110248 S    
C101  H107  1.108086 S    
C52   C53   1.510531 S    
Zn4   O2    1.946839 S    
Zn1   O9    1.958222 S    
C34   C35   1.429328 A    
C79   H56   1.109981 S    
C98   H99   1.111860 S    
Zn2   O6    1.967014 S    
C20   C21   1.508207 S    
C69   H32   1.110503 S    
Zn2   O12   1.954431 S    
C23   C24   1.396537 A    
C8    O27   1.414917 S    
C97   H98   1.116922 S    
O34   C70   1.412299 S    
N6    O50   1.299737 A    
C64   C65   1.523609 S    
C23   C28   1.379813 A    
C30   N3    1.472265 S    
N8    O55   1.298809 A    
C35   C58   1.469367 S    
O22   C60   1.279638 A    
C32   C33   1.423130 A    
O20   C60   1.282339 A    
C30   O34   1.427790 S    
C78   H54   1.110674 S    
C62   H15   1.110500 S    
O15   C55   1.285586 A    
C89   H79   1.111325 S    
Zn1   O3    1.955758 S    
Zn2   O1    1.945201 S    
C44   C45   1.494218 S    
C73   C74   1.528665 S    
Zn2   O4    1.945796 S    
C7    C10   1.554784 S    
O17   C57   1.295288 A    
O42   C82   1.421736 S    
Zn3   O1    1.977035 S    
C87   H75   1.109908 S    
C89   C90   1.520774 S    
N9    O57   1.300933 A    
C63   H18   1.109587 S    
C29   N2    1.471743 S    
C61   C62   1.529484 S    
C65   H22   1.105354 S    
N5    O48   1.300214 A    
C43   C44   1.394883 A    
C74   H43   1.111199 S    
C102  H109  1.110412 S    
O41   C79   1.428896 S    
O45   C91   1.413031 S    
C95   C96   1.526509 S    
C39   C44   1.370223 A    
C94   C95   1.537783 S    
N10   O59   1.300078 A    
C100  H105  1.113366 S    
Zn4   O11   1.947030 S    
C73   H42   1.114367 S    
C99   H101  1.111179 S    
C36   C37   1.485804 S    
C87   H74   1.109151 S    
C91   H83   1.108680 S    
N9    O58   1.299338 A    
C76   H48   1.107284 S    
C2    C16   1.458370 S    
C6    C14   1.485998 S    
C88   C89   1.525586 S    
C42   O43   1.387724 S    
C68   H30   1.108496 S    
C7    H1    1.106112 S    
O5    C4    1.284060 A    
O44   C88   1.412998 S    
C19   C20   1.403088 A    
Zn5   O14   1.963203 S    
C29   O33   1.434931 S    
C17   C18   1.408466 A    
C79   C80   1.536888 S    
C85   C86   1.537912 S    
O24   C58   1.270170 A    
C87   H73   1.110779 S    
C41   H7    1.077364 S    
C21   H3    1.107658 S    
O46   C94   1.408324 S    
C90   H81   1.100876 S    
C53   H11   1.110997 S    
C93   H88   1.108185 S    
C37   O41   1.436972 S    
C62   C63   1.527308 S    
C71   H37   1.110403 S    
Zn6   O14   1.976882 S    
C71   C72   1.523902 S    
C45   C46   1.520106 S    
N4    O37   1.301078 A    
C63   H19   1.110712 S    
Zn7   O21   1.966968 S    
O18   C58   1.294746 A    
C40   C41   1.395210 A    
C99   H103  1.110712 S    
O13   C2    1.282131 A    
C24   C25   1.426976 A    
Zn4   O1    1.960298 S    
C86   C87   1.529548 S    
C43   C59   1.441919 S    
N7    O52   1.300000 A    
C95   H93   1.110794 S    
C83   H65   1.105144 S    
C64   H20   1.110178 S    
C9    C10   1.539766 S    
C66   H25   1.110288 S    
C71   H36   1.108596 S    
C67   H27   1.109051 S    
C46   H9    1.111008 S    
Zn1   O10   1.936762 S    
C75   H46   1.110709 S    
C94   H91   1.099739 S    
C72   H38   1.105995 S    
C65   H23   1.110859 S    
C89   H78   1.111656 S    
O25   C55   1.292950 A    
C93   H89   1.109610 S    
C96   H94   1.110146 S    
C41   C42   1.395785 A    
C97   H97   1.111563 S    
N1    O30   1.301453 A    
C8    C9    1.537244 S    
C81   H60   1.110614 S    
