data_mof_unit_32836.cif
_audit_creation_date              2012-12-11T14:15:36-0500
_audit_creation_method            fapswitch 2.2
_symmetry_space_group_name_H-M    P1
_symmetry_Int_Tables_number       1
_space_group_crystal_system       triclinic
_cell_length_a                    11.173005
_cell_length_b                    12.709033
_cell_length_c                    23.582197
_cell_angle_alpha                 90.443147
_cell_angle_beta                  96.60961
_cell_angle_gamma                 68.478469
_cell_volume                      3092.29866005

loop_
_atom_site_label
_atom_site_type_symbol
_atom_type_description
_atom_site_fract_x
_atom_site_fract_y
_atom_site_fract_z
_atom_type_partial_charge
C1    C     C_R   0.149192 0.616916 0.428815 0.549357
C2    C     C_R   0.599630 0.601661 0.320370 -0.120531
C3    C     C_R   0.725966 0.722460 0.319747 -0.114198
C4    C     C_R   0.693503 0.741115 0.261335 0.022169
C5    C     C_R   0.613118 0.689543 0.232753 0.037201
C6    C     C_R   0.586034 0.702130 0.174562 -0.128149
C7    C     C_R   0.718477 0.816970 0.171190 0.074638
C8    C     C_R   0.745242 0.805227 0.230647 -0.110435
C9    C     C_1   0.237226 0.160327 0.123349 0.033416
C10   C     C_2   0.190328 0.226864 0.228063 0.101667
C11   C     C_2   0.151720 0.165162 0.263194 0.102607
C12   C     C_R   0.748182 0.605535 0.405021 0.546917
C13   C     C_1   0.131473 0.197907 0.321212 0.026844
C14   C     C_1   0.214837 0.193284 0.170550 0.032785
C15   C     C_1   0.116369 0.231128 0.368941 0.026534
C16   C     C_1   0.168005 0.749574 0.123713 0.038751
C17   C     C_2   0.145332 0.684430 0.227379 -0.078549
C18   C     C_2   0.226517 0.691678 0.272510 -0.098359
C19   C     C_1   0.212641 0.660136 0.329495 -0.016321
C20   C     C_1   0.156373 0.719253 0.170564 0.003527
C21   C     C_1   0.192323 0.637281 0.376228 0.017792
C22   C     C_1   0.626281 0.755720 0.864514 0.032163
C23   C     C_R   0.101349 0.282062 0.423555 0.550969
C24   C     C_2   0.698449 0.704510 0.761451 -0.113219
C25   C     C_2   0.610363 0.704393 0.717740 -0.123910
C26   C     C_1   0.649898 0.670086 0.662172 -0.046819
C27   C     C_1   0.661372 0.733810 0.817830 -0.013428
C28   C     C_1   0.689683 0.639970 0.616979 -0.003435
C29   C     C_R   0.195650 0.179016 0.854379 0.016696
C30   C     C_R   0.104989 0.239830 0.642936 0.022442
C31   C     C_R   0.043202 0.137942 0.712734 -0.127374
C32   C     C_R   0.041517 0.168050 0.655872 -0.131155
C33   C     C_R   0.163628 0.286571 0.686335 -0.113353
C34   C     C_R   0.146905 0.615146 0.591748 0.541059
C35   C     C_R   0.165227 0.257922 0.742754 0.042678
C36   C     C_R   0.106659 0.181313 0.756237 0.042441
C37   C     C_R   0.119563 0.144448 0.812608 -0.119740
C38   C     C_R   0.246368 0.260363 0.841432 -0.118680
C39   C     C_R   0.229559 0.301108 0.785647 -0.127201
C40   C     C_R   0.124859 0.744081 0.853818 0.016536
C41   C     C_R   0.177552 0.631082 0.651876 0.014975
C42   C     C_R   0.309886 0.572057 0.742811 -0.146314
C43   C     C_R   0.294347 0.563678 0.683608 -0.145613
C44   C     C_R   0.076296 0.704691 0.679486 -0.119329
C45   C     C_R   0.749887 0.602233 0.566051 0.542962
C46   C     C_R   0.089688 0.711408 0.737891 0.013902
C47   C     C_R   0.207552 0.645972 0.770033 0.033228
C48   C     C_R   0.222944 0.660318 0.828316 -0.150799
C49   C     C_R   0.002425 0.801152 0.822150 0.079653
C50   C     C_R   0.986383 0.784194 0.764188 -0.135100
C51   C     C_R   0.265888 0.109740 0.069445 0.542078
C52   C     C_R   0.595516 0.776362 0.082241 0.563603
C53   C     C_R   0.189847 0.787892 0.069903 0.554334
C54   C     C_R   0.240957 0.114665 0.907817 0.536988
C55   C     C_R   0.573088 0.776521 0.917947 0.556337
C56   C     C_R   0.099483 0.280261 0.585417 0.537953
C57   C     C_R   0.163177 0.785891 0.907760 0.557439
C58   C     C_R   0.639696 0.763302 0.143015 0.024748
C59   C     C_R   0.684298 0.648271 0.348679 0.017680
C60   C     C_R   0.563651 0.622693 0.262319 -0.130047
Cr1   Cr    Cr6+3 0.189770 0.415650 0.511620 1.041587
Cr2   Cr    Cr6+3 0.930400 0.667320 0.496770 1.027992
Cr3   Cr    Cr6+3 0.879870 0.417010 0.491650 1.041626
Cr4   Cr    Cr6+3 0.149500 0.973980 0.985330 1.082981
Cr5   Cr    Cr6+3 0.457000 0.976510 0.994660 1.089844
Cr6   Cr    Cr6+3 0.411170 0.724270 0.995270 1.030128
H1    H     H_    0.520604 0.664122 0.153914 0.144587
H2    H     H_    0.068990 0.653024 0.232912 0.160747
H3    H     H_    0.508868 0.728316 0.723689 0.140665
H4    H     H_    0.800040 0.678669 0.755494 0.142905
H5    H     H_    0.081125 0.080875 0.822910 0.141840
H6    H     H_    0.304481 0.287663 0.873877 0.132830
H7    H     H_    0.997303 0.079666 0.722633 0.123240
H8    H     H_    0.273235 0.360930 0.775578 0.116439
H9    H     H_    0.992407 0.134896 0.622201 0.120936
H10   H     H_    0.207828 0.346143 0.676131 0.130112
H11   H     H_    0.316218 0.613849 0.852464 0.135981
H12   H     H_    0.401050 0.521098 0.767182 0.114797
H13   H     H_    0.894529 0.831612 0.739219 0.128419
H14   H     H_    0.371984 0.504375 0.662834 0.129513
H15   H     H_    0.983744 0.754923 0.655779 0.136556
H16   H     H_    0.502196 0.582568 0.240133 0.125871
H17   H     H_    0.807876 0.844375 0.252657 0.143601
H18   H     H_    0.566782 0.544766 0.342481 0.145953
H19   H     H_    0.792305 0.758222 0.341565 0.137918
H20   H     H_    0.300122 0.726277 0.267176 0.148296
O1    O     O_R   0.196340 0.303200 0.448500 -0.495760
O2    O     O_R   0.811960 0.658090 0.547150 -0.499739
O3    O     O_R   0.757930 0.506140 0.547110 -0.505164
O4    O     O_R   0.988670 0.321620 0.556040 -0.498587
O5    O     O_3   0.000020 0.499990 0.500010 -0.254859
O6    O     O_R   0.113660 0.883270 0.047820 -0.467595
O7    O     O_R   0.186930 0.068530 0.043990 -0.488802
O8    O     O_R   0.377770 0.089040 0.054220 -0.493565
O9    O     O_R   0.562800 0.872960 0.056970 -0.465923
O10   O     O_R   0.555390 0.700940 0.062700 -0.524069
O11   O     O_R   0.295020 0.731920 0.049950 -0.511732
O12   O     O_R   0.199310 0.519670 0.454880 -0.484807
O13   O     O_R   0.094290 0.884230 0.921550 -0.473876
O14   O     O_R   0.168980 0.069410 0.926940 -0.502557
O15   O     O_R   0.358400 0.089990 0.927950 -0.504603
O16   O     O_R   0.544850 0.873850 0.939920 -0.470396
O17   O     O_R   0.536020 0.701900 0.936430 -0.515611
O18   O     O_R   0.277070 0.732810 0.932890 -0.516010
O19   O     O_3   0.339220 0.891590 0.991750 -0.271758
O20   O     O_R   0.045660 0.691380 0.441680 -0.510102
O21   O     O_R   0.811930 0.659460 0.430950 -0.508026
O22   O     O_R   0.757900 0.507620 0.421760 -0.508488
O23   O     O_R   0.988630 0.322990 0.439840 -0.491888
O24   O     O_R   0.196380 0.301720 0.573850 -0.518349
O25   O     O_R   0.199350 0.518300 0.571080 -0.504792
O26   O     O_R   0.045700 0.689900 0.567030 -0.522358
I1    I     I_    0.802313 0.912868 0.127566 -0.288361
I2    I     I_    0.837829 0.919869 0.855363 -0.364882
I3    I     I_    0.118979 0.016801 0.236877 -0.370683
I4    I     I_    0.225518 0.373841 0.254844 -0.405033

loop_
_geom_bond_atom_site_label_1
_geom_bond_atom_site_label_2
_ccdc_geom_bond_type
C1    C21   S    
C3    H19   S    
C8    H17   S    
C34   O26   A    
C6    C58   A    
C54   O15   A    
C2    H18   S    
C35   C36   A    
C9    C51   S    
C24   C27   S    
Cr5   O15   S    
C4    C8    A    
C50   H13   S    
C32   H9    S    
C24   H4    S    
C7    C8    A    
C55   O16   A    
C18   H20   S    
Cr6   O11   S    
C36   C37   A    
C19   C21   T    
Cr4   O7    S    
C5    C6    A    
C2    C60   A    
C31   H7    S    
C29   C54   S    
C40   C49   A    
C57   O13   A    
C55   O17   A    
C17   C20   S    
C52   O9    A    
C18   C19   S    
C39   H8    S    
Cr5   O19   S    
C16   C53   S    
Cr1   O1    S    
C12   C59   S    
C60   H16   S    
Cr4   O13   S    
Cr1   O12   S    
C29   C38   A    
C40   C57   S    
C11   I3    S    
C7    C58   A    
C30   C33   A    
C1    O20   A    
C15   C23   S    
C49   I2    S    
C23   O1    A    
C34   O25   A    
C41   C43   A    
C54   O14   A    
C34   C41   S    
Cr5   O16   S    
Cr1   O24   S    
C56   O24   A    
C44   C46   A    
C23   O23   A    
C38   H6    S    
C28   C45   S    
Cr6   O18   S    
Cr4   O19   S    
C45   O2    A    
C24   C25   D    
C44   H15   S    
C10   C14   S    
C12   O22   A    
C2    C59   A    
Cr2   O21   S    
C53   O11   A    
C43   H14   S    
Cr2   O2    S    
C48   H11   S    
Cr3   O23   S    
C35   C39   A    
C9    C14   T    
C33   H10   S    
C47   C48   A    
Cr4   O14   S    
C16   C20   T    
Cr2   O5    S    
Cr3   O3    S    
C53   O6    A    
C17   C18   D    
C52   C58   S    
C51   O7    A    
Cr5   O8    S    
C42   H12   S    
C22   C27   T    
C37   H5    S    
C41   C44   A    
C25   H3    S    
C42   C43   A    
Cr4   O6    S    
Cr6   O19   S    
C29   C37   A    
C3    C4    A    
Cr1   O25   S    
C10   I4    S    
Cr6   O10   S    
C40   C48   A    
C57   O18   A    
C46   C47   A    
C6    H1    S    
C17   H2    S    
C45   O3    A    
C5    C60   A    
Cr6   O17   S    
C31   C32   A    
C4    C5    A    
C1    O12   A    
C12   O21   A    
C22   C55   S    
Cr2   O20   S    
C46   C50   A    
C26   C28   T    
C7    I1    S    
C13   C15   T    
C25   C26   S    
C30   C32   A    
C11   C13   S    
C38   C39   A    
C30   C56   S    
Cr3   O4    S    
C56   O4    A    
C33   C35   A    
C52   O10   A    
C42   C47   A    
C10   C11   D    
C51   O8    A    
Cr5   O9    S    
Cr2   O26   S    
C49   C50   A    
Cr3   O5    S    
C31   C36   A    
Cr3   O22   S    
Cr1   O5    S    
C3    C59   A    
