data_mof_unit_44808.cif
_audit_creation_date              2012-12-11T16:32:21-0500
_audit_creation_method            fapswitch 2.2
_symmetry_space_group_name_H-M    P1
_symmetry_Int_Tables_number       1
_space_group_crystal_system       triclinic
_cell_length_a                    6.93705
_cell_length_b                    14.478788
_cell_length_c                    15.842773
_cell_angle_alpha                 90.082424
_cell_angle_beta                  89.868849
_cell_angle_gamma                 90.057849
_cell_volume                      1591.24270779

loop_
_atom_site_label
_atom_site_type_symbol
_atom_type_description
_atom_site_fract_x
_atom_site_fract_y
_atom_site_fract_z
_atom_type_partial_charge
O1    O     O_R   0.361630 0.167340 0.164570 -0.539939
O2    O     O_R   0.638370 0.832660 0.835430 -0.539939
O3    O     O_R   0.690860 0.157560 0.338690 -0.535554
O4    O     O_R   0.309140 0.842440 0.661310 -0.535554
O5    O     O_R   0.861260 0.336420 0.339380 -0.539053
O6    O     O_R   0.138740 0.663580 0.660620 -0.539053
C1    C     C_R   0.521811 0.135027 0.368151 0.712762
C2    C     C_R   0.478189 0.864973 0.631849 0.712763
O7    O     O_R   0.691330 0.156310 0.165190 -0.539418
O8    O     O_R   0.308670 0.843690 0.834810 -0.539418
O9    O     O_R   0.861730 0.335160 0.164640 -0.539384
O10   O     O_R   0.138270 0.664840 0.835360 -0.539384
C3    C     C_R   0.522586 0.134118 0.136455 0.692761
C4    C     C_R   0.477413 0.865882 0.863545 0.692760
O11   O     O_R   0.361150 0.168600 0.339320 -0.537308
O12   O     O_R   0.638850 0.831400 0.660680 -0.537308
O13   O     O_3   0.527950 0.310560 0.252000 -0.368327
O14   O     O_3   0.472050 0.689440 0.748000 -0.368327
V1    V     V_3+5 0.802770 0.240990 0.251980 1.439779
V2    V     V_3+5 0.197230 0.759010 0.748020 1.439779
O15   O     O_R   0.191450 0.346190 0.165260 -0.540032
O16   O     O_R   0.808550 0.653810 0.834740 -0.540032
C5    C     C_R   0.022848 0.367821 0.136496 0.694567
C6    C     C_R   0.977152 0.632179 0.863504 0.694567
O17   O     O_R   0.190980 0.347440 0.338770 -0.538645
O18   O     O_R   0.809020 0.652560 0.661230 -0.538645
C7    C     C_R   0.021927 0.369356 0.367822 0.690890
C8    C     C_R   0.978073 0.630644 0.632178 0.690891
V3    V     V_3+5 0.302780 0.262760 0.251980 1.436076
V4    V     V_3+5 0.697220 0.737240 0.748020 1.436076
O19   O     O_3   0.027730 0.193200 0.251960 -0.367708
O20   O     O_3   0.972270 0.806800 0.748040 -0.367708
C9    C     C_3   0.825957 0.461698 0.488157 -0.087608
C10   C     C_3   0.174043 0.538302 0.511842 -0.087607
C11   C     C_3   0.942970 0.457664 0.571240 -0.149420
C12   C     C_3   0.057030 0.542336 0.428760 -0.149420
H1    H     H_    0.896189 0.423137 0.630377 0.113290
H2    H     H_    0.103811 0.576863 0.369623 0.113290
H3    H     H_    0.682009 0.429952 0.478119 0.133378
H4    H     H_    0.317991 0.570048 0.521881 0.133378
C13   C     C_3   0.989427 0.561039 0.561993 -0.014782
C14   C     C_3   0.010573 0.438961 0.438007 -0.014782
C15   C     C_3   0.872480 0.565887 0.479714 -0.158856
C16   C     C_3   0.127520 0.434113 0.520286 -0.158856
H5    H     H_    0.765564 0.619810 0.463715 0.151704
H6    H     H_    0.234435 0.380190 0.536285 0.151704
H7    H     H_    0.185738 0.331524 0.753659 0.123947
H8    H     H_    0.814262 0.668476 0.246340 0.123947
C17   C     C_R   0.880132 0.683402 0.034534 -0.153319
C18   C     C_R   0.119868 0.316598 0.965466 -0.153319
C19   C     C_R   0.835364 0.710309 0.116770 -0.109298
C20   C     C_R   0.164636 0.289691 0.883230 -0.109299
C21   C     C_R   0.848557 0.647186 0.182514 -0.131512
C22   C     C_R   0.151443 0.352814 0.817486 -0.131512
C23   C     C_R   0.906661 0.556700 0.166489 -0.143630
C24   C     C_R   0.093339 0.443300 0.833511 -0.143630
C25   C     C_R   0.952368 0.527303 0.083539 0.069676
C26   C     C_R   0.047631 0.472697 0.916461 0.069676
C27   C     C_R   0.939008 0.591851 0.016319 0.056580
C28   C     C_R   0.060992 0.408148 0.983681 0.056580
C29   C     C_R   0.013167 0.435597 0.067049 -0.182378
C30   C     C_R   0.986833 0.564403 0.932951 -0.182377
H9    H     H_    0.868973 0.735280 0.985697 0.113044
H10   H     H_    0.131027 0.264720 0.014303 0.113044
H11   H     H_    0.791095 0.780644 0.129574 0.139437
H12   H     H_    0.208905 0.219356 0.870426 0.139437
H13   H     H_    0.916325 0.510396 0.219854 0.096006
H14   H     H_    0.083675 0.489604 0.780145 0.096006
C31   C     C_3   0.396936 0.971674 0.432744 -0.197845
C32   C     C_3   0.603064 0.028326 0.567256 -0.197845
C33   C     C_3   0.570386 0.920583 0.472130 0.056706
C34   C     C_3   0.429614 0.079417 0.527869 0.056706
H15   H     H_    0.312408 0.947531 0.377538 0.131249
H16   H     H_    0.687592 0.052469 0.622462 0.131249
C35   C     C_3   0.488974 0.936569 0.561452 -0.106052
C36   C     C_3   0.511026 0.063431 0.438548 -0.106052
C37   C     C_3   0.314353 0.988099 0.523034 -0.133648
C38   C     C_3   0.685647 0.011901 0.476965 -0.133648
H17   H     H_    0.161240 0.979062 0.541858 0.148980
H18   H     H_    0.838760 0.020938 0.458142 0.148979
H19   H     H_    0.315990 0.833238 0.247117 0.134207
H20   H     H_    0.684009 0.166762 0.752883 0.134207
C39   C     C_R   0.619193 0.183260 0.964650 -0.152308
C40   C     C_R   0.380807 0.816740 0.035349 -0.152308
C41   C     C_R   0.663647 0.209506 0.882275 -0.113688
C42   C     C_R   0.336353 0.790494 0.117725 -0.113688
C43   C     C_R   0.650281 0.145828 0.816813 -0.125529
C44   C     C_R   0.349719 0.854171 0.183187 -0.125528
C45   C     C_R   0.592729 0.055329 0.833247 -0.137780
C46   C     C_R   0.407271 0.944671 0.166753 -0.137780
C47   C     C_R   0.547445 0.026498 0.916311 0.069489
C48   C     C_R   0.452555 0.973502 0.083688 0.069489
C49   C     C_R   0.560527 0.091824 0.983346 0.056667
C50   C     C_R   0.439473 0.908176 0.016654 0.056667
C51   C     C_R   0.487242 0.934662 0.933015 -0.181643
C52   C     C_R   0.512758 0.065338 0.066985 -0.181643
H21   H     H_    0.630352 0.235593 0.013224 0.112992
H22   H     H_    0.369648 0.764406 0.986776 0.112992
H23   H     H_    0.707698 0.279806 0.869134 0.136906
H24   H     H_    0.292302 0.720194 0.130865 0.136906
H25   H     H_    0.583027 0.008546 0.780110 0.094246
H26   H     H_    0.416973 0.991454 0.219890 0.094246
C53   C     C_2   0.648480 0.831441 0.438817 0.697631
O21   O     O_2   0.542988 0.764028 0.433908 -0.585809
O22   O     O_R   0.840788 0.826179 0.412838 -0.673075
H27   H     H_    0.876478 0.762822 0.390505 0.280575
C54   C     C_2   0.351520 0.168559 0.561183 0.697631
O23   O     O_2   0.457012 0.235972 0.566092 -0.585809
O24   O     O_R   0.159212 0.173821 0.587162 -0.673075
H28   H     H_    0.123522 0.237178 0.609495 0.280575

loop_
_geom_bond_atom_site_label_1
_geom_bond_atom_site_label_2
_ccdc_geom_bond_type
C26   C30   A    
V4    O20   S    
C41   C43   A    
C17   H9    S    
C32   C38   S    
O13   V3    S    
C12   C14   S    
O4    C2    A    
V1    O19   S    
O9    V1    S    
C9    H3    S    
C10   H4    S    
C9    C14   S    
C11   H1    S    
C36   C38   S    
O3    C1    A    
C9    C11   S    
C38   H18   S    
C25   C27   A    
O12   V4    S    
H20   C43   S    
C39   C49   A    
C8    C13   S    
C48   C52   A    
C42   C44   A    
C31   C36   S    
C19   H11   S    
C31   C33   S    
O7    C3    A    
C46   H26   S    
C1    O11   A    
O5    C7    A    
C31   C37   S    
O7    V1    S    
O6    C8    A    
C16   H6    S    
C17   C19   A    
C32   H16   S    
C18   C20   A    
C54   O23   D    
O3    V1    S    
O14   V4    S    
C45   C47   A    
C42   H24   S    
C10   C12   S    
C34   C36   S    
C37   H17   S    
C2    O12   A    
C13   C15   S    
C10   C13   S    
C14   C16   S    
C11   C13   S    
O1    V3    S    
C20   C22   A    
O11   V3    S    
C21   C23   A    
O17   V3    S    
H8    C21   S    
C22   C24   A    
C3    C52   S    
C9    C15   S    
C10   C16   S    
O8    C4    A    
O8    V2    S    
C18   H10   S    
C24   H14   S    
O15   V3    S    
C2    C35   S    
C28   C29   A    
C19   C21   A    
C34   C37   S    
C41   H23   S    
C47   C49   A    
C35   C37   S    
C46   C48   A    
C34   C54   S    
O10   V2    S    
C48   C50   A    
C53   O22   S    
C40   C50   A    
C31   H15   S    
C11   C16   S    
C15   H5    S    
H7    C22   S    
C39   C41   A    
C44   C46   A    
O18   V4    S    
C49   C52   A    
O15   C5    A    
O16   C6    A    
O1    C3    A    
C12   H2    S    
C4    C51   S    
C32   C35   S    
C20   H12   S    
V2    O20   S    
C33   C53   S    
C27   C30   A    
C6    C30   S    
O16   V4    S    
C45   H25   S    
C40   C42   A    
C23   H13   S    
C25   C29   A    
C1    C36   S    
O5    V1    S    
O17   C7    A    
O6    V2    S    
O22   H27   S    
O10   C6    A    
O18   C8    A    
C17   C27   A    
O2    V4    S    
C40   H22   S    
C23   C25   A    
C18   C28   A    
V3    O19   S    
O24   H28   S    
C33   C35   S    
C7    C14   S    
C54   O24   S    
O9    C5    A    
O13   V1    S    
C24   C26   A    
O14   V2    S    
C50   C51   A    
O2    C4    A    
H19   C44   S    
C47   C51   A    
O4    V2    S    
C5    C29   S    
C39   H21   S    
C53   O21   D    
C43   C45   A    
C12   C15   S    
C32   C34   S    
C26   C28   A    
C33   C38   S    
