data_mof_unit_15524.cif
_audit_creation_date              2012-12-10T17:44:32-0500
_audit_creation_method            fapswitch 2.2
_symmetry_space_group_name_H-M    P1
_symmetry_Int_Tables_number       1
_space_group_crystal_system       triclinic
_cell_length_a                    9.929568
_cell_length_b                    10.630916
_cell_length_c                    15.544116
_cell_angle_alpha                 91.945732
_cell_angle_beta                  68.25841
_cell_angle_gamma                 89.831577
_cell_volume                      1523.02848333

loop_
_atom_site_label
_atom_site_type_symbol
_atom_type_description
_atom_site_fract_x
_atom_site_fract_y
_atom_site_fract_z
_atom_type_partial_charge
C1    C     C_R   0.500744 0.739088 0.498369 0.861542
C2    C     C_R   0.405892 0.552023 0.916384 0.110631
C3    C     C_R   0.261360 0.518925 0.969786 0.173721
C4    C     C_R   0.505335 0.579574 0.960413 0.049214
C5    C     C_R   0.465206 0.553151 0.054994 0.067584
C6    C     C_R   0.318288 0.526736 0.107461 -0.225269
C7    C     C_R   0.217744 0.511951 0.065428 -0.243421
C8    C     C_R   0.643134 0.631898 0.913223 -0.275646
C9    C     C_R   0.743589 0.648060 0.955941 -0.015912
C10   C     C_R   0.710795 0.607367 0.046318 0.110391
C11   C     C_R   0.572655 0.555861 0.094613 0.075895
C12   C     C_R   0.409399 0.502289 0.675680 0.864559
C13   C     C_R   0.812221 0.617286 0.090243 -0.216151
C14   C     C_R   0.777730 0.576495 0.179889 -0.206659
C15   C     C_R   0.546534 0.505337 0.180862 -0.251966
C16   C     C_R   0.490621 0.861658 0.337572 -0.163631
C17   C     C_R   0.485907 0.923949 0.261226 -0.124105
C18   C     C_R   0.486683 0.054831 0.261473 -0.141357
C19   C     C_R   0.492299 0.123729 0.338030 -0.180329
C20   C     C_R   0.496108 0.061922 0.416488 0.082272
C21   C     C_R   0.495428 0.930182 0.416043 0.094786
C22   C     C_R   0.503297 0.870933 0.493703 -0.101460
C23   C     C_R   0.501043 0.260704 0.498594 0.883601
C24   C     C_R   0.515090 0.937204 0.569067 -0.254434
C25   C     C_R   0.514807 0.066148 0.570590 -0.009265
C26   C     C_R   0.503799 0.127798 0.494995 -0.153388
C27   C     C_R   0.794242 0.675536 0.614816 -0.165157
C28   C     C_R   0.834500 0.766001 0.667025 -0.223601
C29   C     C_R   0.973923 0.765076 0.666898 -0.157983
C30   C     C_R   0.073227 0.672512 0.615793 -0.147963
C31   C     C_R   0.039279 0.585234 0.557048 0.155667
C32   C     C_R   0.895019 0.585982 0.556688 0.184493
C33   C     C_R   0.960514 0.418145 0.445378 -0.119489
C34   C     C_R   0.590506 0.500774 0.324516 0.833566
C35   C     C_R   0.103582 0.418322 0.445278 -0.110046
C36   C     C_R   0.353625 0.512489 0.776792 -0.054128
C37   C     C_R   0.643698 0.521587 0.225545 -0.056686
C38   C     C_R   0.163337 0.489632 0.926475 -0.199398
C39   C     C_R   0.209113 0.487081 0.830223 -0.166210
C40   C     C_R   0.449635 0.546678 0.819946 -0.260294
H1    H     H_    0.106798 0.489946 0.107563 0.147894
H2    H     H_    0.917056 0.659310 0.056763 0.157704
H3    H     H_    0.521802 0.887802 0.627448 0.136460
H4    H     H_    0.491998 0.760004 0.334002 0.150669
H5    H     H_    0.482675 0.870453 0.201502 0.146676
H6    H     H_    0.483973 0.103164 0.201932 0.139902
H7    H     H_    0.495319 0.225137 0.334475 0.132488
H8    H     H_    0.933030 0.351267 0.400704 0.146428
H9    H     H_    0.683365 0.678875 0.622428 0.195493
H10   H     H_    0.756042 0.835782 0.709252 0.155453
H11   H     H_    0.449140 0.453676 0.215584 0.148214
H12   H     H_    0.004629 0.835329 0.707874 0.171741
H13   H     H_    0.174915 0.671288 0.624343 0.202894
H14   H     H_    0.183380 0.351571 0.400479 0.145180
H15   H     H_    0.853614 0.591462 0.214315 0.160451
H16   H     H_    0.052727 0.464635 0.966819 0.146705
H17   H     H_    0.133112 0.461497 0.797715 0.163432
H18   H     H_    0.560964 0.562226 0.776811 0.159465
H19   H     H_    0.277150 0.520173 0.181862 0.149805
H20   H     H_    0.673124 0.665611 0.844050 0.157421
N1    N     N_R   0.856800 0.501200 0.500850 -0.117911
N2    N     N_R   0.142390 0.501280 0.500880 -0.118995
O1    O     O_R   0.385310 0.683220 0.500000 -0.635046
O2    O     O_R   0.614640 0.683250 0.500010 -0.628509
O3    O     O_R   0.319840 0.499980 0.632240 -0.632539
O4    O     O_R   0.549160 0.500000 0.632250 -0.626977
O5    O     O_R   0.385360 0.316750 0.499990 -0.612528
O6    O     O_R   0.614690 0.316780 0.500000 -0.602785
O7    O     O_R   0.450840 0.500000 0.367750 -0.624424
O8    O     O_R   0.680160 0.500020 0.367760 -0.612017
Zn1   Zn    Zn3+2 0.346880 0.499980 0.499990 0.931808
Zn2   Zn    Zn3+2 0.653120 0.500020 0.500010 0.943572
C41   C     C_1   0.521827 0.133333 0.651454 0.177277
N3    N     N_1   0.527389 0.187085 0.716027 -0.198115
C42   C     C_1   0.881454 0.704141 0.905049 0.144637
N4    N     N_1   0.992451 0.748828 0.865658 -0.225902

loop_
_geom_bond_atom_site_label_1
_geom_bond_atom_site_label_2
_ccdc_geom_bond_type
C16   C21   A    
C34   C37   S    
C41   N3    T    
C19   C20   A    
C4    C8    A    
C28   C29   A    
C17   H5    S    
C32   N1    A    
C5    C11   A    
C3    C7    A    
C30   C31   A    
C19   H7    S    
C39   H17   S    
C1    O1    A    
C18   C19   A    
C23   C26   S    
C23   O5    A    
O7    Zn1   S    
C15   C37   A    
C28   H10   S    
O4    Zn2   S    
C3    C38   A    
C16   C17   A    
C15   H11   S    
C12   C36   S    
C9    C10   A    
C34   O8    A    
C25   C41   S    
O2    Zn2   S    
C14   H15   S    
C1    C22   S    
C13   C14   A    
C35   H14   S    
C31   N2    A    
C11   C15   A    
C18   H6    S    
C13   H2    S    
C38   C39   A    
C30   H13   S    
C40   H18   S    
C36   C40   A    
C24   C25   A    
C8    C9    A    
C25   C26   A    
O3    Zn1   S    
C12   O4    A    
C23   O6    A    
C2    C4    A    
C42   N4    T    
C29   C30   A    
C31   C32   A    
O6    Zn2   S    
C17   C18   A    
C34   O7    A    
N1    Zn2   S    
O1    Zn1   S    
C22   C24   A    
C1    O2    A    
C24   H3    S    
C16   H4    S    
C27   C32   A    
C6    H19   S    
C36   C39   A    
C4    C5    A    
C10   C13   A    
C6    C7    A    
C12   O3    A    
C2    C3    A    
C8    H20   S    
C14   C37   A    
C5    C6    A    
C20   C26   A    
C33   C35   A    
N2    Zn1   S    
C35   N2    A    
O5    Zn1   S    
C7    H1    S    
C10   C11   A    
C2    C40   A    
C38   H16   S    
C20   C21   A    
C33   N1    A    
C27   C28   A    
C33   H8    S    
O8    Zn2   S    
C9    C42   S    
C21   C22   A    
C27   H9    S    
C29   H12   S    
