data_mof_unit_57414.cif
_audit_creation_date              2012-12-11T14:41:08-0500
_audit_creation_method            fapswitch 2.2
_symmetry_space_group_name_H-M    P1
_symmetry_Int_Tables_number       1
_space_group_crystal_system       triclinic
_cell_length_a                    6.917213
_cell_length_b                    17.995003
_cell_length_c                    19.108132
_cell_angle_alpha                 89.980664
_cell_angle_beta                  90.002528
_cell_angle_gamma                 89.992182
_cell_volume                      2378.48970489

loop_
_atom_site_label
_atom_site_type_symbol
_atom_type_description
_atom_site_fract_x
_atom_site_fract_y
_atom_site_fract_z
_atom_type_partial_charge
O1    O     O_R   0.377350 0.828520 0.186660 -0.540220
O2    O     O_R   0.622650 0.171480 0.813340 -0.540168
O3    O     O_R   0.122650 0.171480 0.686660 -0.540552
O4    O     O_R   0.877350 0.828520 0.313340 -0.540566
O5    O     O_R   0.877350 0.671480 0.313340 -0.540279
O6    O     O_R   0.122650 0.328520 0.686660 -0.540311
O7    O     O_R   0.622650 0.328520 0.813340 -0.540618
O8    O     O_R   0.377350 0.671480 0.186660 -0.540628
O9    O     O_R   0.707090 0.671930 0.178410 -0.541424
O10   O     O_R   0.292910 0.328070 0.821590 -0.541415
O11   O     O_R   0.792910 0.328070 0.678410 -0.541329
O12   O     O_R   0.207090 0.671930 0.321590 -0.541329
O13   O     O_R   0.207090 0.828070 0.321590 -0.541384
O14   O     O_R   0.792910 0.171930 0.678410 -0.541389
O15   O     O_R   0.292910 0.171930 0.821590 -0.541250
O16   O     O_R   0.707090 0.828070 0.178410 -0.541244
C1    C     C_R   0.538321 0.648248 0.159173 0.703524
C2    C     C_R   0.461677 0.351764 0.840817 0.703510
C3    C     C_R   0.961634 0.351789 0.659213 0.703656
C4    C     C_R   0.038370 0.648204 0.340778 0.703674
C5    C     C_R   0.038324 0.851765 0.340815 0.703506
C6    C     C_R   0.961674 0.148230 0.659191 0.703509
C7    C     C_R   0.461639 0.148178 0.840753 0.703621
C8    C     C_R   0.538356 0.851808 0.159234 0.703650
O17   O     O_3   0.543850 0.750000 0.294270 -0.369200
O18   O     O_3   0.456150 0.250000 0.705730 -0.369219
O19   O     O_3   0.956150 0.250000 0.794270 -0.369134
O20   O     O_3   0.043850 0.750000 0.205730 -0.369180
V1    V     V_3+5 0.818700 0.750000 0.241790 1.407861
V2    V     V_3+5 0.181300 0.250000 0.758210 1.407874
V3    V     V_3+5 0.681300 0.250000 0.741790 1.407850
V4    V     V_3+5 0.318700 0.750000 0.258210 1.407820
C9    C     C_R   0.963180 0.411706 0.605077 -0.063553
C10   C     C_R   0.036831 0.588285 0.394910 -0.063533
C11   C     C_R   0.536813 0.588368 0.105003 -0.063624
C12   C     C_R   0.463202 0.411660 0.894972 -0.063664
C13   C     C_R   0.463276 0.088216 0.894845 -0.063480
C14   C     C_R   0.536726 0.911750 0.105124 -0.063475
C15   C     C_R   0.036780 0.911664 0.394968 -0.063652
C16   C     C_R   0.963215 0.088326 0.605044 -0.063647
C17   C     C_R   0.209779 0.481528 0.442212 -0.193338
C18   C     C_R   0.790203 0.518454 0.557763 -0.193366
C19   C     C_R   0.288315 0.517633 0.942883 -0.194436
C20   C     C_R   0.711731 0.482412 0.057079 -0.194460
C21   C     C_R   0.708638 0.018896 0.058163 -0.192849
C22   C     C_R   0.291501 0.981017 0.941756 -0.192796
C23   C     C_R   0.788983 0.982093 0.557359 -0.194076
C24   C     C_R   0.211049 0.017878 0.442674 -0.194106
C25   C     C_R   0.188382 0.536649 0.392008 -0.223479
C26   C     C_R   0.811599 0.463332 0.607967 -0.223485
C27   C     C_R   0.310119 0.462682 0.892589 -0.223879
C28   C     C_R   0.689914 0.537356 0.107376 -0.223891
C29   C     C_R   0.687413 0.963704 0.108319 -0.223258
C30   C     C_R   0.312653 0.036237 0.891622 -0.223277
C31   C     C_R   0.810675 0.037094 0.607618 -0.223728
C32   C     C_R   0.189375 0.962872 0.392419 -0.223735
C33   C     C_R   0.901904 0.583721 0.451198 0.107397
C34   C     C_R   0.098138 0.416281 0.548796 0.107414
C35   C     C_R   0.599574 0.416820 0.950794 0.107360
C36   C     C_R   0.400440 0.583210 0.049183 0.107343
C37   C     C_R   0.402604 0.916018 0.048571 0.107572
C38   C     C_R   0.597429 0.083934 0.951389 0.107495
C39   C     C_R   0.099070 0.083366 0.549053 0.107385
C40   C     C_R   0.900885 0.916639 0.450948 0.107399
C41   C     C_R   0.922030 0.525725 0.502098 0.112131
C42   C     C_R   0.077967 0.474264 0.497884 0.112123
C43   C     C_R   0.578832 0.474644 0.001813 0.112619
C44   C     C_R   0.421213 0.525401 0.998151 0.112644
C45   C     C_R   0.422559 0.974051 0.997700 0.111874
C46   C     C_R   0.577534 0.025878 0.002238 0.111900
C47   C     C_R   0.078518 0.025488 0.498078 0.112446
C48   C     C_R   0.921471 0.974501 0.501937 0.112450
H1    H     H_    0.705797 0.460802 0.649752 0.139936
H2    H     H_    0.294169 0.539175 0.350217 0.139918
H3    H     H_    0.796694 0.540235 0.148818 0.140434
H4    H     H_    0.203332 0.459798 0.851148 0.140425
H5    H     H_    0.207477 0.038562 0.849621 0.139582
H6    H     H_    0.792601 0.961380 0.150314 0.139640
H7    H     H_    0.295836 0.960102 0.350865 0.140251
H8    H     H_    0.704265 0.039848 0.649191 0.140214
H9    H     H_    0.332737 0.444966 0.436487 0.143857
H10   H     H_    0.667231 0.555010 0.563481 0.143862
H11   H     H_    0.164134 0.553653 0.937537 0.144070
H12   H     H_    0.835914 0.446393 0.062424 0.144071
H13   H     H_    0.830892 0.055739 0.064118 0.143767
H14   H     H_    0.169337 0.944136 0.935769 0.143752
H15   H     H_    0.665238 0.945885 0.562854 0.143970
H16   H     H_    0.334830 0.054069 0.437197 0.143983
C49   C     C_3   0.256604 0.358851 0.539598 -0.798096
H17   H     H_    0.248759 0.312128 0.576366 0.219821
H18   H     H_    0.245926 0.333444 0.486785 0.198606
H19   H     H_    0.400240 0.385610 0.545924 0.215568
C50   C     C_3   0.743587 0.641201 0.460425 -0.798107
H20   H     H_    0.751686 0.687965 0.423721 0.219727
H21   H     H_    0.599906 0.614516 0.454036 0.215612
H22   H     H_    0.754232 0.666536 0.513261 0.198608
C51   C     C_3   0.239518 0.639757 0.040560 -0.798614
H23   H     H_    0.245868 0.686374 0.077397 0.221046
H24   H     H_    0.248136 0.665420 0.987801 0.198681
H25   H     H_    0.097119 0.612130 0.047155 0.215404
C52   C     C_3   0.760388 0.360224 0.959462 -0.798452
H26   H     H_    0.754026 0.313600 0.922621 0.220978
H27   H     H_    0.902885 0.387810 0.952899 0.215362
H28   H     H_    0.751587 0.334569 0.012232 0.198682
C53   C     C_3   0.754614 0.141787 0.960895 -0.798062
H29   H     H_    0.745819 0.188567 0.924217 0.219178
H30   H     H_    0.743038 0.167028 0.013748 0.198593
H31   H     H_    0.898838 0.115488 0.954631 0.215756
C54   C     C_3   0.245393 0.858169 0.039060 -0.798379
H32   H     H_    0.253623 0.811524 0.075906 0.219416
H33   H     H_    0.101157 0.884543 0.045060 0.215680
H34   H     H_    0.257444 0.832759 0.986290 0.198678
C55   C     C_3   0.740785 0.859809 0.459777 -0.798422
H35   H     H_    0.747522 0.813182 0.422929 0.220647
H36   H     H_    0.750222 0.834186 0.512549 0.198659
H37   H     H_    0.597940 0.887179 0.453328 0.215431
C56   C     C_3   0.259083 0.140234 0.540199 -0.798399
H38   H     H_    0.252186 0.186896 0.576999 0.220565
H39   H     H_    0.401957 0.112909 0.546702 0.215449
H40   H     H_    0.249676 0.165800 0.487407 0.198671

loop_
_geom_bond_atom_site_label_1
_geom_bond_atom_site_label_2
_ccdc_geom_bond_type
C9    C34   A    
O4    C5    A    
C19   H11   S    
O13   V4    S    
C18   H10   S    
O14   V3    S    
C28   H3    S    
C37   C54   S    
C13   C38   A    
C38   C53   S    
C15   C40   A    
C53   H30   S    
O11   C3    A    
C50   H20   S    
C16   C39   A    
O20   V1    S    
O10   C2    A    
C54   H33   S    
C39   C56   S    
C38   C46   A    
C22   C45   A    
C35   C43   A    
C12   C35   A    
C34   C42   A    
C19   C44   A    
C18   C41   A    
C8    C14   S    
C24   H16   S    
C49   H18   S    
O4    V1    S    
O9    V1    S    
C14   C37   A    
C4    C10   S    
C20   C28   A    
O17   V4    S    
O15   C7    A    
O11   V3    S    
O18   V3    S    
O16   C8    A    
C33   C50   S    
O12   V4    S    
O19   V2    S    
C22   C30   A    
C17   C25   A    
C51   H24   S    
C51   H23   S    
O5    V1    S    
O17   V1    S    
C53   H31   S    
O7    V3    S    
C20   C43   A    
O19   V3    S    
C43   C44   A    
C35   C52   S    
C52   H26   S    
O20   V4    S    
C27   H4    S    
C36   C51   S    
C3    C9    S    
C54   H34   S    
O5    C4    A    
C6    C16   S    
O16   V1    S    
C7    C13   S    
O1    V4    S    
C11   C36   A    
O8    V4    S    
O3    V2    S    
C21   H13   S    
O6    C3    A    
C10   C33   A    
O10   V2    S    
C15   C32   A    
C5    C15   S    
O7    C2    A    
C17   H9    S    
O12   C4    A    
O13   C5    A    
C49   H19   S    
C32   H7    S    
C12   C27   A    
C18   C26   A    
C13   C30   A    
O9    C1    A    
O6    V2    S    
C39   C47   A    
O18   V2    S    
C50   H22   S    
C26   H1    S    
C24   C47   A    
O2    C7    A    
C51   H25   S    
O15   V2    S    
C23   C31   A    
C55   H35   S    
C52   H27   S    
C37   C45   A    
C24   C32   A    
C10   C25   A    
C40   C55   S    
C21   C46   A    
C33   C41   A    
C20   H12   S    
C16   C31   A    
C55   H37   S    
C17   C42   A    
C52   H28   S    
C53   H29   S    
O8    C1    A    
C30   H5    S    
C56   H39   S    
C29   H6    S    
C9    C26   A    
C47   C48   A    
C54   H32   S    
C31   H8    S    
O14   C6    A    
C14   C29   A    
C19   C27   A    
C56   H40   S    
C40   C48   A    
C45   C46   A    
C34   C49   S    
C23   C48   A    
C21   C29   A    
C36   C44   A    
O1    C8    A    
C50   H21   S    
C41   C42   A    
C11   C28   A    
C25   H2    S    
O2    V3    S    
O3    C6    A    
C1    C11   S    
C55   H36   S    
C49   H17   S    
C56   H38   S    
C2    C12   S    
C23   H15   S    
C22   H14   S    
