data_mof_unit_41838.cif
_audit_creation_date              2013-03-05T16:07:31-0500
_audit_creation_method            fapswitch 2.2
_symmetry_space_group_name_H-M    P1
_symmetry_Int_Tables_number       1
_space_group_crystal_system       triclinic
_cell_length_a                    10.813111
_cell_length_b                    10.846579
_cell_length_c                    9.516638
_cell_angle_alpha                 91.328359
_cell_angle_beta                  90.751331
_cell_angle_gamma                 89.75368
_cell_volume                      1115.75657914

loop_
_atom_site_label
_atom_site_type_symbol
_atom_site_description
_atom_site_fract_x
_atom_site_fract_y
_atom_site_fract_z
_atom_type_partial_charge
O1    O     O_R   0.499990 0.319660 0.618740 -0.572707
O2    O     O_R   0.500010 0.680340 0.381260 -0.579202
O3    O     O_R   0.499990 0.319630 0.381170 -0.588858
O4    O     O_R   0.500010 0.680370 0.618830 -0.591448
C1    C     C_R   0.502488 0.261995 0.498011 0.788413
C2    C     C_R   0.497017 0.737663 0.501895 0.796154
O5    O     O_R   0.319650 0.500020 0.618780 -0.591046
O6    O     O_R   0.680350 0.499980 0.381220 -0.593285
O7    O     O_R   0.319640 0.500000 0.381210 -0.584820
O8    O     O_R   0.680360 0.500000 0.618790 -0.571611
C3    C     C_R   0.262274 0.505412 0.498926 0.794604
C4    C     C_R   0.737634 0.497253 0.500761 0.788647
Cu1   Cu    Cu3+1 0.500000 0.500020 0.640660 0.936835
Cu2   Cu    Cu3+1 0.500000 0.499980 0.359340 0.933215
H1    H     H_    0.271538 0.894910 0.055204 0.113141
H2    H     H_    0.792215 0.076542 0.942987 0.122475
C5    C     C_R   0.160553 0.875058 0.239458 -0.137356
C6    C     C_R   0.782356 0.144374 0.732023 -0.123199
H3    H     H_    0.153696 0.973283 0.260788 0.123758
H4    H     H_    0.731692 0.065431 0.690526 0.133569
C7    C     C_R   0.103333 0.792159 0.328012 -0.200053
C8    C     C_R   0.817380 0.238101 0.642414 -0.115920
H5    H     H_    0.051521 0.827128 0.417060 0.130518
H6    H     H_    0.795269 0.229540 0.531268 0.091056
C9    C     C_R   0.114424 0.664556 0.302820 0.100658
C10   C     C_R   0.885917 0.339150 0.695276 0.129477
C11   C     C_R   0.174722 0.621534 0.181610 -0.079451
C12   C     C_R   0.915661 0.346669 0.839495 -0.155252
H7    H     H_    0.177584 0.523862 0.156258 0.108773
H8    H     H_    0.969200 0.423427 0.881993 0.119889
C13   C     C_R   0.233773 0.704359 0.094638 -0.120955
C14   C     C_R   0.880223 0.252965 0.928637 -0.143385
H9    H     H_    0.284961 0.670395 0.004883 0.129430
H10   H     H_    0.904997 0.258272 0.039190 0.124912
C15   C     C_R   0.226976 0.831005 0.123687 -0.122234
C16   C     C_R   0.815825 0.150818 0.874419 -0.127996
C17   C     C_R   0.930090 0.571587 0.404803 -0.242809
C18   C     C_R   0.069165 0.434522 0.594886 -0.244512
H11   H     H_    0.875633 0.627006 0.333150 0.145038
H12   H     H_    0.123698 0.379007 0.666376 0.143053
C19   C     C_R   0.871317 0.497243 0.501621 -0.081452
C20   C     C_R   0.128198 0.506916 0.496815 -0.073661
C21   C     C_R   0.941015 0.427630 0.597955 -0.000729
C22   C     C_R   0.058264 0.577357 0.400730 0.000222
C23   C     C_R   0.555003 0.056080 0.384198 0.078500
C24   C     C_R   0.436570 0.942192 0.611114 0.094922
C25   C     C_R   0.554979 0.928763 0.394590 -0.243220
C26   C     C_R   0.444730 0.070002 0.606508 -0.240139
H13   H     H_    0.597103 0.873296 0.311637 0.150158
H14   H     H_    0.398482 0.125554 0.686143 0.146419
C27   C     C_R   0.496607 0.871351 0.505263 -0.065952
C28   C     C_R   0.502556 0.127778 0.494884 -0.080094
C29   C     C_R   0.414647 0.433541 0.071282 -0.034463
C30   C     C_R   0.585325 0.566703 0.928597 -0.031154
H15   H     H_    0.346404 0.380064 0.124757 0.108944
H16   H     H_    0.653510 0.620323 0.874943 0.120719
C31   C     C_R   0.414282 0.433968 0.922527 -0.041948
C32   C     C_R   0.585186 0.566820 0.077432 -0.019228
H17   H     H_    0.345774 0.380662 0.864133 0.116834
H18   H     H_    0.653221 0.620704 0.135874 0.114382
N1    N     N_R   0.500030 0.500030 0.852070 -0.155031
N2    N     N_R   0.499970 0.499970 0.147930 -0.151809
C33   C     C_3   0.598090 0.106587 0.246034 -0.381797
C34   C     C_3   0.487289 0.111353 0.143463 -0.329423
C35   C     C_3   0.525165 0.144584 0.995712 -0.842242
H19   H     H_    0.584293 0.228074 0.998201 0.281661
H20   H     H_    0.575063 0.065977 0.945502 0.244652
H21   H     H_    0.440999 0.163221 0.931709 0.223800
H22   H     H_    0.441619 0.019811 0.137313 0.210503
H23   H     H_    0.418038 0.179110 0.182485 0.225633
H24   H     H_    0.643939 0.197363 0.259403 0.208734
H25   H     H_    0.670231 0.044824 0.200162 0.173072
C36   C     C_3   0.351667 0.887318 0.719227 -0.410649
C37   C     C_3   0.232461 0.840847 0.647056 -0.325815
C38   C     C_3   0.146014 0.778567 0.748391 -0.847115
H26   H     H_    0.189035 0.692512 0.786868 0.261340
H27   H     H_    0.123986 0.841662 0.838166 0.254541
H28   H     H_    0.058450 0.753670 0.692615 0.242767
H29   H     H_    0.183289 0.920411 0.599969 0.212314
H30   H     H_    0.254963 0.773393 0.561851 0.219534
H31   H     H_    0.398595 0.813570 0.778640 0.220647
H32   H     H_    0.325788 0.958355 0.799883 0.178112

loop_
_geom_bond_atom_site_label_1
_geom_bond_atom_site_label_2
_geom_bond_distance
_ccdc_geom_bond_type
C32   N2    1.367282 A    
C11   H7    1.081462 S    
C36   C37   1.534142 S    
O7    Cu2   1.964038 S    
C25   H13   1.085213 S    
O5    C3    1.293651 A    
O1    C1    1.295898 A    
C14   C16   1.396195 A    
C18   C20   1.396073 A    
C31   H17   1.081605 S    
C32   H18   1.081677 S    
Cu2   N2    2.011906 S    
C3    C20   1.449689 S    
C23   C25   1.386783 A    
C36   H31   1.107713 S    
O4    Cu1   1.971964 S    
C35   H20   1.109198 S    
C13   H9    1.080613 S    
C1    C28   1.455406 S    
C34   H23   1.108452 S    
C2    C27   1.449655 S    
C26   H14   1.083361 S    
C37   H30   1.108221 S    
Cu1   Cu2   2.677212 S    
C19   C21   1.409855 A    
O2    C2    1.293573 A    
C20   C22   1.414578 A    
C9    C22   1.480591 S    
H1    C15   1.081406 S    
C10   C21   1.481340 S    
C24   C26   1.391229 A    
C29   H15   1.080364 S    
C30   H16   1.081622 S    
C37   C38   1.522963 S    
C11   C13   1.397531 A    
C12   C14   1.396910 A    
O4    C2    1.287079 A    
C29   C31   1.415716 A    
C25   C27   1.395242 A    
C23   C28   1.417697 A    
C24   C27   1.415471 A    
C23   C33   1.515814 S    
C5    C7    1.398266 A    
C14   H10   1.082547 S    
C38   H26   1.108764 S    
C4    C19   1.445445 S    
O7    C3    1.287659 A    
C29   N2    1.366062 A    
O5    Cu1   1.958513 S    
O6    C4    1.289067 A    
C35   H21   1.108925 S    
C34   H22   1.110844 S    
C38   H27   1.109881 S    
O3    Cu2   1.971964 S    
O8    C4    1.289429 A    
C33   H24   1.108224 S    
C37   H29   1.111762 S    
C7    H5    1.082409 S    
C8    H6    1.083329 S    
O1    Cu1   1.962565 S    
C36   H32   1.112436 S    
C30   C32   1.416399 A    
C7    C9    1.404063 A    
O6    Cu2   1.958512 S    
C6    C8    1.398618 A    
O3    C1    1.288108 A    
O8    Cu1   1.964037 S    
C31   N1    1.366387 A    
C30   N1    1.366646 A    
C9    C11   1.402014 A    
C10   C12   1.406154 A    
C34   C35   1.521390 S    
C17   C22   1.388733 A    
C12   H8    1.083639 S    
C18   C21   1.388760 A    
C17   H11   1.085581 S    
H2    C16   1.081923 S    
C18   H12   1.085626 S    
C13   C15   1.396744 A    
C5    H3    1.082347 S    
C6    H4    1.082570 S    
C17   C19   1.399022 A    
O2    Cu2   1.962565 S    
C38   H28   1.110655 S    
C33   C34   1.536900 S    
C26   C28   1.401353 A    
Cu1   N1    2.011906 S    
C33   H25   1.112993 S    
C35   H19   1.110398 S    
C8    C10   1.405434 A    
C5    C15   1.396932 A    
C6    C16   1.398291 A    
C24   C36   1.521030 S    
