data_mof_unit_38019.cif
_audit_creation_date              2012-12-11T16:45:25-0500
_audit_creation_method            fapswitch 2.2
_symmetry_space_group_name_H-M    P1
_symmetry_Int_Tables_number       1
_space_group_crystal_system       triclinic
_cell_length_a                    19.97516
_cell_length_b                    17.260758
_cell_length_c                    15.512946
_cell_angle_alpha                 89.907912
_cell_angle_beta                  52.404718
_cell_angle_gamma                 89.87234
_cell_volume                      4237.94024392

loop_
_atom_site_label
_atom_site_type_symbol
_atom_type_description
_atom_site_fract_x
_atom_site_fract_y
_atom_site_fract_z
_atom_type_partial_charge
C1    C     C_R   0.837976 0.669439 0.051388 -0.143132
C2    C     C_R   0.161400 0.670055 0.951211 -0.137776
C3    C     C_R   0.337975 0.169438 0.051389 -0.143143
C4    C     C_R   0.661400 0.170055 0.951208 -0.137782
C5    C     C_R   0.819962 0.348680 0.323760 0.017432
C6    C     C_R   0.187372 0.356972 0.679112 -0.011225
C7    C     C_R   0.319977 0.848667 0.323761 0.017428
C8    C     C_R   0.687339 0.856942 0.679107 -0.011220
C9    C     C_R   0.836381 0.316906 0.949001 0.131568
C10   C     C_R   0.163428 0.316977 0.052280 0.143655
C11   C     C_R   0.336381 0.816906 0.949003 0.131578
C12   C     C_R   0.663436 0.816981 0.052267 0.143658
C13   C     C_R   0.897220 0.686584 0.295832 0.021439
C14   C     C_R   0.096701 0.686194 0.703866 -0.020710
C15   C     C_R   0.397191 0.186579 0.295851 0.021381
C16   C     C_R   0.596704 0.186196 0.703865 -0.020698
C17   C     C_R   0.773206 0.703342 0.476414 0.037469
C18   C     C_R   0.167853 0.696541 0.511685 -0.077754
C19   C     C_R   0.273212 0.203348 0.476456 0.037473
C20   C     C_R   0.667855 0.196548 0.511683 -0.077761
C21   C     C_R   0.851186 0.732818 0.391589 -0.107741
C22   C     C_R   0.120715 0.735192 0.611805 0.026520
C23   C     C_R   0.351178 0.232824 0.391600 -0.107713
C24   C     C_R   0.620718 0.235196 0.611805 0.026521
C25   C     C_R   0.382560 0.300401 0.406120 0.437576
C26   C     C_R   0.624467 0.316532 0.611904 0.393309
C27   C     C_R   0.882555 0.800388 0.406140 0.437590
C28   C     C_R   0.124475 0.816527 0.611901 0.393319
C29   C     C_R   0.329607 0.341588 0.503677 -0.165994
C30   C     C_R   0.690130 0.354512 0.517315 -0.142414
C31   C     C_R   0.829586 0.841566 0.503701 -0.166048
C32   C     C_R   0.190147 0.854502 0.517315 -0.142433
C33   C     C_R   0.248352 0.313140 0.584716 -0.006461
C34   C     C_R   0.746520 0.312606 0.420881 0.087532
C35   C     C_R   0.748322 0.813118 0.584707 -0.006484
C36   C     C_R   0.246535 0.812593 0.420882 0.087519
C37   C     C_R   0.723376 0.741465 0.573183 0.050733
C38   C     C_R   0.229438 0.734943 0.417046 -0.042953
C39   C     C_R   0.223404 0.241477 0.573224 0.050669
C40   C     C_R   0.729431 0.234954 0.417044 -0.042972
C41   C     C_3   0.643937 0.720672 0.589270 0.136717
C42   C     C_3   0.202365 0.698579 0.354761 0.130399
C43   C     C_3   0.143947 0.220660 0.589379 0.136735
C44   C     C_3   0.702356 0.198586 0.354765 0.130407
C45   C     C_R   0.858929 0.321276 0.219692 -0.092967
C46   C     C_R   0.147266 0.327019 0.781526 -0.098772
C47   C     C_R   0.358939 0.821267 0.219692 -0.092951
C48   C     C_R   0.647243 0.826996 0.781521 -0.098739
C49   C     C_3   0.700120 0.683114 0.477175 0.137308
C50   C     C_3   0.134840 0.656372 0.458755 0.189731
C51   C     C_3   0.200101 0.183104 0.477282 0.137338
C52   C     C_3   0.634841 0.156375 0.458758 0.189724
C53   C     C_2   0.779376 0.188085 0.960977 0.360968
C54   C     C_2   0.217346 0.188040 0.047273 0.358944
C55   C     C_2   0.279373 0.688084 0.960987 0.360999
C56   C     C_2   0.717350 0.688043 0.047268 0.358948
C57   C     C_2   0.279260 0.765605 0.950590 -0.233568
C58   C     C_2   0.721227 0.765802 0.049999 -0.267471
C59   C     C_2   0.779257 0.265607 0.950592 -0.233575
C60   C     C_2   0.221219 0.265798 0.050011 -0.267460
C61   C     C_R   0.855965 0.391860 0.906399 0.064802
C62   C     C_R   0.144540 0.392258 0.093245 0.062668
C63   C     C_R   0.355966 0.891859 0.906398 0.064810
C64   C     C_R   0.644544 0.892260 0.093240 0.062673
C65   C     C_R   0.912809 0.609900 0.298165 -0.041056
C66   C     C_R   0.082180 0.608948 0.704782 -0.097486
C67   C     C_R   0.412790 0.109896 0.298179 -0.041053
C68   C     C_R   0.582183 0.108949 0.704780 -0.097494
C69   C     C_R   0.869064 0.302552 0.003105 -0.034000
C70   C     C_R   0.130023 0.302061 0.999091 -0.098071
C71   C     C_R   0.369062 0.802553 0.003109 -0.033987
C72   C     C_R   0.630031 0.802064 0.999079 -0.098053
C73   C     C_R   0.901465 0.698872 0.205671 0.303919
C74   C     C_R   0.095140 0.699146 0.793824 0.320642
C75   C     C_R   0.401454 0.198870 0.205677 0.303963
C76   C     C_R   0.595141 0.199146 0.793824 0.320639
C77   C     C_R   0.866926 0.411284 0.317473 0.329149
C78   C     C_R   0.138544 0.416323 0.683501 0.310604
C79   C     C_R   0.366936 0.911275 0.317473 0.329122
C80   C     C_R   0.638524 0.916305 0.683499 0.310617
C81   C     C_R   0.832698 0.584679 0.946302 0.352053
C82   C     C_R   0.164615 0.585533 0.058676 0.365966
C83   C     C_R   0.332698 0.084678 0.946303 0.352058
C84   C     C_R   0.664618 0.085532 0.058671 0.365965
C85   C     C_R   0.789760 0.644781 0.021086 -0.046282
C86   C     C_R   0.207454 0.646071 0.985285 -0.052299
C87   C     C_R   0.289758 0.144780 0.021088 -0.046294
C88   C     C_R   0.707456 0.146071 0.985279 -0.052292
H1    H     H_    0.350098 0.396260 0.514571 0.184324
H2    H     H_    0.694844 0.416623 0.518232 0.226573
H3    H     H_    0.850069 0.896231 0.514621 0.184318
H4    H     H_    0.194870 0.916611 0.518230 0.226574
H5    H     H_    0.228568 0.794806 0.956070 0.178673
H6    H     H_    0.775174 0.794443 0.036815 0.176847
H7    H     H_    0.728559 0.294808 0.956085 0.178685
H8    H     H_    0.275164 0.294440 0.036830 0.176848
H9    H     H_    0.924978 0.585138 0.351070 0.202508
H10   H     H_    0.063034 0.582713 0.659997 0.193487
H11   H     H_    0.424951 0.085135 0.351091 0.202513
H12   H     H_    0.563037 0.082715 0.659994 0.193496
N1    N     N_R   0.908660 0.628630 0.995840 -0.054458
N2    N     N_R   0.091340 0.628630 0.004160 -0.054139
N3    N     N_R   0.408660 0.128630 0.995840 -0.054457
N4    N     N_R   0.591340 0.128630 0.004160 -0.054136
N5    N     N_R   0.922310 0.368460 0.151950 -0.066467
N6    N     N_R   0.077690 0.368460 0.848050 -0.064988
N7    N     N_R   0.422310 0.868460 0.151950 -0.066468
N8    N     N_R   0.577690 0.868460 0.848050 -0.064999
N9    N     N_R   0.903470 0.421430 0.936420 -0.152537
N10   N     N_R   0.096530 0.421430 0.063580 -0.155222
N11   N     N_R   0.403470 0.921430 0.936420 -0.152540
N12   N     N_R   0.596530 0.921430 0.063580 -0.155223
N13   N     N_R   0.927500 0.575670 0.211370 -0.075584
N14   N     N_R   0.072500 0.575670 0.788630 -0.075122
N15   N     N_R   0.427500 0.075670 0.211370 -0.075594
N16   N     N_R   0.572500 0.075670 0.788630 -0.075119
N17   N     N_R   0.908660 0.365680 0.995820 -0.075189
N18   N     N_R   0.091340 0.365680 0.004180 -0.076143
N19   N     N_R   0.408660 0.865680 0.995820 -0.075194
N20   N     N_R   0.591340 0.865680 0.004180 -0.076145
N21   N     N_R   0.922310 0.631420 0.151980 -0.082676
N22   N     N_R   0.077690 0.631420 0.848020 -0.085153
N23   N     N_R   0.422310 0.131420 0.151980 -0.082685
N24   N     N_R   0.577690 0.131420 0.848020 -0.085154
N25   N     N_R   0.927500 0.426330 0.211360 -0.085346
N26   N     N_R   0.072500 0.426330 0.788640 -0.082781
N27   N     N_R   0.427500 0.926330 0.211360 -0.085345
N28   N     N_R   0.572500 0.926330 0.788640 -0.082782
N29   N     N_R   0.903470 0.570760 0.936440 -0.102039
N30   N     N_R   0.096530 0.570760 0.063560 -0.105294
N31   N     N_R   0.403470 0.070760 0.936440 -0.102039
N32   N     N_R   0.596530 0.070760 0.063560 -0.105288
Ni1   Ni    Ni4+2 0.000000 0.630300 0.000000 0.302577
Ni2   Ni    Ni4+2 0.500000 0.130300 0.000000 0.302578
Ni3   Ni    Ni4+2 0.000000 0.369700 0.000000 0.246338
Ni4   Ni    Ni4+2 0.500000 0.869700 0.000000 0.246327
Ni5   Ni    Ni4+2 0.988090 0.497570 0.863760 0.262784
Ni6   Ni    Ni4+2 0.011910 0.497570 0.136240 0.271218
Ni7   Ni    Ni4+2 0.488090 0.997570 0.863760 0.262790
Ni8   Ni    Ni4+2 0.511910 0.997570 0.136240 0.271222
H13   H     H_    0.822176 0.714850 0.108152 0.168982
H14   H     H_    0.178845 0.714548 0.892820 0.172284
H15   H     H_    0.322172 0.214847 0.108155 0.168986
H16   H     H_    0.678845 0.214548 0.892818 0.172284
Br1   Br    Br    0.578313 0.651285 0.712778 -0.298360
Br2   Br    Br    0.162792 0.772532 0.299190 -0.391679
Br3   Br    Br    0.078388 0.151272 0.712891 -0.298335
Br4   Br    Br    0.662771 0.272532 0.299205 -0.391669
H17   H     H_    0.608345 0.771859 0.593106 0.117059
H18   H     H_    0.251417 0.658469 0.290837 0.126855
H19   H     H_    0.108328 0.271835 0.593250 0.117014
H20   H     H_    0.751410 0.158480 0.290836 0.126847
Br5   Br    Br    0.689259 0.572403 0.467441 -0.411718
Br6   Br    Br    0.016715 0.680626 0.525445 -0.360401
Br7   Br    Br    0.189245 0.072393 0.467559 -0.411698
Br8   Br    Br    0.516713 0.180617 0.525460 -0.360396
H21   H     H_    0.701260 0.716304 0.414727 0.101274
H22   H     H_    0.146736 0.593038 0.452072 0.149469
H23   H     H_    0.201202 0.216288 0.414861 0.101279
H24   H     H_    0.646744 0.093043 0.452070 0.149468
Br9   Br    Br    0.870512 0.127167 0.936049 -0.358471
Br10  Br    Br    0.118558 0.130786 0.090146 -0.392871
Br11  Br    Br    0.370496 0.627163 0.936092 -0.358467
Br12  Br    Br    0.618560 0.630793 0.090144 -0.392880
H25   H     H_    0.843820 0.269990 0.195824 0.135212
H26   H     H_    0.165125 0.275714 0.802752 0.158305
H27   H     H_    0.343836 0.769977 0.195824 0.135212
H28   H     H_    0.665095 0.775686 0.802748 0.158288
H29   H     H_    0.895305 0.435807 0.900184 0.153495
H30   H     H_    0.104791 0.435814 0.099480 0.155852
H31   H     H_    0.395305 0.935807 0.900184 0.153493
H32   H     H_    0.604792 0.935815 0.099479 0.155852
H33   H     H_    0.867533 0.249830 0.041148 0.157750
H34   H     H_    0.130254 0.248253 0.963807 0.168851
H35   H     H_    0.367528 0.749833 0.041158 0.157748
H36   H     H_    0.630266 0.748256 0.963791 0.168833
Br13  Br    Br    0.914427 0.799243 0.144400 -0.397891
Br14  Br    Br    0.090525 0.797673 0.853754 -0.391840
Br15  Br    Br    0.414410 0.299243 0.144411 -0.397881
Br16  Br    Br    0.590522 0.297673 0.853759 -0.391848
Br17  Br    Br    0.868530 0.444298 0.433924 -0.455544
Br18  Br    Br    0.146474 0.450908 0.560439 -0.565002
Br19  Br    Br    0.368558 0.944280 0.433914 -0.455516
Br20  Br    Br    0.646445 0.950901 0.560446 -0.565000
Br21  Br    Br    0.812629 0.550123 0.846608 -0.394258
Br22  Br    Br    0.178861 0.551481 0.164280 -0.439897
Br23  Br    Br    0.312629 0.050121 0.846609 -0.394222
Br24  Br    Br    0.678872 0.051480 0.164266 -0.439890
Br25  Br    Br    0.492852 0.340013 0.294775 -0.318932
Br26  Br    Br    0.529030 0.377339 0.722079 -0.293721
Br27  Br    Br    0.992849 0.840010 0.294824 -0.318926
Br28  Br    Br    0.029041 0.877342 0.722067 -0.293703

loop_
_geom_bond_atom_site_label_1
_geom_bond_atom_site_label_2
_ccdc_geom_bond_type
C52   H24   S    
C83   C87   A    
C79   Br19  S    
N26   Ni5   S    
C7    C36   S    
N12   Ni8   S    
C15   C75   A    
C26   Br26  S    
C30   H2    S    
C61   N9    A    
N10   N18   A    
C29   H1    S    
C53   C59   D    
N11   Ni7   S    
C54   C60   D    
C50   H22   S    
C51   Br7   S    
C33   C39   A    
C27   Br27  S    
C82   Br22  S    
C9    C61   A    
C14   C74   A    
C49   Br5   S    
C35   C37   A    
N3    Ni2   S    
C9    C69   A    
C38   C42   S    
C11   C63   A    
C6    C46   A    
C54   C87   S    
C20   C40   A    
C11   C71   A    
C6    C78   A    
C41   H17   S    
C2    N2    A    
C29   C33   A    
N1    Ni1   S    
C43   H19   S    
C41   Br1   S    
N9    Ni5   S    
N14   Ni5   S    
C41   C49   S    
C67   N15   A    
N31   Ni7   S    
C63   H31   S    
C1    H13   S    
N16   N24   A    
C20   C24   A    
C71   H35   S    
C74   Br14  S    
C77   Br17  S    
C2    C86   A    
C16   C68   A    
C82   N30   A    
C75   Br15  S    
C40   C44   S    
C67   H11   S    
N5    Ni3   S    
N16   Ni7   S    
C12   C58   S    
C44   C52   S    
C15   C23   S    
C21   C27   A    
C16   C24   S    
C57   H5    S    
C1    C85   A    
C51   H23   S    
C83   Br23  S    
C10   C62   A    
C69   H33   S    
C66   N14   A    
C28   Br28  S    
C81   Br21  S    
C22   C28   A    
C45   N5    A    
C25   C29   A    
C62   H30   S    
N15   N23   A    
C30   C34   A    
N23   Ni2   S    
C3    C87   A    
C76   N24   A    
C84   C88   A    
N10   Ni6   S    
C13   C21   S    
C3    H15   S    
C49   H21   S    
C17   C49   S    
N12   N20   A    
C63   N11   A    
C73   N21   A    
C13   C65   A    
C80   N28   A    
C82   C86   A    
C27   C31   A    
C84   N32   A    
N8    N28   A    
N20   Ni4   S    
C8    C35   S    
C7    C47   A    
C64   H32   S    
C19   C23   A    
C8    C48   A    
C68   H12   S    
N22   Ni1   S    
C83   N31   A    
N7    Ni4   S    
C47   H27   S    
C42   H18   S    
C81   N29   A    
C62   N10   A    
C18   C38   A    
C28   C32   A    
C15   C67   A    
C5    C34   S    
C72   N20   A    
C14   C66   A    
N13   N21   A    
C78   Br18  S    
C17   C37   A    
C54   Br10  S    
C70   H34   S    
N4    Ni2   S    
C42   C50   S    
C10   C70   A    
N11   N19   A    
N6    Ni3   S    
C74   N22   A    
C68   N16   A    
C26   C30   A    
C31   H3    S    
C55   C57   D    
C14   C22   S    
C2    H14   S    
C75   N23   A    
C84   Br24  S    
C61   H29   S    
N27   Ni8   S    
C5    C77   A    
C36   C38   A    
C78   N26   A    
C1    N1    A    
C77   N25   A    
C18   C50   S    
C7    C79   A    
C3    N3    A    
C79   N27   A    
C10   C60   S    
C46   H26   S    
C16   C76   A    
C65   N13   A    
N3    N31   A    
N28   Ni7   S    
N2    N30   A    
C80   Br20  S    
C13   C73   A    
C76   Br16  S    
C4    H16   S    
C39   C43   S    
N9    N17   A    
C32   C36   A    
N17   Ni3   S    
N8    Ni4   S    
C4    C88   A    
C71   N19   A    
N25   Ni6   S    
N32   Ni8   S    
N6    N26   A    
C47   N7    A    
N19   Ni4   S    
C44   H20   S    
C6    C33   S    
N5    N25   A    
N7    N27   A    
N21   Ni1   S    
C66   H10   S    
C55   C86   S    
C18   C22   A    
C58   H6    S    
N2    Ni1   S    
C73   Br13  S    
C20   C52   S    
C25   Br25  S    
C56   Br12  S    
C53   Br9   S    
C24   C26   A    
C43   C51   S    
C56   C85   S    
C48   N8    A    
C5    C45   A    
C50   Br6   S    
C12   C64   A    
C46   N6    A    
C69   N17   A    
C44   Br4   S    
C56   C58   D    
C4    N4    A    
C53   C88   S    
C31   C35   A    
C23   C25   A    
C37   C41   S    
C52   Br8   S    
C12   C72   A    
C72   H36   S    
C17   C21   A    
C64   N12   A    
C43   Br3   S    
C32   H4    S    
C55   Br11  S    
N24   Ni2   S    
N14   N22   A    
C19   C51   S    
C70   N18   A    
N29   Ni5   S    
N15   Ni8   S    
C65   H9    S    
C19   C39   A    
N4    N32   A    
C8    C80   A    
C42   Br2   S    
N13   Ni6   S    
C34   C40   A    
C59   H7    S    
C60   H8    S    
C9    C59   S    
C11   C57   S    
C45   H25   S    
C48   H28   S    
C81   C85   A    
N18   Ni3   S    
N1    N29   A    
N30   Ni6   S    
