data_mof_unit_39179.cif
_audit_creation_date              2012-12-10T17:14:42-0500
_audit_creation_method            fapswitch 2.2
_symmetry_space_group_name_H-M    P1
_symmetry_Int_Tables_number       1
_space_group_crystal_system       triclinic
_cell_length_a                    10.627599
_cell_length_b                    12.940253
_cell_length_c                    11.664184
_cell_angle_alpha                 99.278413
_cell_angle_beta                  93.021941
_cell_angle_gamma                 90.542925
_cell_volume                      1580.65147569

loop_
_atom_site_label
_atom_site_type_symbol
_atom_type_description
_atom_site_fract_x
_atom_site_fract_y
_atom_site_fract_z
_atom_type_partial_charge
C1    C     C_R   0.507275 0.299719 0.479087 0.791812
C2    C     C_R   0.492731 0.700281 0.520912 0.791795
C3    C     C_R   0.456740 0.136982 0.546406 -0.285057
C4    C     C_R   0.543270 0.863018 0.453599 -0.285063
C5    C     C_R   0.464230 0.029495 0.542199 0.122082
C6    C     C_R   0.535779 0.970504 0.457807 0.122092
C7    C     C_R   0.374268 0.407686 0.024780 -0.344819
C8    C     C_R   0.625731 0.592314 0.975220 -0.344820
C9    C     C_R   0.387215 0.415763 0.146473 0.084489
C10   C     C_R   0.612787 0.584236 0.853527 0.084418
C11   C     C_R   0.555208 0.539091 0.155394 0.016672
C12   C     C_R   0.444788 0.460912 0.844606 0.016688
C13   C     C_R   0.545928 0.533305 0.033025 0.072079
C14   C     C_R   0.454070 0.466697 0.966975 0.072067
C15   C     C_R   0.259493 0.500235 0.501222 0.799643
C16   C     C_R   0.740507 0.499772 0.498779 0.799655
C17   C     C_3   0.043933 0.518341 0.611551 0.177075
C18   C     C_3   0.956068 0.481679 0.388449 0.177187
C19   C     C_3   0.959864 0.424121 0.555506 0.162931
C20   C     C_3   0.040138 0.575897 0.444494 0.163033
C21   C     C_3   0.876852 0.498880 0.496387 -0.147964
C22   C     C_3   0.123148 0.501137 0.503613 -0.147990
C23   C     C_3   0.960017 0.593857 0.552697 -0.237271
C24   C     C_3   0.039982 0.406161 0.447300 -0.237285
C25   C     C_R   0.478446 0.813050 0.531082 -0.092736
C26   C     C_R   0.521560 0.186949 0.468918 -0.092746
C27   C     C_R   0.600918 0.019759 0.379964 -0.191914
C28   C     C_R   0.399086 0.980238 0.620038 -0.191922
C29   C     C_R   0.599311 0.128884 0.387112 0.141706
C30   C     C_R   0.400690 0.871112 0.612883 0.141647
Cu1   Cu    Cu3+1 0.509400 0.507730 0.615930 0.916422
Cu2   Cu    Cu3+1 0.490600 0.492270 0.384070 0.916426
H1    H     H_    0.923801 0.670024 0.594872 0.142154
H2    H     H_    0.076198 0.329998 0.405114 0.142159
H3    H     H_    0.601133 0.817853 0.390391 0.147181
H4    H     H_    0.398878 0.182147 0.609615 0.147184
H5    H     H_    0.655477 0.973065 0.315428 0.141486
H6    H     H_    0.344520 0.026930 0.684570 0.141514
H7    H     H_    0.674743 0.629880 0.809639 0.129857
H8    H     H_    0.325261 0.370115 0.190361 0.129817
H9    H     H_    0.302432 0.355838 0.976456 0.136567
H10   H     H_    0.697568 0.644162 0.023544 0.136577
N1    N     N_R   0.523540 0.519360 0.790140 -0.181033
N2    N     N_R   0.476460 0.480640 0.209860 -0.181040
O1    O     O_R   0.506670 0.354460 0.582000 -0.578877
O2    O     O_R   0.493330 0.645540 0.418000 -0.578879
O3    O     O_R   0.490800 0.341410 0.386200 -0.594566
O4    O     O_R   0.509200 0.658590 0.613800 -0.594560
O5    O     O_R   0.324790 0.506500 0.597880 -0.603098
O6    O     O_R   0.675210 0.493500 0.402120 -0.603090
O7    O     O_R   0.308910 0.493440 0.402080 -0.583634
O8    O     O_R   0.691090 0.506560 0.597920 -0.583635
C31   C     C_3   0.906127 0.336063 0.612943 -0.366171
C32   C     C_3   0.007576 0.260733 0.643102 -0.865442
H11   H     H_    0.052577 0.223401 0.563387 0.246875
H12   H     H_    0.080710 0.302327 0.705458 0.246342
H13   H     H_    0.964018 0.198234 0.683746 0.245847
H14   H     H_    0.859042 0.369683 0.692657 0.213685
H15   H     H_    0.833229 0.291901 0.552344 0.195744
C33   C     C_3   0.093893 0.663966 0.387089 -0.366226
C34   C     C_3   0.992416 0.739182 0.356708 -0.865867
H16   H     H_    0.919605 0.697555 0.294081 0.246459
H17   H     H_    0.947047 0.776334 0.436254 0.246980
H18   H     H_    0.036004 0.801811 0.316332 0.245899
H19   H     H_    0.166633 0.708212 0.447786 0.195790
H20   H     H_    0.141171 0.630359 0.307485 0.213747
C35   C     C_3   0.098222 0.544002 0.737555 -0.360121
C36   C     C_3   0.996762 0.575278 0.823816 -0.857724
H21   H     H_    0.945838 0.644926 0.802683 0.242172
H22   H     H_    0.928379 0.510111 0.823383 0.254771
H23   H     H_    0.041636 0.595266 0.912909 0.243858
H24   H     H_    0.149420 0.475581 0.761261 0.199008
H25   H     H_    0.166705 0.610276 0.744324 0.206957
C37   C     C_3   0.901764 0.456015 0.262452 -0.360154
C38   C     C_3   0.003241 0.424952 0.176159 -0.857782
H26   H     H_    0.071338 0.490293 0.176489 0.254811
H27   H     H_    0.054480 0.355475 0.197341 0.242243
H28   H     H_    0.958344 0.404789 0.087092 0.243845
H29   H     H_    0.833425 0.389643 0.255658 0.206914
H30   H     H_    0.850401 0.524377 0.238805 0.199062
C39   C     C_3   0.317276 0.820204 0.691080 -0.399204
C40   C     C_3   0.180330 0.855719 0.684353 -0.880564
H31   H     H_    0.171432 0.936455 0.732140 0.248704
H32   H     H_    0.145463 0.853415 0.592654 0.263878
H33   H     H_    0.119527 0.803179 0.725068 0.245774
H34   H     H_    0.314016 0.733947 0.667398 0.215789
H35   H     H_    0.355907 0.839631 0.782491 0.207562
C41   C     C_3   0.682710 0.179779 0.308894 -0.399277
C42   C     C_3   0.819669 0.144313 0.315670 -0.880542
H36   H     H_    0.854555 0.146761 0.407388 0.263872
H37   H     H_    0.828605 0.063528 0.268016 0.248709
H38   H     H_    0.880427 0.196799 0.274842 0.245764
H39   H     H_    0.644104 0.160291 0.217481 0.207551
H40   H     H_    0.685926 0.266039 0.332516 0.215838
H41   H     H_    0.375121 0.409428 0.792696 0.111099
H42   H     H_    0.624870 0.590579 0.207304 0.111107

loop_
_geom_bond_atom_site_label_1
_geom_bond_atom_site_label_2
_ccdc_geom_bond_type
C11   H42   S    
C16   C21   S    
C27   C29   A    
C18   C21   S    
Cu1   O8    S    
C4    C25   A    
C31   H15   S    
C31   C32   S    
C2    O2    A    
C17   C23   S    
Cu1   N1    S    
C18   C24   S    
C19   C21   S    
C8    H10   S    
C12   N1    A    
C5    C6    A    
C35   H24   S    
C34   H17   S    
C29   C41   S    
C32   H11   S    
C15   C22   S    
Cu1   Cu2   S    
C36   H21   S    
C23   H1    S    
C12   H41   S    
C35   H25   S    
C15   O7    A    
C42   H37   S    
C39   H34   S    
C19   C31   S    
C15   O5    A    
C4    H3    S    
C33   H20   S    
C18   C37   S    
C37   H30   S    
C13   C14   A    
Cu1   O5    S    
C39   C40   S    
C41   H40   S    
C7    C14   A    
C32   H12   S    
C17   C35   S    
C37   C38   S    
C35   C36   S    
C4    C6    A    
C1    O3    A    
C2    O4    A    
C9    H8    S    
C24   H2    S    
C10   H7    S    
C34   H18   S    
C38   H26   S    
Cu2   O7    S    
C5    C28   A    
C6    C27   A    
C20   C23   S    
C28   H6    S    
Cu2   N2    S    
C11   N2    A    
C42   H38   S    
C38   H27   S    
Cu2   O6    S    
C39   H35   S    
C36   H22   S    
C20   C22   S    
C33   H19   S    
C40   H32   S    
Cu1   O4    S    
C21   C23   S    
C1    C26   S    
Cu2   O3    S    
C22   C24   S    
C20   C33   S    
C25   C30   A    
C7    C9    A    
C41   H39   S    
C9    N2    A    
C10   N1    A    
Cu2   O2    S    
C3    C26   A    
C16   O8    A    
C12   C14   A    
C3    C5    A    
C31   H14   S    
C40   H33   S    
C17   C22   S    
C37   H29   S    
C30   C39   S    
C28   C30   A    
C19   C24   S    
C11   C13   A    
C1    O1    A    
C3    H4    S    
C27   H5    S    
C36   H23   S    
C17   C19   S    
C2    C25   S    
C18   C20   S    
C7    H9    S    
C34   H16   S    
C16   O6    A    
C38   H28   S    
C8    C13   A    
C41   C42   S    
C26   C29   A    
C8    C10   A    
C40   H31   S    
Cu1   O1    S    
C33   C34   S    
C42   H36   S    
C32   H13   S    
