data_mof_unit_54453.cif
_audit_creation_date              2012-12-10T17:47:43-0500
_audit_creation_method            fapswitch 2.2
_symmetry_space_group_name_H-M    P1
_symmetry_Int_Tables_number       1
_space_group_crystal_system       triclinic
_cell_length_a                    10.672969
_cell_length_b                    10.65983
_cell_length_c                    9.902968
_cell_angle_alpha                 91.406542
_cell_angle_beta                  89.217857
_cell_angle_gamma                 90.547133
_cell_volume                      1126.18855562

loop_
_atom_site_label
_atom_site_type_symbol
_atom_type_description
_atom_site_fract_x
_atom_site_fract_y
_atom_site_fract_z
_atom_type_partial_charge
C1    C     C_R   0.509188 0.260081 0.498621 0.867801
C2    C     C_R   0.544700 0.063395 0.616979 0.058888
C3    C     C_R   0.516554 0.125973 0.497293 -0.120088
C4    C     C_R   0.257799 0.503734 0.500086 0.944615
C5    C     C_R   0.470065 0.060738 0.384615 -0.220745
C6    C     C_R   0.451753 0.933723 0.390262 -0.215648
C7    C     C_R   0.468969 0.873126 0.512041 -0.137782
C8    C     C_R   0.337788 0.336649 0.138673 -0.174034
C9    C     C_R   0.256926 0.257043 0.067727 -0.203460
C10   C     C_R   0.255244 0.258810 0.928176 -0.207999
C11   C     C_R   0.334819 0.339848 0.859173 -0.154532
C12   C     C_3   0.878310 0.501973 0.498070 0.032355
C13   C     C_R   0.418519 0.421133 0.927270 0.172139
C14   C     C_R   0.419308 0.420304 0.071707 0.162591
C15   C     C_R   0.579326 0.574138 0.072329 -0.131576
C16   C     C_R   0.487006 0.739537 0.503083 0.897600
C17   C     C_R   0.580277 0.573058 0.929109 -0.153838
C18   C     C_R   0.741896 0.499900 0.499052 0.905086
C19   C     C_3   0.072490 0.378502 0.557866 0.328964
C20   C     C_3   0.926594 0.374755 0.553424 -0.109352
C21   C     C_3   0.072045 0.622300 0.580122 0.328208
C22   C     C_3   0.072585 0.512319 0.350700 -0.336468
C23   C     C_3   0.926408 0.611874 0.593182 -0.089962
C24   C     C_3   0.120868 0.504531 0.498519 -0.070267
C25   C     C_3   0.122355 0.839921 0.592997 -0.350918
C26   C     C_3   0.857304 0.737801 0.575212 -0.806586
C27   C     C_3   0.372658 0.814054 0.811162 -0.897661
C28   C     C_3   0.162600 0.178127 0.559607 -0.352767
C29   C     C_3   0.874003 0.257835 0.476039 -0.773284
C30   C     C_3   0.930383 0.520860 0.352121 -0.403789
C31   C     C_R   0.616049 0.118991 0.722190 -0.162583
C32   C     C_R   0.618217 0.065250 0.848645 -0.199418
C33   C     C_R   0.544154 0.960255 0.873588 -0.158648
C34   C     C_R   0.477981 0.900409 0.768413 0.236522
C35   C     C_R   0.495061 0.942895 0.633175 0.061865
H1    H     H_    0.101642 0.377038 0.665936 0.029232
H2    H     H_    0.195321 0.193641 0.121545 0.161578
H3    H     H_    0.192225 0.196821 0.873003 0.136197
H4    H     H_    0.328846 0.336187 0.752831 0.205197
H5    H     H_    0.645048 0.633597 0.875838 0.156115
H6    H     H_    0.891809 0.366163 0.659473 0.113127
H7    H     H_    0.113159 0.620588 0.683168 0.043469
H8    H     H_    0.905093 0.585360 0.699289 0.113257
H9    H     H_    0.112908 0.595290 0.298909 0.213107
H10   H     H_    0.101328 0.428281 0.289373 0.209060
H11   H     H_    0.892070 0.449217 0.279896 0.186932
H12   H     H_    0.902156 0.613853 0.314791 0.191640
H13   H     H_    0.216294 0.881937 0.576936 0.187024
H14   H     H_    0.106898 0.824827 0.702805 0.147252
H15   H     H_    0.054482 0.910729 0.560285 0.184210
H16   H     H_    0.883484 0.805775 0.656740 0.221930
H17   H     H_    0.877819 0.778123 0.475007 0.261609
H18   H     H_    0.754447 0.727176 0.585867 0.228687
H19   H     H_    0.323341 0.768874 0.725754 0.256768
H20   H     H_    0.408276 0.739895 0.876062 0.252020
H21   H     H_    0.302483 0.868964 0.870950 0.214598
H22   H     H_    0.092759 0.155619 0.640076 0.144095
H23   H     H_    0.448257 0.107451 0.291983 0.174263
H24   H     H_    0.255217 0.198774 0.603671 0.172463
H25   H     H_    0.173877 0.093879 0.493058 0.199557
H26   H     H_    0.770425 0.258953 0.473204 0.194113
H27   H     H_    0.910540 0.251940 0.370668 0.265198
H28   H     H_    0.899466 0.170902 0.528068 0.233491
H29   H     H_    0.669868 0.204261 0.707478 0.160000
H30   H     H_    0.670549 0.109964 0.929699 0.147074
H31   H     H_    0.534981 0.927823 0.976160 0.141765
H32   H     H_    0.425489 0.882692 0.298784 0.174997
H33   H     H_    0.643655 0.635198 0.126798 0.146035
H34   H     H_    0.334025 0.328992 0.245409 0.225299
N1    N     N_R   0.498810 0.498800 0.142780 -0.122341
N2    N     N_R   0.498760 0.498720 0.857170 -0.123523
O1    O     O_R   0.500000 0.316780 0.614690 -0.639507
O2    O     O_3   0.125047 0.277832 0.479081 -0.594892
O3    O     O_R   0.499990 0.316750 0.385360 -0.636440
O4    O     O_R   0.314800 0.499990 0.614670 -0.672545
O5    O     O_R   0.314790 0.499970 0.385330 -0.632674
O6    O     O_R   0.500010 0.683250 0.614640 -0.617066
O7    O     O_R   0.500000 0.683220 0.385310 -0.617839
O8    O     O_R   0.685210 0.500030 0.614670 -0.636088
O9    O     O_R   0.685200 0.500010 0.385330 -0.625366
O10   O     O_3   0.110823 0.731192 0.509088 -0.586564
Zn1   Zn    Zn3+2 0.500010 0.500020 0.653130 0.915096
Zn2   Zn    Zn3+2 0.499990 0.499980 0.346870 0.933163

loop_
_geom_bond_atom_site_label_1
_geom_bond_atom_site_label_2
_ccdc_geom_bond_type
C2    C35   A    
C29   H28   S    
C19   C20   S    
O3    Zn2   S    
C20   H6    S    
C27   H19   S    
C28   H22   S    
C12   C23   S    
C8    H34   S    
C5    H23   S    
C1    O3    A    
C16   O6    A    
C19   H1    S    
C5    C6    A    
C4    C24   S    
C27   H20   S    
C23   H8    S    
C34   C35   A    
C23   C26   S    
C25   H15   S    
C4    O4    A    
O7    Zn2   S    
C22   H9    S    
C18   O8    A    
C9    C10   A    
N2    Zn1   S    
C13   C14   A    
C25   O10   S    
C14   N1    A    
O9    Zn2   S    
C28   O2    S    
O5    Zn2   S    
C33   H31   S    
C20   C29   S    
C28   H25   S    
C27   C34   S    
C29   H26   S    
C1    O1    A    
C30   H12   S    
C19   O2    S    
C27   H21   S    
C8    C9    A    
C13   N2    A    
C2    C31   A    
C1    C3    S    
C17   H5    S    
C26   H17   S    
C31   C32   A    
C12   C20   S    
C9    H2    S    
C33   C34   A    
C11   H4    S    
N1    Zn2   S    
C25   H13   S    
C6    H32   S    
C21   O10   S    
C17   N2    A    
C21   C23   S    
C22   C24   S    
C26   H18   S    
C28   H24   S    
C15   C17   A    
C15   N1    A    
C29   H27   S    
C7    C16   S    
C8    C14   A    
C22   C30   S    
C12   C30   S    
C7    C35   A    
C31   H29   S    
C30   H11   S    
C3    C5    A    
O8    Zn1   S    
O4    Zn1   S    
C6    C7    A    
C10   H3    S    
C32   C33   A    
C2    C3    A    
C26   H16   S    
C11   C13   A    
O6    Zn1   S    
C15   H33   S    
C19   C24   S    
C16   O7    A    
C25   H14   S    
C4    O5    A    
C10   C11   A    
C21   H7    S    
C22   H10   S    
C18   O9    A    
C21   C24   S    
C12   C18   S    
O1    Zn1   S    
C32   H30   S    
