data_mof_unit_68495.cif
_audit_creation_date              2012-12-11T14:30:50-0500
_audit_creation_method            fapswitch 2.2
_symmetry_space_group_name_H-M    P1
_symmetry_Int_Tables_number       1
_space_group_crystal_system       triclinic
_cell_length_a                    8.504804
_cell_length_b                    15.15377
_cell_length_c                    15.101548
_cell_angle_alpha                 96.697304
_cell_angle_beta                  100.669056
_cell_angle_gamma                 98.398929
_cell_volume                      1871.35215191

loop_
_atom_site_label
_atom_site_type_symbol
_atom_type_description
_atom_site_fract_x
_atom_site_fract_y
_atom_site_fract_z
_atom_type_partial_charge
Ba1   Ba    Ba6+2 0.154730 0.543770 0.458180 1.677278
Ba2   Ba    Ba6+2 0.655430 0.456220 0.541750 1.691410
C1    C     C_3   0.342041 0.936573 0.214612 -0.292705
C2    C     C_3   0.353775 0.844131 0.245464 0.439507
C3    C     C_3   0.635938 0.729143 0.683162 0.292307
C4    C     C_3   0.677230 0.831783 0.707368 0.327122
C5    C     C_3   0.998234 0.247778 0.839969 0.265156
C6    C     C_3   0.933308 0.154243 0.859855 0.032377
C7    C     C_3   0.421559 0.208220 0.770878 0.512934
C8    C     C_3   0.334206 0.129664 0.807086 -0.356063
C9    C     C_R   0.172035 0.168940 0.546601 -0.026457
C10   C     C_R   0.106440 0.075530 0.534971 -0.048323
C11   C     C_R   0.967690 0.888975 0.526120 -0.039016
C12   C     C_3   0.876823 0.761308 0.228163 0.482894
C13   C     C_R   0.130266 0.922806 0.566090 -0.027158
C14   C     C_R   0.199731 0.012284 0.565787 -0.116700
C15   C     C_R   0.897637 0.795636 0.521624 0.025399
C16   C     C_R   0.733713 0.768748 0.480271 -0.275892
C17   C     C_R   0.912275 0.201435 0.469997 0.010951
C18   C     C_R   0.843177 0.107945 0.462180 -0.023928
C19   C     C_R   0.940674 0.045020 0.495269 0.024059
C20   C     C_R   0.678523 0.075560 0.426589 -0.041758
C21   C     C_R   0.608811 0.987000 0.429327 -0.116182
C22   C     C_R   0.703661 0.922642 0.455845 -0.038623
C23   C     C_3   0.928401 0.844689 0.184576 0.117052
C24   C     C_R   0.871463 0.951543 0.490392 0.010468
C25   C     C_R   0.635740 0.830364 0.448927 0.005389
C26   C     C_R   0.073890 0.229734 0.515043 -0.264737
C27   C     C_R   0.248421 0.472586 0.767209 -0.260455
C28   C     C_R   0.151186 0.442595 0.825610 -0.014265
C29   C     C_R   0.213847 0.455798 0.919865 -0.169947
C30   C     C_R   0.376338 0.498101 0.957336 0.013318
C31   C     C_R   0.465708 0.539334 0.897259 0.080676
C32   C     C_R   0.401505 0.524323 0.802404 -0.000141
C33   C     C_R   0.623543 0.499539 0.084710 -0.075073
C34   C     C_3   0.844151 0.306261 0.255060 0.240327
C35   C     C_R   0.695060 0.505815 0.176737 0.026099
C36   C     C_R   0.427507 0.465897 0.209872 0.012348
C37   C     C_R   0.356259 0.476218 0.121038 -0.099629
C38   C     C_R   0.452766 0.492207 0.055402 0.031751
C39   C     C_R   0.597103 0.481303 0.237471 -0.289087
C40   C     C_3   0.773135 0.282412 0.153011 0.331555
C41   C     C_3   0.164200 0.710672 0.753736 0.485674
C42   C     C_3   0.279346 0.791017 0.818517 0.090194
C43   C     C_3   0.335927 0.255218 0.241275 0.457907
C44   C     C_3   0.238073 0.208028 0.146896 0.027860
H1    H     H_    0.656368 0.307120 0.137208 0.101115
H2    H     H_    0.235746 0.675845 0.710879 -0.016127
H3    H     H_    0.391273 0.809504 0.794615 0.111706
H4    H     H_    0.320195 0.772368 0.886820 0.041687
H5    H     H_    0.451532 0.294935 0.233654 0.053156
H6    H     H_    0.405070 0.944678 0.157162 0.162278
H7    H     H_    0.107203 0.210583 0.140570 0.167112
H8    H     H_    0.249459 0.135648 0.135620 0.112433
H9    H     H_    0.484162 0.842571 0.256514 0.038397
H10   H     H_    0.403542 0.991471 0.269741 0.068747
H11   H     H_    0.748854 0.701496 0.685285 0.047464
H12   H     H_    0.561622 0.710689 0.612790 -0.005276
H13   H     H_    0.769650 0.858380 0.669849 0.020026
H14   H     H_    0.216185 0.946664 0.192197 0.108772
H15   H     H_    0.072797 0.241897 0.787265 -0.064690
H16   H     H_    0.074475 0.285080 0.904141 0.085633
H17   H     H_    0.033125 0.119009 0.886975 0.133372
H18   H     H_    0.861878 0.161690 0.913973 0.162544
H19   H     H_    0.334575 0.255746 0.756157 -0.064204
H20   H     H_    0.281216 0.155874 0.864026 0.140506
H21   H     H_    0.419690 0.085796 0.833746 0.163031
H22   H     H_    0.970863 0.763573 0.290695 0.046633
H23   H     H_    0.239259 0.088854 0.751974 0.087364
H24   H     H_    0.205279 0.880718 0.599076 0.125137
H25   H     H_    0.327360 0.032419 0.591781 0.105684
H26   H     H_    0.478671 0.970255 0.411871 0.106644
H27   H     H_    0.599740 0.118970 0.399623 0.132206
H28   H     H_    0.678875 0.698986 0.476484 0.064618
H29   H     H_    0.126993 0.300254 0.522131 0.070231
H30   H     H_    0.706195 0.506663 0.039177 0.128381
H31   H     H_    0.134797 0.430292 0.962438 0.131486
H32   H     H_    0.226177 0.469717 0.104246 0.145280
H33   H     H_    0.652430 0.482377 0.308265 0.073684
H34   H     H_    0.198905 0.462621 0.694677 0.067372
H35   H     H_    0.991265 0.900357 0.239824 0.035977
H36   H     H_    0.008858 0.829271 0.137485 0.118169
H37   H     H_    0.867209 0.380545 0.272832 0.051698
H38   H     H_    0.956023 0.277230 0.271583 0.070460
O1    O     O_2   0.174080 0.723060 0.553930 -0.474115
O2    O     O_3   0.242266 0.308966 0.284830 -0.624409
O3    O     O_3   0.866662 0.682739 0.165955 -0.613774
O4    O     O_2   0.636200 0.276890 0.446040 -0.409256
O5    O     O_3   0.908720 0.390410 0.449080 -0.500669
O6    O     O_3   0.439930 0.334910 0.611650 -0.458476
O7    O     O_3   0.729728 0.270176 0.301889 -0.646157
O8    O     O_3   0.402060 0.547860 0.609750 -0.468161
O9    O     O_3   0.872630 0.381370 0.659060 -0.450285
O10   O     O_2   0.832028 0.456741 0.818610 -0.474438
O11   O     O_3   0.866756 0.291083 0.811473 -0.561690
O12   O     O_3   0.901570 0.609580 0.550840 -0.482881
O13   O     O_3   0.408220 0.452130 0.390170 -0.460113
O14   O     O_2   0.675490 0.547140 0.721820 -0.455235
O15   O     O_3   0.549821 0.695556 0.746262 -0.661825
O16   O     O_2   0.485042 0.180235 0.527785 -0.467795
O17   O     O_3   0.476105 0.174380 0.693552 -0.607301
O18   O     O_3   0.370350 0.665080 0.388270 -0.480654
O19   O     O_2   0.354995 0.814910 0.490744 -0.469155
O20   O     O_3   0.034888 0.740943 0.699964 -0.616630
O21   O     O_3   0.293653 0.837561 0.326233 -0.613566
O22   O     O_2   0.134790 0.452800 0.278150 -0.447480
O23   O     O_3   0.937650 0.618620 0.340860 -0.497203
O24   O     O_2   0.033579 0.557820 0.185443 -0.463717
P1    P     P_3+3 0.004200 0.709230 0.580350 0.978525
P2    P     P_3+3 0.305000 0.425570 0.290900 1.035369
P3    P     P_3+3 0.887160 0.586857 0.220782 0.977503
P4    P     P_3+3 0.806080 0.290760 0.419570 0.989485
P5    P     P_3+3 0.935939 0.393773 0.778210 1.008072
P6    P     P_3+3 0.416987 0.785291 0.405410 0.930775
P7    P     P_3+3 0.507092 0.578695 0.722412 0.932722
P8    P     P_3+3 0.388627 0.216314 0.596249 0.969956
N1    N     N_2   0.262221 0.771468 0.175049 -0.436589
H39   H     H_    0.238091 0.709902 0.196825 0.226297
C45   C     C_3   0.304553 0.766174 0.086410 -0.306138
H40   H     H_    0.255750 0.697997 0.046912 0.107702
H41   H     H_    0.437767 0.779672 0.093891 0.166075
H42   H     H_    0.251338 0.816653 0.048182 0.174389
Br1   Br    Br    0.915281 0.339512 0.082372 -0.679130
Br2   Br    Br    0.734002 0.152951 0.115410 -0.496769
N2    N     N_2   0.100627 0.647146 0.808904 -0.442823
H43   H     H_    0.192696 0.622830 0.847357 0.124378
C46   C     C_3   0.993781 0.676226 0.866434 -0.118689
H44   H     H_    0.971316 0.625064 0.911568 0.088680
H45   H     H_    0.877437 0.684051 0.824647 0.170184
H46   H     H_    0.049042 0.740678 0.911143 0.143549
Br3   Br    Br    0.186637 0.899354 0.838188 -0.587934
N3    N     N_2   0.376774 0.186826 0.297115 -0.398892
H47   H     H_    0.453370 0.148387 0.271714 0.195346
C47   C     C_3   0.243478 0.133454 0.325268 -0.187651
H48   H     H_    0.160245 0.090015 0.265848 0.094168
H49   H     H_    0.173386 0.177582 0.359676 0.118571
H50   H     H_    0.291710 0.089590 0.373800 0.107014
Br4   Br    Br    0.316931 0.257891 0.048827 -0.713059
Br5   Br    Br    0.770415 0.863149 0.838144 -0.519375
N4    N     N_2   0.531192 0.869188 0.680080 -0.444026
H51   H     H_    0.422635 0.825514 0.658686 0.215167
C48   C     C_3   0.521327 0.960470 0.714342 -0.182149
H52   H     H_    0.394408 0.964899 0.717965 0.116361
H53   H     H_    0.560204 0.005444 0.667138 0.126958
H54   H     H_    0.591624 0.982635 0.784453 0.205855
Br6   Br    Br    0.752244 0.890989 0.113011 -0.542250
N5    N     N_2   0.829662 0.100490 0.779205 -0.420541
H55   H     H_    0.736210 0.130788 0.750642 0.263450
C49   C     C_3   0.910015 0.059932 0.712992 -0.204635
H56   H     H_    0.983635 0.112848 0.686103 0.079722
H57   H     H_    0.818848 0.020138 0.655124 0.110895
H58   H     H_    0.985278 0.013228 0.743587 0.193170
N6    N     N_2   0.562333 0.251806 0.839741 -0.375221
H59   H     H_    0.613722 0.212552 0.884572 0.235461
C50   C     C_3   0.557736 0.341369 0.880394 -0.128160
H60   H     H_    0.672752 0.368921 0.929720 0.172657
H61   H     H_    0.455133 0.339800 0.915766 0.117783
H62   H     H_    0.543659 0.384373 0.826205 0.114866
N7    N     N_2   0.722444 0.769122 0.252121 -0.435708
H63   H     H_    0.732656 0.819917 0.304790 0.148121
C51   C     C_3   0.608208 0.688568 0.250440 -0.161659
H64   H     H_    0.491611 0.702957 0.259654 0.060602
H65   H     H_    0.652095 0.651735 0.306426 0.061301
H66   H     H_    0.578215 0.649719 0.181708 0.101567
N8    N     N_2   0.621653 0.592709 0.930742 -0.460510
H67   H     H_    0.702602 0.587926 0.888864 0.220875
C52   C     C_3   0.624271 0.683137 0.972885 -0.163613
H68   H     H_    0.567060 0.680943 0.032596 0.121420
H69   H     H_    0.752102 0.717847 0.996136 0.186565
H70   H     H_    0.560254 0.721225 0.923721 0.154366

loop_
_geom_bond_atom_site_label_1
_geom_bond_atom_site_label_2
_ccdc_geom_bond_type
C42   H3    S    
C19   C24   A    
N8    H67   S    
C50   H61   S    
C34   C40   S    
C17   C18   A    
O16   P8    D    
C22   C25   A    
C25   P6    S    
C41   N2    S    
C47   H50   S    
C51   H64   S    
C40   Br2   S    
C5    C6    S    
C52   H69   S    
C8    H21   S    
C42   Br3   S    
O5    P4    S    
Ba2   P4    S    
C3    H12   S    
C3    C4    S    
N5    C49   S    
C22   C24   A    
C12   O3    S    
O1    P1    D    
C49   H57   S    
N7    H63   S    
O15   P7    S    
O20   P1    S    
O3    P3    S    
C43   H5    S    
C34   H37   S    
C13   C14   A    
O22   P2    D    
Ba1   Ba2   S    
C4    Br5   S    
Ba2   O6    S    
C41   O20   S    
C5    H15   S    
N5    H55   S    
Ba1   P1    S    
C10   C14   A    
Ba2   O13   S    
N3    H47   S    
C21   C22   A    
N7    C51   S    
Ba2   O4    S    
C23   Br6   S    
O6    P8    S    
C36   P2    S    
C7    C8    S    
Ba1   O22   S    
C44   Br4   S    
C1    H14   S    
C8    H20   S    
N2    H43   S    
C7    N6    S    
N8    C52   S    
C50   H62   S    
C23   H35   S    
C48   H54   S    
C14   H25   S    
C4    H13   S    
C51   H65   S    
O10   P5    D    
C40   Br1   S    
C29   H31   S    
C52   H70   S    
C45   H41   S    
Ba1   O1    S    
C36   C37   A    
C33   H30   S    
C33   C38   A    
C37   H32   S    
C3    O15   S    
O21   P6    S    
O19   P6    D    
N4    H51   S    
C36   C39   A    
C49   H58   S    
Ba1   O13   S    
C37   C38   A    
C47   H49   S    
C32   P7    S    
C43   C44   S    
C27   C32   A    
O7    P4    S    
Ba2   O5    S    
C41   C42   S    
C46   H45   S    
C5    H16   S    
C27   C28   A    
O18   P6    S    
Ba1   P2    S    
C1    H10   S    
C29   C30   A    
C1    H6    S    
C44   H8    S    
C15   C16   A    
C17   P4    S    
Ba2   O8    S    
C17   C26   A    
O12   P1    S    
C6    H18   S    
N3    C47   S    
C34   O7    S    
C7    O17   S    
Ba1   O23   S    
Ba1   O8    S    
C11   C13   A    
C2    H9    S    
C23   H36   S    
C48   H53   S    
C2    N1    S    
C6    N5    S    
N6    C50   S    
C46   H44   S    
C52   H68   S    
C51   H66   S    
C33   C35   A    
C41   H2    S    
C45   H42   S    
C42   H4    S    
C13   H24   S    
Ba1   O5    S    
O2    P2    S    
C48   H52   S    
O23   P3    S    
C21   H26   S    
Ba2   O9    S    
C31   N8    S    
C16   C25   A    
C34   H38   S    
C18   C20   A    
C4    N4    S    
C15   P1    S    
C39   H33   S    
C45   H40   S    
C47   H48   S    
N4    C48   S    
C11   C15   A    
C5    O11   S    
C2    O21   S    
O24   P3    D    
C3    H11   S    
C12   N7    S    
C30   C31   A    
N1    C45   S    
C43   O2    S    
C46   H46   S    
C9    P8    S    
C49   H56   S    
O13   P2    S    
O14   P7    D    
C28   C29   A    
C27   H34   S    
C9    C26   A    
O11   P5    S    
Ba1   O12   S    
C10   C19   A    
C44   H7    S    
Ba2   O12   S    
C31   C32   A    
O9    P5    S    
C40   H1    S    
C30   C38   S    
C12   C23   S    
C35   C39   A    
C11   C24   A    
O8    P7    S    
C7    H19   S    
C35   P3    S    
C6    H17   S    
O4    P4    D    
C8    H23   S    
C18   C19   A    
Ba2   O14   S    
C43   N3    S    
C16   H28   S    
C50   H60   S    
N2    C46   S    
O17   P8    S    
C12   H22   S    
C20   C21   A    
C20   H27   S    
N6    H59   S    
N1    H39   S    
C26   H29   S    
Ba1   O18   S    
C1    C2    S    
C9    C10   A    
C28   P5    S    
