data_mof_unit_12855.cif
_audit_creation_date              2012-12-10T16:50:09-0500
_audit_creation_method            fapswitch 2.2
_symmetry_space_group_name_H-M    P1
_symmetry_Int_Tables_number       1
_space_group_crystal_system       triclinic
_cell_length_a                    23.491969
_cell_length_b                    8.736346
_cell_length_c                    7.613325
_cell_angle_alpha                 103.023778
_cell_angle_beta                  96.224444
_cell_angle_gamma                 95.622815
_cell_volume                      1501.20932128

loop_
_atom_site_label
_atom_site_type_symbol
_atom_type_description
_atom_site_fract_x
_atom_site_fract_y
_atom_site_fract_z
_atom_type_partial_charge
C1    C     C_R   0.497962 0.200424 0.453541 0.778719
C2    C     C_R   0.501986 0.799565 0.546457 0.778326
C3    C     C_R   0.238637 0.572606 0.376216 -0.180915
C4    C     C_R   0.754092 0.478388 0.333670 -0.175618
C5    C     C_R   0.297833 0.570205 0.375900 -0.226309
C6    C     C_R   0.695048 0.480675 0.335796 -0.211706
C7    C     C_R   0.328871 0.498533 0.495983 -0.032475
C8    C     C_R   0.671643 0.497845 0.500335 -0.047164
C9    C     C_R   0.300013 0.426961 0.614174 -0.283214
C10   C     C_R   0.708619 0.511867 0.662669 -0.277901
C11   C     C_R   0.240346 0.426576 0.613305 0.309348
C12   C     C_R   0.768177 0.509313 0.661448 0.301637
C13   C     C_R   0.209496 0.500196 0.493105 0.336076
C14   C     C_R   0.790911 0.493133 0.495298 0.347347
C15   C     C_2   0.495914 0.032375 0.428117 0.283253
C16   C     C_2   0.503955 0.967599 0.571893 0.284999
C17   C     C_R   0.391304 0.498933 0.498747 0.766384
C18   C     C_R   0.608910 0.500108 0.500747 0.771266
C19   C     C_R   0.887298 0.635405 0.552493 0.575411
C20   C     C_R   0.112498 0.360568 0.419020 0.570093
C21   C     C_R   0.873008 0.356858 0.419661 0.506012
C22   C     C_R   0.126693 0.639594 0.549006 0.520201
C23   C     C_R   0.932504 0.355195 0.415924 -0.018147
C24   C     C_R   0.067046 0.641991 0.547957 -0.016720
C25   C     C_R   0.969739 0.498074 0.482415 -0.015298
C26   C     C_R   0.029826 0.499059 0.481885 -0.017097
C27   C     C_R   0.947050 0.639878 0.550013 -0.023777
C28   C     C_R   0.052566 0.357015 0.415912 -0.022736
C29   C     C_R   0.955592 0.214415 0.349122 -0.158233
C30   C     C_R   0.043889 0.783109 0.612715 -0.154086
C31   C     C_R   0.015021 0.215273 0.349352 -0.172024
C32   C     C_R   0.984504 0.782042 0.613882 -0.172752
Cu1   Cu    Cu3+1 0.506340 0.517380 0.684380 1.024651
Cu2   Cu    Cu3+1 0.493660 0.482620 0.315620 1.021817
H1    H     H_    0.927888 0.103013 0.297514 0.196330
H2    H     H_    0.071566 0.894637 0.663592 0.197238
H3    H     H_    0.031421 0.104497 0.297935 0.190044
H4    H     H_    0.968108 0.892765 0.665593 0.189230
H5    H     H_    0.215109 0.630200 0.284827 0.163331
H6    H     H_    0.771467 0.466523 0.206125 0.148420
H7    H     H_    0.319549 0.626581 0.284164 0.169427
H8    H     H_    0.667822 0.469158 0.208154 0.171131
H9    H     H_    0.323738 0.370148 0.705943 0.138275
H10   H     H_    0.691504 0.523279 0.790458 0.150200
N1    N     N_R   0.851812 0.495095 0.489721 -0.458197
N2    N     N_R   0.148190 0.500035 0.486988 -0.459703
N3    N     N_2   0.484110 0.456420 0.038520 0.034370
N4    N     N_2   0.515890 0.543580 0.961480 0.032347
O1    O     O_R   0.504120 0.286130 0.619770 -0.570549
O2    O     O_R   0.495880 0.713870 0.380230 -0.571100
O3    O     O_R   0.493410 0.256770 0.308360 -0.525920
O4    O     O_R   0.506590 0.743230 0.691640 -0.525503
O5    O     O_R   0.423230 0.514630 0.655730 -0.604142
O6    O     O_R   0.576770 0.485370 0.344270 -0.613926
O7    O     O_R   0.412530 0.485280 0.344320 -0.599790
O8    O     O_R   0.587470 0.514720 0.655680 -0.597123
O9    O     O_2   0.864739 0.770019 0.616470 -0.526841
O10   O     O_2   0.134986 0.226015 0.354221 -0.528822
O11   O     O_2   0.836636 0.221255 0.356173 -0.532176
O12   O     O_2   0.163041 0.775090 0.613855 -0.531026
N5    N     N_2   0.211447 0.350302 0.731201 -0.404343
H11   H     H_    0.230316 0.254906 0.758523 0.268962
C33   C     C_3   0.200436 0.456789 0.895389 -0.668183
H12   H     H_    0.177239 0.388467 0.978401 0.243001
H13   H     H_    0.173120 0.545850 0.862503 0.247408
H14   H     H_    0.241884 0.518296 0.976294 0.218405
N6    N     N_2   0.805190 0.527369 0.827602 -0.425845
H15   H     H_    0.790777 0.596482 0.938512 0.252819
C34   C     C_3   0.821413 0.380618 0.863196 -0.639862
H16   H     H_    0.851813 0.406445 0.991563 0.227274
H17   H     H_    0.843343 0.317273 0.751889 0.258235
H18   H     H_    0.782600 0.303191 0.877652 0.231151
F1    F     F_    0.484826 0.943621 0.253457 -0.625501
F2    F     F_    0.514991 0.056347 0.746567 -0.625154
N7    N     N_2   0.449296 0.324884 0.928559 -0.237408
H19   H     H_    0.438467 0.328449 0.797956 0.283616
C35   C     C_3   0.397070 0.275745 0.996197 -0.503780
H20   H     H_    0.371315 0.175766 0.892288 0.172654
H21   H     H_    0.370229 0.374344 0.020982 0.191839
H22   H     H_    0.406227 0.230822 0.118929 0.261478
N8    N     N_2   0.550064 0.676091 0.071833 -0.235935
H23   H     H_    0.561201 0.671454 0.201916 0.285735
C36   C     C_3   0.602306 0.726826 0.005694 -0.498375
H24   H     H_    0.626984 0.829363 0.108617 0.183926
H25   H     H_    0.593423 0.768240 0.880488 0.259828
H26   H     H_    0.629905 0.630131 0.986225 0.173161

loop_
_geom_bond_atom_site_label_1
_geom_bond_atom_site_label_2
_ccdc_geom_bond_type
C33   H13   S    
N8    H23   S    
C35   H20   S    
C19   O9    S    
Cu1   O4    S    
Cu2   O3    S    
C16   F2    S    
C23   C29   A    
C24   C26   A    
C21   O11   S    
C22   O12   S    
C13   N2    S    
Cu1   O1    S    
C15   C16   D    
C22   N2    A    
N4    N8    S    
C34   H17   S    
N5    C33   S    
C2    O2    A    
C36   H24   S    
C7    C17   S    
C1    C15   S    
C32   H4    S    
C2    C16   S    
C17   O7    A    
C3    C13   A    
C18   O8    A    
Cu1   O8    S    
C33   H14   S    
C3    H5    S    
Cu2   O7    S    
N5    H11   S    
C10   C12   A    
N8    C36   S    
C14   N1    S    
C21   N1    A    
C35   H21   S    
Cu1   O5    S    
C12   N6    S    
C9    H9    S    
Cu2   O2    S    
C10   H10   S    
N6    H15   S    
C4    H6    S    
C4    C6    A    
C5    C7    A    
C6    C8    A    
C20   C28   A    
C3    C5    A    
C25   C26   A    
C8    C18   S    
C31   H3    S    
N6    C34   S    
C34   H18   S    
N7    H19   S    
C1    O3    A    
N3    N4    D    
Cu1   Cu2   S    
C9    C11   A    
C2    O4    A    
C36   H25   S    
C12   C14   A    
Cu2   O6    S    
C21   C23   A    
C22   C24   A    
C20   O10   S    
C17   O5    A    
C19   C27   A    
C35   H22   S    
C7    C9    A    
C5    H7    S    
C15   F1    S    
C27   C32   A    
C28   C31   A    
C11   N5    S    
C19   N1    A    
C25   C27   A    
C29   H1    S    
C26   C28   A    
C30   H2    S    
N3    N7    S    
C29   C31   A    
C30   C32   A    
C11   C13   A    
C23   C25   A    
C4    C14   A    
C34   H16   S    
C24   C30   A    
C18   O6    A    
C33   H12   S    
C36   H26   S    
C8    C10   A    
C6    H8    S    
N7    C35   S    
Cu1   N4    S    
Cu2   N3    S    
C1    O1    A    
C20   N2    A    
