data_mof_unit_52471.cif
_audit_creation_date              2012-12-11T16:28:31-0500
_audit_creation_method            fapswitch 2.2
_symmetry_space_group_name_H-M    P1
_symmetry_Int_Tables_number       1
_space_group_crystal_system       triclinic
_cell_length_a                    17.001038
_cell_length_b                    7.252484
_cell_length_c                    14.815475
_cell_angle_alpha                 90.002078
_cell_angle_beta                  94.57749
_cell_angle_gamma                 89.99682
_cell_volume                      1820.91770065

loop_
_atom_site_label
_atom_site_type_symbol
_atom_type_description
_atom_site_fract_x
_atom_site_fract_y
_atom_site_fract_z
_atom_type_partial_charge
O1    O     O_R   0.663460 0.361760 0.165970 -0.537967
O2    O     O_R   0.336540 0.638240 0.834030 -0.537976
O3    O     O_R   0.836540 0.861760 0.334030 -0.537960
O4    O     O_R   0.163460 0.138240 0.665970 -0.537958
O5    O     O_R   0.827100 0.689870 0.163730 -0.512725
O6    O     O_R   0.172900 0.310130 0.836270 -0.512728
O7    O     O_R   0.672900 0.189870 0.336270 -0.512750
O8    O     O_R   0.327100 0.810130 0.663730 -0.512749
C1    C     C_R   0.854450 0.523144 0.145036 0.748801
C2    C     C_R   0.145554 0.476856 0.854969 0.748770
C3    C     C_R   0.645542 0.023151 0.354955 0.748914
C4    C     C_R   0.354458 0.976849 0.645046 0.748917
O9    O     O_R   0.663490 0.691370 0.155500 -0.523844
O10   O     O_R   0.336510 0.308630 0.844500 -0.523838
O11   O     O_R   0.836510 0.191370 0.344500 -0.523923
O12   O     O_R   0.163490 0.808630 0.655500 -0.523922
O13   O     O_R   0.671770 0.863320 0.325740 -0.538076
O14   O     O_R   0.328230 0.136680 0.674260 -0.538076
O15   O     O_R   0.828230 0.363320 0.174260 -0.538149
O16   O     O_R   0.171770 0.636680 0.825740 -0.538153
C5    C     C_R   0.639620 0.523572 0.128953 0.727771
C6    C     C_R   0.360378 0.476428 0.871046 0.727756
C7    C     C_R   0.860398 0.023570 0.371018 0.727844
C8    C     C_R   0.139601 0.976430 0.628983 0.727847
O17   O     O_3   0.752910 0.528800 0.305860 -0.368237
O18   O     O_3   0.247090 0.471200 0.694140 -0.368237
O19   O     O_3   0.747090 0.028800 0.194140 -0.368203
O20   O     O_3   0.252910 0.971200 0.805860 -0.368200
V1    V     V_3+5 0.749460 0.803010 0.239640 1.558288
V2    V     V_3+5 0.250540 0.196990 0.760360 1.558293
V3    V     V_3+5 0.750540 0.303010 0.260360 1.558200
V4    V     V_3+5 0.249460 0.696990 0.739640 1.558192
C9    C     C_1   0.469282 0.994640 0.530662 0.129957
C10   C     C_1   0.530719 0.005361 0.469339 0.129955
C11   C     C_1   0.030728 0.494649 0.969350 0.130216
C12   C     C_1   0.969281 0.505348 0.030662 0.130224
H1    H     H_    0.790265 0.006112 0.697130 0.195121
H2    H     H_    0.209733 0.993888 0.302870 0.195133
H3    H     H_    0.709569 0.509335 0.802672 0.195338
H4    H     H_    0.290415 0.490726 0.197301 0.195334
C13   C     C_R   0.014808 0.063326 0.313537 -0.200096
C14   C     C_R   0.985190 0.936674 0.686464 -0.200093
C15   C     C_R   0.485222 0.561737 0.186596 -0.200059
C16   C     C_R   0.514769 0.438327 0.813390 -0.200060
C17   C     C_R   0.087930 0.061146 0.278340 0.280489
C18   C     C_R   0.912068 0.938855 0.721660 0.280497
C19   C     C_R   0.412139 0.558665 0.221864 0.280349
C20   C     C_R   0.587844 0.441430 0.778112 0.280321
C21   C     C_R   0.154133 0.010266 0.332962 -0.108298
C22   C     C_R   0.845865 0.989734 0.667037 -0.108305
C23   C     C_R   0.345966 0.507759 0.167202 -0.108494
C24   C     C_R   0.654022 0.492311 0.832774 -0.108503
C25   C     C_R   0.148675 0.968349 0.424269 0.182656
C26   C     C_R   0.851323 0.031654 0.575731 0.182651
C27   C     C_R   0.351399 0.466753 0.075796 0.182753
C28   C     C_R   0.648599 0.533248 0.924189 0.182766
C29   C     C_R   0.076103 0.992100 0.465358 0.015274
C30   C     C_R   0.923896 0.007901 0.534642 0.015278
C31   C     C_R   0.423923 0.491283 0.034685 0.015179
C32   C     C_R   0.576077 0.508729 0.965305 0.015171
C33   C     C_R   0.006821 0.025930 0.406302 -0.011331
C34   C     C_R   0.993178 0.974070 0.593699 -0.011332
C35   C     C_R   0.493198 0.525112 0.093752 -0.011335
C36   C     C_R   0.506797 0.474911 0.906239 -0.011342
C37   C     C_R   0.069321 0.978223 0.560827 -0.105014
C38   C     C_R   0.930678 0.021778 0.439174 -0.105012
C39   C     C_R   0.430678 0.478223 0.939177 -0.105010
C40   C     C_R   0.569321 0.521781 0.060816 -0.105034
C41   C     C_1   0.417080 0.985931 0.582728 -0.080643
C42   C     C_1   0.582920 0.014069 0.417273 -0.080643
C43   C     C_1   0.082934 0.485947 0.917290 -0.080640
C44   C     C_1   0.917073 0.514052 0.082720 -0.080621
H5    H     H_    0.964585 0.096299 0.266945 0.142557
H6    H     H_    0.035413 0.903702 0.733056 0.142557
H7    H     H_    0.535430 0.594769 0.233193 0.142531
H8    H     H_    0.464559 0.405298 0.766794 0.142533
Br1   Br    Br    0.237151 0.832290 0.475675 -0.504025
Br2   Br    Br    0.762849 0.167721 0.524326 -0.504040
Br3   Br    Br    0.262934 0.331077 0.024167 -0.503823
Br4   Br    Br    0.737104 0.668815 0.975846 -0.503826
Br5   Br    Br    0.096053 0.111573 0.152806 -0.491164
Br6   Br    Br    0.903943 0.888428 0.847195 -0.491144
Br7   Br    Br    0.404058 0.608071 0.347493 -0.490431
Br8   Br    Br    0.595914 0.392085 0.652478 -0.490443

loop_
_geom_bond_atom_site_label_1
_geom_bond_atom_site_label_2
_ccdc_geom_bond_type
O17   V3    S    
C4    C41   S    
O1    C5    A    
C20   Br8   S    
C27   C31   A    
O19   V1    S    
O13   V1    S    
O3    C7    A    
C11   C12   S    
C1    C44   S    
C13   C33   A    
O15   V3    S    
C3    C42   S    
C15   C35   A    
H2    C21   S    
C16   C36   A    
O7    C3    A    
C22   C26   A    
C7    C38   S    
O9    V1    S    
C26   C30   A    
O4    C8    A    
O1    V3    S    
O2    V4    S    
C14   C18   A    
O3    V1    S    
C31   C39   A    
C18   Br6   S    
C33   C38   A    
C30   C38   A    
C2    O16   A    
O2    C6    A    
O14   V2    S    
C19   Br7   S    
C10   C42   T    
C9    C41   T    
C2    C43   S    
O11   C7    A    
H3    C24   S    
C11   C43   T    
O12   C8    A    
O10   V2    S    
C1    O15   A    
O5    V1    S    
C15   H7    S    
C14   H6    S    
O7    V3    S    
O8    V4    S    
C36   C39   A    
C25   C29   A    
O18   V4    S    
C19   C23   A    
C28   C32   A    
C25   Br1   S    
O5    C1    A    
C27   Br3   S    
C17   C21   A    
O8    C4    A    
C9    C10   S    
O9    C5    A    
C29   C33   A    
C30   C34   A    
C8    C37   S    
O6    V2    S    
C5    C40   S    
O16   V4    S    
C14   C34   A    
C35   C40   A    
C3    O13   A    
C34   C37   A    
C17   Br5   S    
C29   C37   A    
O6    C2    A    
O11   V3    S    
O12   V4    S    
H4    C23   S    
C18   C22   A    
C31   C35   A    
C28   Br4   S    
C32   C36   A    
O10   C6    A    
O20   V2    S    
H1    C22   S    
C24   C28   A    
C21   C25   A    
C23   C27   A    
C6    C39   S    
C13   H5    S    
C16   C20   A    
C20   C24   A    
C32   C40   A    
C4    O14   A    
C13   C17   A    
C16   H8    S    
C15   C19   A    
O4    V2    S    
C12   C44   T    
C26   Br2   S    
