data_mof_unit_39815.cif
_audit_creation_date              2012-12-10T17:42:43-0500
_audit_creation_method            fapswitch 2.2
_symmetry_space_group_name_H-M    P1
_symmetry_Int_Tables_number       1
_space_group_crystal_system       triclinic
_cell_length_a                    9.895492
_cell_length_b                    10.724823
_cell_length_c                    13.066297
_cell_angle_alpha                 91.354133
_cell_angle_beta                  69.596546
_cell_angle_gamma                 88.932256
_cell_volume                      1298.79495661

loop_
_atom_site_label
_atom_site_type_symbol
_atom_type_description
_atom_site_fract_x
_atom_site_fract_y
_atom_site_fract_z
_atom_type_partial_charge
C1    C     C_R   0.499961 0.740393 0.494808 0.864833
C2    C     C_R   0.367802 0.486849 0.823149 -0.119396
C3    C     C_R   0.236840 0.895679 0.499302 -0.163448
C4    C     C_R   0.419755 0.494598 0.704399 0.842351
C5    C     C_R   0.104795 0.961052 0.540995 -0.144890
C6    C     C_R   0.095446 0.074831 0.596302 -0.155194
C7    C     C_R   0.220649 0.128827 0.599852 -0.153324
C8    C     C_R   0.357034 0.068223 0.548412 0.104122
C9    C     C_R   0.362653 0.943615 0.512994 0.099910
C10   C     C_R   0.494551 0.874627 0.492652 -0.124872
C11   C     C_R   0.621001 0.935164 0.486425 -0.215757
C12   C     C_R   0.436862 0.484186 0.983428 0.109966
C13   C     C_R   0.619205 0.062089 0.499417 -0.219004
C14   C     C_R   0.488931 0.129297 0.526628 -0.133717
C15   C     C_R   0.791662 0.663265 0.645582 -0.149423
C16   C     C_R   0.495673 0.261295 0.511159 0.876265
C17   C     C_R   0.827565 0.738874 0.719741 -0.189094
C18   C     C_R   0.966575 0.734986 0.721507 -0.188160
C19   C     C_R   0.070939 0.656634 0.648138 -0.181067
C20   C     C_R   0.037984 0.577978 0.572797 0.145443
C21   C     C_R   0.893604 0.579470 0.572080 0.173872
C22   C     C_R   0.961748 0.424287 0.430974 -0.139384
C23   C     C_R   0.462448 0.444190 0.874957 0.075125
C24   C     C_R   0.105055 0.424607 0.430763 -0.113276
C25   C     C_R   0.580601 0.500311 0.295656 0.862202
C26   C     C_R   0.768557 0.355961 0.020355 -0.195299
C27   C     C_R   0.633042 0.485358 0.177694 -0.147848
C28   C     C_R   0.231957 0.538512 0.885871 -0.202276
C29   C     C_R   0.194726 0.554874 0.998415 -0.139696
C30   C     C_R   0.297097 0.530355 0.046986 -0.106446
C31   C     C_2   0.480641 0.661640 0.154501 0.356129
C32   C     C_R   0.549769 0.470253 0.025628 0.072613
C33   C     C_R   0.667770 0.386746 0.971217 0.149531
C34   C     C_R   0.681327 0.332719 0.869962 -0.234765
C35   C     C_R   0.581541 0.363025 0.821198 -0.191946
C36   C     C_R   0.549241 0.534892 0.120849 -0.072458
C37   C     C_R   0.746758 0.400129 0.125920 -0.196815
H1    H     H_    0.814253 0.363636 0.168763 0.156942
H2    H     H_    0.994586 0.794760 0.778591 0.159210
H3    H     H_    0.176694 0.661340 0.651510 0.210495
H4    H     H_    0.770071 0.268208 0.827803 0.142017
H5    H     H_    0.186148 0.362956 0.374264 0.157528
H6    H     H_    0.857499 0.290745 0.980601 0.141580
H7    H     H_    0.156304 0.568878 0.847756 0.158895
H8    H     H_    0.265356 0.545880 0.134401 0.132713
H9    H     H_    0.088751 0.591997 0.047372 0.149860
H10   H     H_    0.595472 0.318526 0.742828 0.166143
H11   H     H_    0.722883 0.884780 0.469250 0.170225
H12   H     H_    0.238028 0.811170 0.452658 0.171156
H13   H     H_    0.455820 0.698006 0.237402 0.072741
H14   H     H_    0.009255 0.922265 0.531808 0.145921
H15   H     H_    0.992158 0.123417 0.632847 0.133948
H16   H     H_    0.209943 0.218137 0.642672 0.154067
H17   H     H_    0.720715 0.107561 0.485446 0.168838
H18   H     H_    0.934939 0.362465 0.374689 0.142109
H19   H     H_    0.683405 0.674554 0.648508 0.209168
H20   H     H_    0.747055 0.801651 0.775639 0.168691
N1    N     N_R   0.856860 0.501200 0.500990 -0.117650
N2    N     N_R   0.142450 0.501280 0.501020 -0.123688
O1    O     O_R   0.385310 0.683220 0.500000 -0.651832
O2    O     O_R   0.614640 0.683250 0.500010 -0.633552
O3    O     O_R   0.328400 0.499950 0.653610 -0.636776
O4    O     O_R   0.557730 0.499970 0.653620 -0.624633
O5    O     O_R   0.385360 0.316750 0.499990 -0.612010
O6    O     O_R   0.614690 0.316780 0.500000 -0.623280
O7    O     O_R   0.442270 0.500030 0.346380 -0.619727
O8    O     O_R   0.671600 0.500050 0.346390 -0.602109
O9    O     O_2   0.459782 0.730270 0.087899 -0.564470
Zn1   Zn    Zn3+2 0.346880 0.499980 0.499990 0.916154
Zn2   Zn    Zn3+2 0.653120 0.500020 0.500010 0.926519

loop_
_geom_bond_atom_site_label_1
_geom_bond_atom_site_label_2
_ccdc_geom_bond_type
O2    Zn2   S    
C22   N1    A    
C2    C4    S    
C18   H2    S    
C26   C37   A    
C22   H18   S    
C3    C9    A    
C14   C16   S    
C16   O5    A    
C27   C36   A    
C25   C27   S    
C24   H5    S    
C9    C10   A    
C30   H8    S    
C19   C20   A    
C12   C23   A    
O4    Zn2   S    
C29   H9    S    
O8    Zn2   S    
C35   H10   S    
C32   C33   A    
C17   H20   S    
C33   C34   A    
C3    H12   S    
C7    C8    A    
C6    H15   S    
O5    Zn1   S    
C12   C32   A    
C20   N2    A    
C11   C13   A    
C4    O4    A    
C11   H11   S    
C29   C30   A    
C34   H4    S    
O1    Zn1   S    
N2    Zn1   S    
C24   N2    A    
C32   C36   A    
C28   C29   A    
C37   H1    S    
C27   C37   A    
C26   H6    S    
C17   C18   A    
C6    C7    A    
C23   C35   A    
C5    C6    A    
C34   C35   A    
C15   H19   S    
C22   C24   A    
O7    Zn1   S    
C2    C28   A    
C10   C11   A    
C7    H16   S    
C31   H13   S    
O6    Zn2   S    
C4    O3    A    
C25   O7    A    
C15   C21   A    
C20   C21   A    
C25   O8    A    
C13   H17   S    
C19   H3    S    
C1    O1    A    
C5    H14   S    
C2    C23   A    
C15   C17   A    
C31   C36   S    
C18   C19   A    
C8    C14   A    
C16   O6    A    
C26   C33   A    
C12   C30   A    
C13   C14   A    
C31   O9    D    
C28   H7    S    
N1    Zn2   S    
C21   N1    A    
O3    Zn1   S    
C1    C10   S    
C8    C9    A    
C3    C5    A    
C1    O2    A    
