data_mof_unit_38360.cif
_audit_creation_date              2012-12-11T15:42:45-0500
_audit_creation_method            fapswitch 2.2
_symmetry_space_group_name_H-M    P1
_symmetry_Int_Tables_number       1
_space_group_crystal_system       triclinic
_cell_length_a                    6.926808
_cell_length_b                    14.547507
_cell_length_c                    16.221688
_cell_angle_alpha                 90.541662
_cell_angle_beta                  89.758317
_cell_angle_gamma                 89.868221
_cell_volume                      1634.53155267

loop_
_atom_site_label
_atom_site_type_symbol
_atom_type_description
_atom_site_fract_x
_atom_site_fract_y
_atom_site_fract_z
_atom_type_partial_charge
O1    O     O_R   0.505810 0.583360 0.413880 -0.541844
O2    O     O_R   0.175870 0.595480 0.585520 -0.543396
O3    O     O_R   0.005540 0.416640 0.586120 -0.528612
C1    C     C_R   0.344448 0.617673 0.614524 0.704310
O4    O     O_R   0.176100 0.594390 0.414490 -0.546471
O5    O     O_R   0.005770 0.415540 0.413870 -0.516268
C2    C     C_R   0.345415 0.616479 0.385912 0.719018
O6    O     O_R   0.505580 0.584460 0.586130 -0.544332
O7    O     O_3   0.339190 0.441320 0.500000 -0.345267
V1    V     V_3+5 0.064350 0.510890 0.500000 1.490002
O8    O     O_R   0.676050 0.404520 0.414480 -0.526122
C3    C     C_R   0.845847 0.383556 0.384663 0.700224
O9    O     O_R   0.675830 0.405610 0.585510 -0.547157
C4    C     C_R   0.844749 0.387233 0.615936 0.721859
V2    V     V_3+5 0.564340 0.489110 0.500000 1.501537
O10   O     O_3   0.839370 0.558680 0.500000 -0.385270
C5    C     C_2   0.723940 0.224265 0.794435 0.026602
C6    C     C_2   0.882032 0.176338 0.818873 -0.263860
H1    H     H_    0.010992 0.177959 0.780563 0.142325
C7    C     C_2   0.724716 0.272734 0.714416 -0.242677
C8    C     C_2   0.858757 0.335200 0.693183 0.024587
H2    H     H_    0.603158 0.260585 0.673616 0.129348
C9    C     C_R   0.016455 0.248967 0.194172 -0.144148
H3    H     H_    0.130204 0.252258 0.148129 0.136736
C10   C     C_R   0.010593 0.315678 0.256950 0.019135
C11   C     C_R   0.859586 0.314623 0.316347 -0.132282
C12   C     C_R   0.719599 0.245214 0.310979 -0.096148
H4    H     H_    0.606379 0.242775 0.357238 0.177534
C13   C     C_R   0.728553 0.176229 0.249585 -0.005431
C14   C     C_R   0.877820 0.179000 0.189203 -0.139549
C15   C     C_R   0.204088 0.695827 0.740585 -0.106029
H5    H     H_    0.075766 0.653801 0.735279 0.141936
C16   C     C_R   0.218930 0.758177 0.806770 -0.138987
H6    H     H_    0.101105 0.762363 0.850760 0.149403
C17   C     C_R   0.383330 0.814085 0.816620 -0.083448
C18   C     C_R   0.533345 0.806245 0.757103 0.149239
C19   C     C_R   0.519397 0.741706 0.692494 -0.156876
H7    H     H_    0.635909 0.736731 0.647910 0.142892
C20   C     C_R   0.355189 0.686153 0.683187 -0.082233
C21   C     C_R   0.208167 0.749418 0.307745 -0.209090
H8    H     H_    0.085701 0.749808 0.349629 0.121194
C22   C     C_R   0.216169 0.814493 0.244340 0.033175
C23   C     C_R   0.376111 0.815464 0.188731 -0.089903
C24   C     C_R   0.525809 0.751468 0.200978 -0.133241
H9    H     H_    0.649626 0.749794 0.160029 0.162947
C25   C     C_R   0.516943 0.687687 0.265151 -0.142551
H10   H     H_    0.634417 0.639130 0.272056 0.123090
C26   C     C_R   0.356875 0.685184 0.318617 -0.067754
O11   O     O_R   0.230120 0.912300 0.917180 -0.541609
O12   O     O_R   0.559740 0.902430 0.088770 -0.532816
O13   O     O_R   0.729930 0.081310 0.089370 -0.543053
C27   C     C_R   0.390086 0.881948 0.118925 0.682911
O14   O     O_R   0.559840 0.901330 0.917750 -0.531795
O15   O     O_R   0.730030 0.080210 0.917120 -0.518904
C28   C     C_R   0.391921 0.880734 0.887294 0.706353
O16   O     O_R   0.230020 0.913400 0.089430 -0.520826
O17   O     O_3   0.396460 0.055470 0.003290 -0.360290
V3    V     V_3+5 0.671360 0.985960 0.003250 1.551536
O18   O     O_R   0.059740 0.091300 0.917690 -0.546348
C29   C     C_R   0.890265 0.114016 0.890270 0.797097
O19   O     O_R   0.059640 0.092400 0.088720 -0.536346
C30   C     C_R   0.890242 0.112036 0.119413 0.713416
V4    V     V_3+5 0.171350 0.007820 0.003190 1.538924
O20   O     O_3   0.896380 0.938200 0.003220 -0.354022
C31   C     C_2   0.541535 0.229778 0.842342 0.462396
H11   H     H_    0.404846 0.231856 0.810086 0.049299
O21   O     O_2   0.542386 0.238039 0.917312 -0.514142
I1    I     I_    0.777970 0.894241 0.753192 -0.460372
C32   C     C_2   0.059305 0.883168 0.242205 0.336459
H12   H     H_    0.051907 0.936637 0.289193 0.054276
O22   O     O_2   0.932430 0.877742 0.190480 -0.531781
I2    I     I_    0.081841 0.379749 0.775064 -0.435557
C33   C     C_2   0.160121 0.387671 0.255105 0.371374
H13   H     H_    0.155623 0.440034 0.207978 0.026849
O23   O     O_2   0.294356 0.386106 0.303564 -0.511003
C34   C     C_2   0.587440 0.099519 0.253276 0.359676
H14   H     H_    0.619214 0.033706 0.224410 0.065217
O24   O     O_2   0.434273 0.108461 0.290107 -0.535067

loop_
_geom_bond_atom_site_label_1
_geom_bond_atom_site_label_2
_ccdc_geom_bond_type
O11   V4    S    
C12   C13   A    
C33   H13   S    
C17   C18   A    
C1    O6    A    
C13   C34   S    
O15   C29   A    
C11   C12   A    
C19   H7    S    
C4    C8    S    
C18   C19   A    
C34   O24   D    
O5    C3    A    
C23   C27   S    
V2    O10   S    
C5    C7    S    
O19   V4    S    
C6    H1    S    
C32   O22   D    
O8    V2    S    
C31   O21   D    
O12   C27   A    
C9    H3    S    
C15   C16   A    
O1    V2    S    
O7    V1    S    
C21   C22   A    
O18   C29   A    
O9    C4    A    
C33   O23   D    
O19   C30   A    
O13   C30   A    
C24   C25   A    
O17   V4    S    
O14   C28   A    
V3    O20   S    
C25   C26   A    
C8    I2    S    
C17   C28   S    
O12   V3    S    
C9    C14   A    
C16   H6    S    
C34   H14   S    
O4    C2    A    
C10   C11   A    
O11   C28   A    
C22   C32   S    
C3    C11   S    
O2    C1    A    
C23   C24   A    
C13   C14   A    
C15   H5    S    
C1    C20   S    
O8    C3    A    
C5    C6    D    
O16   V4    S    
O13   V3    S    
O3    C4    A    
C6    C29   S    
C21   H8    S    
C7    H2    S    
O6    V2    S    
C14   C30   S    
C22   C23   A    
O2    V1    S    
C24   H9    S    
O15   V3    S    
C21   C26   A    
C25   H10   S    
O1    C2    A    
O18   V4    S    
O5    V1    S    
O14   V3    S    
C18   I1    S    
C5    C31   S    
C2    C26   S    
O9    V2    S    
O7    V2    S    
O4    V1    S    
C19   C20   A    
O3    V1    S    
V1    O10   S    
O17   V3    S    
C16   C17   A    
C15   C20   A    
C10   C33   S    
C9    C10   A    
C32   H12   S    
V4    O20   S    
C7    C8    D    
C31   H11   S    
C12   H4    S    
C27   O16   A    
