data_mof_unit_59435.cif
_audit_creation_date              2012-12-11T16:53:34-0500
_audit_creation_method            fapswitch 2.2
_symmetry_space_group_name_H-M    P1
_symmetry_Int_Tables_number       1
_space_group_crystal_system       triclinic
_cell_length_a                    14.995288
_cell_length_b                    14.785937
_cell_length_c                    16.994555
_cell_angle_alpha                 108.904181
_cell_angle_beta                  106.301089
_cell_angle_gamma                 108.026778
_cell_volume                      3070.87724954

loop_
_atom_site_label
_atom_site_type_symbol
_atom_type_description
_atom_site_fract_x
_atom_site_fract_y
_atom_site_fract_z
_atom_type_partial_charge
C1    C     C_R   0.090116 0.273500 0.036923 -0.131531
C2    C     C_R   0.023250 0.472729 0.721843 0.072719
C3    C     C_R   0.662270 0.224409 0.749931 0.078263
C4    C     C_R   0.316032 0.487815 0.991447 0.081546
C5    C     C_R   0.248996 0.704459 0.264507 0.488655
C6    C     C_R   0.703993 0.499005 0.918562 -0.107657
C7    C     C_R   0.889010 0.394303 0.173035 -0.215388
C8    C     C_R   0.081801 0.806365 0.017794 -0.251924
C9    C     C_R   0.911765 0.722857 0.941661 0.525761
C10   C     C_R   0.058886 0.481810 0.254826 0.492806
C11   C     C_R   0.242781 0.800017 0.187217 -0.216894
C12   C     C_R   0.933566 0.455671 0.734684 -0.163989
C13   C     C_R   0.700034 0.404668 0.996905 -0.106788
C14   C     C_R   0.277375 0.807817 0.274653 -0.069460
C15   C     C_R   0.640225 0.433503 0.941909 0.033408
C16   C     C_R   0.966765 0.415564 0.251835 -0.107436
C17   C     C_R   0.995517 0.822258 0.981962 -0.020010
C18   C     C_R   0.419874 0.488042 0.903198 0.143859
C19   C     C_R   0.383852 0.451579 0.959581 0.040869
C20   C     C_R   0.410590 0.377121 0.981383 -0.195785
C21   C     C_R   0.481254 0.348972 0.955189 -0.174403
C22   C     C_R   0.530382 0.400560 0.912393 0.035339
C23   C     C_R   0.718897 0.218033 0.825951 -0.139947
C24   C     C_R   0.492428 0.461801 0.878825 0.147191
C25   C     C_3   0.431930 0.430912 0.780142 -0.483452
C26   C     C_3   0.355199 0.463027 0.807564 -0.505906
C27   C     C_R   0.952113 0.369550 0.314715 0.145891
C28   C     C_R   0.026331 0.425940 0.632537 0.125248
C29   C     C_R   0.122558 0.411730 0.539444 -0.210360
C30   C     C_R   0.120257 0.440781 0.625301 -0.176125
C31   C     C_R   0.933761 0.371598 0.552328 -0.271560
C32   C     C_R   0.936304 0.350830 0.467746 0.194313
C33   C     C_R   0.031831 0.374237 0.461334 0.162059
C34   C     C_R   0.279181 0.554755 0.968811 -0.130176
C35   C     C_R   0.036815 0.374267 0.380734 -0.278839
C36   C     C_R   0.854857 0.333556 0.316900 -0.165905
C37   C     C_R   0.846489 0.320790 0.392147 -0.234181
C38   C     C_R   0.554178 0.154731 0.684861 0.125555
C39   C     C_R   0.326073 0.905217 0.360729 0.162456
C40   C     C_R   0.416768 0.097111 0.446355 -0.233902
C41   C     C_R   0.363527 0.005951 0.362803 -0.168993
C42   C     C_R   0.333084 0.897438 0.441910 -0.268910
C43   C     C_R   0.391706 0.986956 0.525693 0.168961
C44   C     C_R   0.436679 0.087226 0.527887 0.196559
C45   C     C_R   0.725847 0.314266 0.749636 -0.144205
C46   C     C_R   0.512460 0.172768 0.609787 -0.285740
C47   C     C_R   0.500197 0.059359 0.686202 -0.172076
C48   C     C_R   0.416707 0.975974 0.606754 -0.218191
C49   C     C_R   0.107882 0.067175 0.951275 0.155194
C50   C     C_R   0.012493 0.071866 0.933759 0.022512
C51   C     C_R   0.922886 0.977761 0.866097 -0.164506
C52   C     C_R   0.931417 0.889953 0.809685 -0.154436
C53   C     C_R   0.028835 0.893469 0.820772 -0.020239
C54   C     C_R   0.115372 0.979307 0.896579 0.173683
C55   C     C_3   0.216216 0.045361 0.901371 -0.486078
C56   C     C_R   0.271719 0.457264 0.045061 -0.187767
C57   C     C_3   0.208320 0.141953 0.960568 -0.529340
C58   C     C_R   0.106327 0.542075 0.807911 -0.126878
C59   C     C_R   0.918440 0.190789 0.955261 -0.116811
C60   C     C_R   0.006717 0.173722 0.976340 0.065348
H1    H     H_    0.168518 0.288136 0.072519 0.097290
H2    H     H_    0.678905 0.524788 0.867432 0.138902
H3    H     H_    0.809271 0.335753 0.142356 0.122670
H4    H     H_    0.160887 0.864160 0.044098 0.130780
H5    H     H_    0.256744 0.864219 0.168489 0.125325
H6    H     H_    0.674191 0.344194 0.018661 0.081569
H7    H     H_    0.380937 0.343691 0.021650 0.126287
H8    H     H_    0.506229 0.297627 0.978923 0.119804
H9    H     H_    0.474566 0.483274 0.755671 0.185770
H10   H     H_    0.854483 0.406952 0.684579 0.100105
H11   H     H_    0.399656 0.344101 0.735140 0.203325
H12   H     H_    0.356174 0.536085 0.801906 0.180502
H13   H     H_    0.277037 0.395580 0.777135 0.205684
H14   H     H_    0.110080 0.392780 0.375840 0.174534
H15   H     H_    0.786738 0.324351 0.265078 0.118476
H16   H     H_    0.196351 0.428313 0.535510 0.127715
H17   H     H_    0.772271 0.300545 0.395721 0.126741
H18   H     H_    0.192234 0.479217 0.685677 0.117983
H19   H     H_    0.859706 0.355901 0.554963 0.115663
H20   H     H_    0.548495 0.248042 0.609342 0.116587
H21   H     H_    0.689225 0.166334 0.854461 0.083158
H22   H     H_    0.527639 0.045128 0.744932 0.113870
H23   H     H_    0.450219 0.174008 0.447311 0.126642
H24   H     H_    0.380715 0.899773 0.606157 0.130119
H25   H     H_    0.355877 0.014838 0.300905 0.117321
H26   H     H_    0.300308 0.821409 0.441287 0.164752
H27   H     H_    0.846577 0.974195 0.851322 0.125633
H28   H     H_    0.862758 0.822402 0.753167 0.133940
H29   H     H_    0.280458 0.032030 0.939428 0.185024
H30   H     H_    0.211304 0.041263 0.833681 0.201534
H31   H     H_    0.268758 0.184519 0.032393 0.181791
H32   H     H_    0.307970 0.603680 0.938090 0.092276
H33   H     H_    0.198417 0.193545 0.926868 0.211479
H34   H     H_    0.704057 0.352893 0.708690 0.079637
H35   H     H_    0.292901 0.416585 0.083901 0.085386
H36   H     H_    0.186386 0.576461 0.820617 0.084885
H37   H     H_    0.839424 0.131929 0.910879 0.093259
N1    N     N_R   0.055640 0.348550 0.045600 -0.045929
N2    N     N_R   0.798340 0.505430 0.954400 -0.047470
N3    N     N_R   0.931580 0.439470 0.128350 -0.063779
N4    N     N_R   0.051950 0.704140 0.002340 -0.057233
N5    N     N_R   0.944360 0.651450 0.954400 -0.110796
N6    N     N_R   0.039170 0.492150 0.176290 -0.100112
N7    N     N_R   0.188710 0.696600 0.128350 -0.058818
N8    N     N_R   0.794820 0.447010 0.002340 -0.038712
N9    N     N_R   0.960830 0.507850 0.823710 -0.055199
N10   N     N_R   0.811290 0.303400 0.871650 -0.034394
N11   N     N_R   0.205180 0.552990 0.997660 -0.033766
N12   N     N_R   0.814810 0.361830 0.823710 -0.038782
N13   N     N_R   0.201660 0.494570 0.045600 -0.049341
N14   N     N_R   0.068420 0.560530 0.871650 -0.035644
N15   N     N_R   0.948050 0.295860 0.997660 -0.039259
N16   N     N_R   0.185190 0.638170 0.176290 -0.115450
Ni1   Ni    Ni4+2 0.119330 0.493420 0.109950 0.214587
Ni2   Ni    Ni4+2 0.880670 0.506580 0.890050 0.202495
Ni3   Ni    Ni4+2 0.872590 0.372590 0.000000 0.200535
Ni4   Ni    Ni4+2 0.127410 0.627410 0.000000 0.200256
O1    O     O_3   0.814118 0.697931 0.881524 -0.638649
C61   C     C_3   0.794186 0.627895 0.792308 0.248905
H38   H     H_    0.786436 0.549039 0.787747 0.089171
H39   H     H_    0.856975 0.660827 0.772278 0.092462
C62   C     C_3   0.692993 0.611254 0.723669 -0.933860
H40   H     H_    0.697280 0.688643 0.726565 0.261410
H41   H     H_    0.677679 0.557657 0.653194 0.211185
H42   H     H_    0.628134 0.574500 0.739557 0.247414
O2    O     O_3   0.155588 0.529717 0.326424 -0.638218
C63   C     C_3   0.156956 0.607381 0.403038 0.344255
H43   H     H_    0.089656 0.576810 0.418517 0.072879
H44   H     H_    0.155070 0.675686 0.389872 0.075385
C64   C     C_3   0.253972 0.645917 0.488748 -0.911866
H45   H     H_    0.324798 0.686262 0.481546 0.286631
H46   H     H_    0.252403 0.703039 0.549187 0.199458
H47   H     H_    0.257377 0.577565 0.500954 0.244034
O3    O     O_3   0.305934 0.678156 0.325287 -0.633627
C65   C     C_3   0.336803 0.603789 0.279201 0.374650
H48   H     H_    0.377843 0.633310 0.240667 0.066740
H49   H     H_    0.268862 0.525382 0.231289 0.110130
C66   C     C_3   0.410776 0.587460 0.349092 -0.924517
H50   H     H_    0.370834 0.552885 0.385698 0.275395
H51   H     H_    0.438098 0.531893 0.313560 0.202392
H52   H     H_    0.478649 0.664756 0.399700 0.256228

loop_
_geom_bond_atom_site_label_1
_geom_bond_atom_site_label_2
_ccdc_geom_bond_type
C65   C66   S    
C12   N9    A    
C35   H14   S    
N4    N5    A    
C56   H35   S    
C26   H12   S    
N8    Ni3   S    
C3    C23   A    
C19   C20   A    
N3    Ni3   S    
C2    C12   A    
C65   H48   S    
C39   C41   A    
C29   H16   S    
C34   N11   A    
C53   C54   A    
O2    C63   S    
C18   C24   A    
C36   C37   A    
N16   Ni1   S    
C55   H30   S    
N2    Ni2   S    
C11   C14   A    
C45   N12   A    
N1    Ni1   S    
C49   C54   A    
C29   C33   A    
C26   H13   S    
C49   C57   S    
C18   C19   A    
C47   H22   S    
C58   H36   S    
O1    C61   S    
N5    Ni2   S    
C20   H7    S    
C14   C39   S    
C4    C19   S    
C15   C22   S    
C31   C32   A    
C3    C38   S    
C9    N5    A    
C18   C26   S    
C11   N7    A    
C25   H11   S    
C57   H31   S    
C43   C48   A    
N13   Ni1   S    
N9    N14   A    
C16   C27   S    
C6    C15   A    
C59   C60   A    
C57   H33   S    
C21   C22   A    
C4    C56   A    
C9    O1    S    
N10   N12   A    
C40   H23   S    
C45   H34   S    
C56   N13   A    
C44   C46   A    
C59   N15   A    
C39   C42   A    
C13   H6    S    
C61   H39   S    
C5    O3    S    
N2    N8    A    
C4    C34   A    
N1    N15   A    
C7    N3    A    
C58   N14   A    
C52   H28   S    
N6    Ni1   S    
C24   C25   S    
C13   N8    A    
C1    C60   A    
C51   H27   S    
C27   C35   A    
C25   C26   S    
C37   H17   S    
C3    C45   A    
N3    N6    A    
C51   C52   A    
C64   H46   S    
C43   C44   A    
C63   H44   S    
C29   C30   A    
C36   H15   S    
C47   C48   A    
C23   N10   A    
C10   N6    A    
C50   C51   A    
C5    C14   A    
C32   C37   A    
C7    H3    S    
C38   C47   A    
C66   H51   S    
C8    H4    S    
C42   H26   S    
C9    C17   A    
C40   C41   A    
C55   C57   S    
C21   H8    S    
C59   H37   S    
C22   C24   A    
C64   H47   S    
C25   H9    S    
C42   C43   A    
C62   H41   S    
C63   H43   S    
N15   Ni3   S    
C52   C53   A    
N7    Ni4   S    
C8    N4    A    
C61   C62   S    
C65   H49   S    
C12   H10   S    
C54   C55   S    
C7    C16   A    
C23   H21   S    
C5    N16   A    
N11   Ni4   S    
C28   C31   A    
C66   H52   S    
C1    H1    S    
C1    N1    A    
C61   H38   S    
C2    C58   A    
C31   H19   S    
O3    C65   S    
C27   C36   A    
C41   H25   S    
C8    C17   A    
N9    Ni2   S    
N14   Ni4   S    
N4    Ni4   S    
C32   C33   A    
C6    H2    S    
C62   H42   S    
C13   C15   A    
C64   H45   S    
C63   C64   S    
C50   C60   S    
C55   H29   S    
C10   C16   A    
C6    N2    A    
C46   H20   S    
C28   C30   A    
C33   C35   A    
N11   N13   A    
C34   H32   S    
N10   Ni3   S    
C38   C46   A    
C66   H50   S    
N12   Ni2   S    
N7    N16   A    
C30   H18   S    
C48   H24   S    
C40   C44   A    
C20   C21   A    
C49   C50   A    
C2    C28   S    
C62   H40   S    
C10   O2    S    
C11   H5    S    
