data_mof_unit_7260.cif
_audit_creation_date              2012-12-11T17:08:31-0500
_audit_creation_method            fapswitch 2.2
_symmetry_space_group_name_H-M    P1
_symmetry_Int_Tables_number       1
_space_group_crystal_system       triclinic
_cell_length_a                    6.944577
_cell_length_b                    14.481925
_cell_length_c                    16.122822
_cell_angle_alpha                 89.966363
_cell_angle_beta                  90.151534
_cell_angle_gamma                 90.079321
_cell_volume                      1621.47830365

loop_
_atom_site_label
_atom_site_type_symbol
_atom_type_description
_atom_site_fract_x
_atom_site_fract_y
_atom_site_fract_z
_atom_type_partial_charge
O1    O     O_R   0.505700 0.583890 0.413310 -0.540275
O2    O     O_R   0.175960 0.594920 0.586080 -0.521683
O3    O     O_R   0.005660 0.416110 0.586690 -0.544704
C1    C     C_R   0.345230 0.617270 0.614538 0.796166
O4    O     O_R   0.175980 0.594920 0.413930 -0.536567
O5    O     O_R   0.005680 0.416110 0.413310 -0.549459
C2    C     C_R   0.344646 0.617177 0.385301 0.732664
O6    O     O_R   0.505680 0.583890 0.586690 -0.531277
O7    O     O_3   0.339200 0.441330 0.500000 -0.385834
V1    V     V_3+5 0.064350 0.510880 0.500000 1.495349
O8    O     O_R   0.675960 0.405080 0.413920 -0.541278
C3    C     C_R   0.844728 0.381695 0.386343 0.704446
O9    O     O_R   0.675940 0.405080 0.586070 -0.547796
C4    C     C_R   0.844724 0.382612 0.614351 0.722310
V2    V     V_3+5 0.564340 0.489120 0.500000 1.464802
O10   O     O_3   0.839360 0.558670 0.500000 -0.346380
C5    C     C_R   0.984665 0.240869 0.682187 0.106982
C6    C     C_R   0.851029 0.313024 0.681392 -0.160569
C7    C     C_R   0.712161 0.313628 0.744909 -0.204214
H1    H     H_    0.600966 0.366042 0.744915 0.159235
C8    C     C_R   0.723597 0.251364 0.812232 0.377117
C9    C     C_R   0.873410 0.184622 0.816239 -0.176724
C10   C     C_R   0.993491 0.177703 0.746796 0.099024
C11   C     C_3   0.206265 0.167845 0.738900 -0.373342
C12   C     C_3   0.196842 0.238319 0.668656 -0.382218
H2    H     H_    0.248313 0.097664 0.717766 0.195777
H3    H     H_    0.283311 0.193068 0.794556 0.223828
H4    H     H_    0.234870 0.208748 0.607259 0.188633
H5    H     H_    0.268249 0.304928 0.684060 0.182247
C13   C     C_R   0.712856 0.229016 0.204470 0.039852
C14   C     C_R   0.882167 0.179473 0.188414 -0.141945
C15   C     C_R   0.034590 0.189029 0.246993 0.365075
C16   C     C_R   0.020750 0.254053 0.312074 -0.198773
H6    H     H_    0.141891 0.262842 0.353823 0.164341
C17   C     C_R   0.854113 0.308372 0.322523 -0.137492
C18   C     C_R   0.696479 0.289225 0.271224 0.075346
C19   C     C_3   0.572079 0.354662 0.223971 -0.430575
C20   C     C_3   0.597269 0.291378 0.149523 0.295495
H7    H     H_    0.638492 0.424206 0.217212 0.193886
H8    H     H_    0.422167 0.355259 0.248004 0.161613
H9    H     H_    0.461054 0.259450 0.127227 0.153585
C21   C     C_R   0.515812 0.741070 0.695785 -0.024636
C22   C     C_R   0.356752 0.682435 0.685184 -0.129820
C23   C     C_R   0.215409 0.682553 0.747713 -0.137352
H10   H     H_    0.095621 0.634707 0.743977 0.164355
C24   C     C_R   0.225812 0.744632 0.815178 0.440265
C25   C     C_R   0.378818 0.809664 0.820755 -0.181184
C26   C     C_R   0.526092 0.802969 0.761833 -0.003897
C27   C     C_3   0.613740 0.877391 0.710008 0.192141
C28   C     C_3   0.603205 0.809641 0.637115 0.516177
H11   H     H_    0.517470 0.938347 0.703758 0.102156
C29   C     C_R   0.507678 0.749185 0.311616 0.188988
C30   C     C_R   0.352357 0.687918 0.318918 -0.111860
C31   C     C_R   0.200555 0.697367 0.261431 -0.162188
H12   H     H_    0.077814 0.651615 0.264536 0.135272
C32   C     C_R   0.212461 0.761138 0.195527 -0.146347
H13   H     H_    0.097493 0.763404 0.150224 0.147573
C33   C     C_R   0.377066 0.816881 0.184882 -0.104786
C34   C     C_R   0.519849 0.811993 0.246231 0.143208
C35   C     C_3   0.730998 0.797237 0.237355 -0.439211
C36   C     C_3   0.717792 0.729262 0.308968 -0.390462
H14   H     H_    0.815433 0.860270 0.252632 0.201535
H15   H     H_    0.767307 0.763984 0.177318 0.182483
H16   H     H_    0.793604 0.753221 0.365850 0.225259
H17   H     H_    0.747419 0.656675 0.290676 0.159587
O11   O     O_R   0.229000 0.916070 0.913330 -0.510412
O12   O     O_R   0.558770 0.905070 0.086080 -0.552540
O13   O     O_R   0.729000 0.083900 0.086690 -0.540540
C37   C     C_R   0.389839 0.882898 0.114792 0.728383
O14   O     O_R   0.558720 0.905070 0.913930 -0.520629
O15   O     O_R   0.728960 0.083900 0.913310 -0.520201
C38   C     C_R   0.389201 0.881591 0.886282 0.758618
O16   O     O_R   0.229050 0.916070 0.086710 -0.538813
O17   O     O_3   0.395460 0.058650 0.000020 -0.357369
V3    V     V_3+5 0.670340 0.989120 0.000000 1.612433
O18   O     O_R   0.058670 0.094960 0.913900 -0.542864
C39   C     C_R   0.889015 0.117751 0.885728 0.818638
O19   O     O_R   0.058720 0.094960 0.086050 -0.517286
C40   C     C_R   0.890758 0.115648 0.116099 0.775242
V4    V     V_3+5 0.170330 0.010930 0.999970 1.627232
O20   O     O_3   0.895340 0.941350 0.999980 -0.358687
Cl1   Cl    Cl    0.740749 0.344413 0.070764 -0.551830
Cl2   Cl    Cl    0.044313 0.737299 0.891072 -0.587661
Cl3   Cl    Cl    0.849549 0.907109 0.746205 -0.583141
Br1   Br    Br    0.846004 0.766429 0.591493 -0.383207
Cl4   Cl    Cl    0.440472 0.846405 0.557475 -0.593995
Cl5   Cl    Cl    0.558751 0.266507 0.893784 -0.593689
Cl6   Cl    Cl    0.245480 0.121670 0.242638 -0.681604

loop_
_geom_bond_atom_site_label_1
_geom_bond_atom_site_label_2
_ccdc_geom_bond_type
C8    Cl5   S    
C4    C6    S    
C7    H1    S    
C11   H3    S    
C1    O6    A    
C30   C31   A    
C23   H10   S    
O13   V3    S    
C5    C10   A    
C35   H15   S    
C27   Cl3   S    
C18   C19   S    
C7    C8    A    
C11   H2    S    
C19   H8    S    
C29   C36   S    
O5    C3    A    
C13   C14   A    
O19   V4    S    
V2    O10   S    
C15   Cl6   S    
C32   H13   S    
C13   C20   S    
C35   H14   S    
C6    C7    A    
C28   Br1   S    
C24   C25   A    
O8    V2    S    
O11   C38   A    
C14   C15   A    
C27   H11   S    
C10   C11   S    
C37   O16   A    
O1    V2    S    
O7    V1    S    
O13   C40   A    
C34   C35   S    
O17   V4    S    
O9    C4    A    
C20   Cl1   S    
C23   C24   A    
C16   H6    S    
C12   H5    S    
C31   C32   A    
O17   V3    S    
C11   C12   S    
C20   H9    S    
O4    C2    A    
O19   C40   A    
V3    O20   S    
C33   C34   A    
C35   C36   S    
O12   C37   A    
C17   C18   A    
C36   H16   S    
O2    C1    A    
C22   C23   A    
C19   C20   S    
C29   C34   A    
C25   C26   A    
C5    C6    A    
C21   C26   A    
O18   C39   A    
C3    C17   S    
O3    C4    A    
C21   C28   S    
C26   C27   S    
O6    V2    S    
O9    V2    S    
O12   V3    S    
C21   C22   A    
C2    C30   S    
O2    V1    S    
O15   C39   A    
C29   C30   A    
C31   H12   S    
O1    C2    A    
O18   V4    S    
C9    C39   S    
V4    O20   S    
O5    V1    S    
O8    C3    A    
C33   C37   S    
C14   C40   S    
C1    C22   S    
O11   V4    S    
C13   C18   A    
C5    C12   S    
C15   C16   A    
O7    V2    S    
O4    V1    S    
C19   H7    S    
O3    V1    S    
V1    O10   S    
O15   V3    S    
C16   C17   A    
O16   V4    S    
C32   C33   A    
C25   C38   S    
C28   Cl4   S    
C12   H4    S    
C24   Cl2   S    
C36   H17   S    
C27   C28   S    
O14   V3    S    
C9    C10   A    
O14   C38   A    
C8    C9    A    
