data_mof_unit_59597.cif
_audit_creation_date              2012-10-26T19:40:42-0400
_audit_creation_method            fapswitch 2.2
_symmetry_space_group_name_H-M    P1
_symmetry_Int_Tables_number       1
_space_group_crystal_system       triclinic
_cell_length_a                    9.777311
_cell_length_b                    10.982329
_cell_length_c                    13.399598
_cell_angle_alpha                 90.906523
_cell_angle_beta                  72.229744
_cell_angle_gamma                 90.378559
_cell_volume                      1369.99450162

loop_
_atom_site_label
_atom_site_type_symbol
_atom_type_description
_atom_site_fract_x
_atom_site_fract_y
_atom_site_fract_z
_atom_type_partial_charge
C1    C     C_R   0.501734 0.734018 0.497452 0.575117
C2    C     C_R   0.372084 0.481903 0.816797 0.032243
C3    C     C_2   0.610048 0.065032 0.476644 0.213823
C4    C     C_R   0.421668 0.493040 0.700480 0.603318
C5    C     C_2   0.491908 0.135223 0.512334 0.156302
C6    C     C_2   0.605328 0.937214 0.503728 0.269583
C7    C     C_2   0.510362 0.863632 0.478858 -0.063108
C8    C     C_2   0.054620 0.579738 0.549984 0.328262
C9    C     C_2   0.896649 0.560479 0.567244 0.410778
C10   C     C_R   0.499553 0.265846 0.499661 0.605285
C11   C     C_R   0.577780 0.498926 0.299929 0.531798
C12   C     C_R   0.437530 0.477873 0.979525 -0.008586
C13   C     C_R   0.787414 0.405022 0.024935 -0.062561
C14   C     C_R   0.623302 0.485227 0.185495 0.004257
C15   C     C_R   0.230535 0.517439 0.875933 0.233406
C16   C     C_R   0.193746 0.529153 0.984018 -0.093087
C17   C     C_R   0.295677 0.513755 0.034989 -0.148275
C18   C     C_3   0.076503 0.802543 0.552209 -0.195139
C19   C     C_3   0.157590 0.344572 0.376600 -0.230716
C20   C     C_3   0.531243 0.180090 0.770411 -0.241051
C21   C     C_R   0.469712 0.446628 0.871806 -0.003087
C22   C     C_R   0.545968 0.467274 0.029208 0.000249
C23   C     C_R   0.681115 0.415294 0.974052 0.059171
C24   C     C_R   0.703842 0.367820 0.872199 0.269003
C25   C     C_R   0.594819 0.376292 0.824117 0.171880
C26   C     C_R   0.523013 0.506905 0.133199 -0.114482
C27   C     C_R   0.757837 0.437956 0.130204 -0.132747
Cl1   Cl    Cl    0.324433 0.078033 0.591884 -0.630769
Cl2   Cl    Cl    0.722175 0.891201 0.573332 -0.510920
Cl3   Cl    Cl    0.782039 0.629848 0.681343 -0.435869
Cl4   Cl    Cl    0.864001 0.288110 0.806436 -0.535932
Cl5   Cl    Cl    0.091216 0.548952 0.822183 -0.527589
Cl6   Cl    Cl    0.777631 0.119978 0.396503 -0.568558
Cu1   Cu    Cu3+1 0.361370 0.499980 0.499980 1.017134
Cu2   Cu    Cu3+1 0.638630 0.500020 0.500020 1.080630
H1    H     H_    0.837995 0.421769 0.169191 0.138341
H2    H     H_    0.012719 0.864079 0.615598 0.249058
H3    H     H_    0.021078 0.792678 0.491352 0.171995
H4    H     H_    0.112619 0.324343 0.537639 0.330821
H5    H     H_    0.092833 0.265273 0.365013 0.182551
H6    H     H_    0.270965 0.315382 0.357540 0.185066
H7    H     H_    0.149726 0.417147 0.321765 0.116570
H8    H     H_    0.697911 0.288739 0.682437 0.326902
H9    H     H_    0.543841 0.120456 0.700904 0.209635
H10   H     H_    0.414803 0.192547 0.811396 0.178317
H11   H     H_    0.582502 0.134004 0.823071 0.189237
H12   H     H_    0.438472 0.900251 0.438934 0.092965
H13   H     H_    0.918231 0.480939 0.429250 0.203222
H14   H     H_    0.891996 0.366778 0.985657 0.201427
H15   H     H_    0.426340 0.553631 0.176781 0.126640
H16   H     H_    0.257350 0.525817 0.118836 0.106459
H17   H     H_    0.085363 0.554489 0.029290 0.152256
H18   H     H_    0.167885 0.680852 0.636478 0.328875
H19   H     H_    0.182997 0.844776 0.515813 0.168468
N1    N     N_2   0.152660 0.501340 0.501130 -0.165662
N2    N     N_2   0.846520 0.501370 0.501160 -0.336565
N3    N     N_2   0.093808 0.686406 0.596471 -0.459010
N4    N     N_2   0.102873 0.387450 0.484105 -0.430241
N5    N     N_2   0.598831 0.296639 0.738291 -0.493006
O1    O     O_R   0.382960 0.678040 0.499980 -0.534438
O2    O     O_R   0.617100 0.678080 0.500020 -0.426209
O3    O     O_R   0.325800 0.499940 0.650950 -0.453259
O4    O     O_R   0.559930 0.499980 0.650990 -0.434635
O5    O     O_R   0.382900 0.321920 0.499980 -0.485701
O6    O     O_R   0.617040 0.321960 0.500020 -0.462991
O7    O     O_R   0.440070 0.500020 0.349010 -0.525786
O8    O     O_R   0.674200 0.500060 0.349050 -0.511069

loop_
_geom_bond_atom_site_label_1
_geom_bond_atom_site_label_2
_ccdc_geom_bond_type
C12   C17   A    
C2    C4    S    
C23   C24   A    
C19   H7    S    
C6    C7    D    
C4    O3    A    
C14   C27   A    
C5    Cl1   S    
C7    H12   S    
C18   N3    S    
C20   H10   S    
C11   O7    A    
Cu2   O8    S    
C27   H1    S    
C17   H16   S    
C2    C21   A    
Cu1   O5    S    
C18   H3    S    
C24   Cl4   S    
C5    C10   S    
Cu2   O2    S    
C9    N2    D    
C1    C7    S    
C14   C26   A    
C20   N5    S    
Cu1   O1    S    
C2    C15   A    
C4    O4    A    
Cu1   O7    S    
C16   H17   S    
C9    Cl3   S    
C13   H14   S    
C12   C21   A    
C8    N1    D    
C20   H9    S    
C18   H2    S    
C11   O8    A    
C26   H15   S    
C19   N4    S    
C8    N3    S    
C11   C14   S    
C20   H11   S    
N1    N4    S    
C16   C17   A    
C19   H5    S    
C18   H19   S    
C1    O2    A    
C15   C16   A    
Cu1   O3    S    
C12   C22   A    
Cu1   N1    S    
C6    Cl2   S    
C24   C25   A    
C13   C23   A    
H8    N5    S    
Cu1   Cu2   S    
C22   C26   A    
C1    O1    A    
H13   N2    S    
Cu2   O6    S    
H18   N3    S    
C3    Cl6   S    
C13   C27   A    
C21   C25   A    
C25   N5    S    
Cu2   N2    S    
C22   C23   A    
H4    N4    S    
Cu2   O4    S    
C3    C6    S    
C10   O5    A    
C19   H6    S    
C10   O6    A    
C8    C9    S    
C3    C5    D    
C15   Cl5   S    
