data_mof_unit_61947.cif
_audit_creation_date              2012-12-10T20:55:17-0500
_audit_creation_method            fapswitch 2.2
_symmetry_space_group_name_H-M    P1
_symmetry_Int_Tables_number       1
_space_group_crystal_system       triclinic
_cell_length_a                    26.009433
_cell_length_b                    27.744226
_cell_length_c                    18.948584
_cell_angle_alpha                 89.999916
_cell_angle_beta                  133.030602
_cell_angle_gamma                 89.999972
_cell_volume                      9995.19570981

loop_
_atom_site_label
_atom_site_type_symbol
_atom_type_description
_atom_site_fract_x
_atom_site_fract_y
_atom_site_fract_z
_atom_type_partial_charge
C1    C     C_R   1.000000 0.879250 0.500000 0.810158
C2    C     C_R   0.431985 0.771252 0.753606 0.414244
C3    C     C_1   0.180916 0.250200 0.862082 -0.130212
C4    C     C_1   0.681254 0.249752 0.862078 -0.144476
C5    C     C_1   0.319084 0.750200 0.137918 -0.130209
C6    C     C_1   0.318746 0.249753 0.137922 -0.144504
C7    C     C_1   0.680916 0.750200 0.862082 -0.130210
C8    C     C_1   0.224873 0.749833 0.949069 0.072788
C9    C     C_1   0.775687 0.250033 0.050929 0.078174
C10   C     C_1   0.775127 0.749833 0.050931 0.072764
C11   C     C_1   0.224314 0.250033 0.949071 0.078469
C12   C     C_1   0.724873 0.249832 0.949069 0.072598
C13   C     C_R   0.428806 0.212432 0.734675 0.377785
C14   C     C_1   0.275686 0.750033 0.050929 0.078458
C15   C     C_1   0.275127 0.249833 0.050931 0.072805
C16   C     C_1   0.724314 0.750033 0.949071 0.078425
C17   C     C_1   1.000000 0.568925 0.500000 -0.120906
C18   C     C_1   1.000000 0.431075 0.500000 -0.131191
C19   C     C_1   0.500000 0.068925 0.500000 -0.120913
C20   C     C_1   0.500000 0.931075 0.500000 -0.131184
C21   C     C_1   1.000000 0.525457 0.500000 0.029568
C22   C     C_1   0.000000 0.474543 0.500000 0.026768
C23   C     C_1   0.500000 0.025457 0.500000 0.029562
C24   C     C_R   0.568014 0.771240 0.246387 0.414239
C25   C     C_1   0.500000 0.974543 0.500000 0.026767
C26   C     C_R   0.002313 0.714573 0.173268 0.319948
C27   C     C_R   0.999032 0.260660 0.843758 0.361709
C28   C     C_R   0.997687 0.714576 0.826733 0.319953
C29   C     C_R   0.000968 0.260781 0.156275 0.361812
C30   C     C_R   0.502311 0.214588 0.173258 0.319958
C31   C     C_R   0.499033 0.760669 0.843756 0.361724
C32   C     C_R   0.497685 0.214536 0.826716 0.319951
C33   C     C_R   0.500968 0.760651 0.156239 0.361713
C34   C     C_3   0.932903 0.653461 0.146191 -0.140298
C35   C     C_R   0.105719 0.755340 0.317622 -0.162798
C36   C     C_3   0.078997 0.321261 0.924352 -0.132787
C37   C     C_3   0.067096 0.653463 0.853809 -0.140315
C38   C     C_3   0.920875 0.321308 0.075671 -0.133179
C39   C     C_3   0.432904 0.153471 0.146170 -0.140324
C40   C     C_3   0.579015 0.821259 0.924363 -0.132876
C41   C     C_3   0.567094 0.153432 0.853765 -0.140336
C42   C     C_3   0.421000 0.821249 0.075627 -0.132823
C43   C     C_3   0.129505 0.649114 0.270329 -0.116769
C44   C     C_3   0.899432 0.345647 0.682502 -0.186209
C45   C     C_3   0.870499 0.649116 0.729678 -0.116803
C46   C     C_R   0.894632 0.235620 0.680431 -0.178760
C47   C     C_3   0.100585 0.345712 0.317624 -0.185621
C48   C     C_3   0.629494 0.149126 0.270295 -0.116778
C49   C     C_3   0.399434 0.845652 0.682497 -0.186188
C50   C     C_3   0.370493 0.149076 0.729622 -0.116899
C51   C     C_3   0.600563 0.845643 0.317482 -0.186252
C52   C     C_3   0.930497 0.857149 0.165782 -0.132009
C53   C     C_3   0.063825 0.136903 0.778143 -0.127581
C54   C     C_3   0.069501 0.857151 0.834212 -0.131988
C55   C     C_3   0.936114 0.136934 0.221597 -0.127659
C56   C     C_3   0.430501 0.357156 0.165821 -0.131987
C57   C     C_R   0.894280 0.755342 0.682377 -0.162803
C58   C     C_3   0.563829 0.636907 0.778160 -0.127588
C59   C     C_3   0.569511 0.357123 0.834282 -0.131982
C60   C     C_3   0.436175 0.636905 0.221873 -0.127571
C61   C     C_R   0.105361 0.235674 0.319554 -0.178794
C62   C     C_R   0.605720 0.255347 0.317624 -0.162789
C63   C     C_R   0.394633 0.735624 0.680432 -0.178754
C64   C     C_R   0.394283 0.255317 0.682382 -0.162800
C65   C     C_R   1.000000 0.120757 0.500000 0.812709
C66   C     C_R   0.605368 0.735616 0.319571 -0.178755
C67   C     C_R   0.071715 0.800047 0.277496 0.234216
C68   C     C_R   0.926385 0.190543 0.697079 0.217612
C69   C     C_R   0.928284 0.800050 0.722502 0.234214
C70   C     C_R   0.073591 0.190595 0.302828 0.217664
C71   C     C_R   0.571717 0.300056 0.277512 0.234204
C72   C     C_R   0.426386 0.690547 0.697084 0.217614
C73   C     C_R   0.428290 0.300021 0.722532 0.234224
C74   C     C_R   0.573617 0.690540 0.302931 0.217610
C75   C     C_R   0.003500 0.802047 0.185183 0.370437
C76   C     C_R   0.500000 0.379250 0.500000 0.810159
C77   C     C_R   0.994471 0.180908 0.785864 0.367508
C78   C     C_R   0.996500 0.802050 0.814815 0.370429
C79   C     C_R   0.005509 0.180983 0.214014 0.367662
C80   C     C_R   0.503502 0.302061 0.185201 0.370426
C81   C     C_R   0.494472 0.680913 0.785872 0.367522
C82   C     C_R   0.496504 0.302013 0.814847 0.370435
C83   C     C_R   0.505531 0.680902 0.214147 0.367509
C84   C     C_R   0.970194 0.759456 0.131744 0.187822
C85   C     C_R   0.029438 0.215191 0.860303 0.158701
C86   C     C_R   0.029806 0.759459 0.868255 0.187828
C87   C     C_R   0.500000 0.620757 0.500000 0.812675
C88   C     C_R   0.970557 0.215300 0.139631 0.158440
C89   C     C_R   0.470194 0.259474 0.131748 0.187833
C90   C     C_R   0.529438 0.715198 0.860308 0.158670
C91   C     C_R   0.529807 0.259416 0.868264 0.187832
C92   C     C_R   0.470563 0.715183 0.139702 0.158690
C93   C     C_R   0.234006 0.755568 0.413029 0.327966
C94   C     C_R   0.766586 0.244403 0.587786 0.390569
C95   C     C_R   0.765993 0.755571 0.586970 0.327977
C96   C     C_R   0.233411 0.244427 0.412210 0.390582
C97   C     C_R   0.734007 0.255572 0.413030 0.327966
C98   C     C_R   0.071192 0.712460 0.265307 0.377756
C99   C     C_R   0.266587 0.744406 0.587786 0.390565
C100  C     C_R   0.265996 0.255553 0.586977 0.327984
C101  C     C_R   0.733414 0.744403 0.412215 0.390563
C102  C     C_R   0.304101 0.750230 0.500632 -0.222732
C103  C     C_R   0.696242 0.249192 0.499755 -0.200818
C104  C     C_R   0.695899 0.750229 0.499368 -0.222727
C105  C     C_R   0.303758 0.249194 0.500245 -0.200812
C106  C     C_R   0.804101 0.250230 0.500633 -0.222725
C107  C     C_R   0.196242 0.749193 0.499755 -0.200814
C108  C     C_R   0.195899 0.250231 0.499369 -0.222751
C109  C     C_R   0.931985 0.271246 0.753609 0.414243
C110  C     C_R   0.803758 0.749192 0.500245 -0.200816
C111  C     C_R   0.320806 0.744374 0.588404 0.024672
C112  C     C_R   0.679689 0.253184 0.411854 0.066749
C113  C     C_R   0.679194 0.744370 0.411597 0.024665
C114  C     C_R   0.320313 0.253167 0.588150 0.066736
C115  C     C_R   0.820806 0.244371 0.588403 0.024664
C116  C     C_R   0.179688 0.753181 0.411853 0.066736
C117  C     C_R   0.179192 0.244397 0.411592 0.024700
C118  C     C_R   0.820311 0.753183 0.588146 0.066743
C119  C     C_1   1.000000 0.931040 0.500000 -0.103946
C120  C     C_R   0.928808 0.712463 0.734693 0.377755
C121  C     C_1   0.000000 0.068978 0.500001 -0.100338
C122  C     C_1   0.500000 0.431040 0.500000 -0.103931
C123  C     C_1   0.500000 0.568978 0.500000 -0.100322
C124  C     C_1   1.000000 0.974533 0.500001 0.032354
C125  C     C_1   1.000000 0.025488 0.500001 0.033509
C126  C     C_1   0.500000 0.474533 0.499999 0.032369
C127  C     C_1   0.500000 0.525488 0.500000 0.033523
C128  C     C_R   0.000000 0.620672 0.500000 0.854831
C129  C     C_R   0.000000 0.379327 0.500000 0.859513
C130  C     C_R   0.500000 0.120672 0.500000 0.854824
C131  C     C_R   0.068023 0.271331 0.246441 0.414317
C132  C     C_R   0.500000 0.879328 0.500000 0.859516
C133  C     C_R   0.859776 0.749813 0.500132 0.917030
C134  C     C_R   0.140265 0.250247 0.500088 0.940566
C135  C     C_R   0.140224 0.749814 0.499868 0.917029
C136  C     C_R   0.859734 0.250247 0.499912 0.940585
C137  C     C_R   0.359775 0.249814 0.500132 0.917018
C138  C     C_R   0.640266 0.750247 0.500089 0.940593
C139  C     C_R   0.640224 0.249813 0.499868 0.917022
C140  C     C_R   0.359734 0.750247 0.499911 0.940586
C141  C     C_R   0.870728 0.749903 0.241448 0.814340
C142  C     C_R   0.571190 0.212471 0.265297 0.377750
C143  C     C_R   0.129265 0.250141 0.758548 0.813161
C144  C     C_R   0.129272 0.749903 0.758552 0.814339
C145  C     C_R   0.870735 0.250140 0.241452 0.813210
C146  C     C_R   0.370728 0.249903 0.241448 0.814329
C147  C     C_R   0.629265 0.750141 0.758548 0.813165
C148  C     C_R   0.629272 0.249902 0.758552 0.814344
C149  C     C_R   0.370735 0.750141 0.241452 0.813159
C150  C     C_1   0.181254 0.749753 0.862078 -0.144511
C151  C     C_1   0.819085 0.250201 0.137918 -0.130207
C152  C     C_1   0.818746 0.749753 0.137922 -0.144508
Cl1   Cl    Cl    0.888498 0.762320 0.011614 -0.470616
Cl2   Cl    Cl    0.879809 0.144232 0.609700 -0.517300
Cl3   Cl    Cl    0.885145 0.854086 0.658771 -0.502718
Cl4   Cl    Cl    0.120142 0.144254 0.390142 -0.517308
Cl5   Cl    Cl    0.614859 0.354088 0.341258 -0.502720
Cl6   Cl    Cl    0.379811 0.644234 0.609710 -0.517308
Cl7   Cl    Cl    0.385155 0.354063 0.658830 -0.502714
Cl8   Cl    Cl    0.620194 0.644232 0.390316 -0.517294
Cl9   Cl    Cl    0.214018 0.767975 0.304558 -0.527149
Cl10  Cl    Cl    0.786595 0.233937 0.696698 -0.465488
Cl11  Cl    Cl    0.785980 0.767982 0.695439 -0.527151
Cl12  Cl    Cl    0.109736 0.199989 0.976305 -0.459792
Cl13  Cl    Cl    0.213393 0.233989 0.303283 -0.465550
Cl14  Cl    Cl    0.714021 0.267985 0.304563 -0.527164
Cl15  Cl    Cl    0.286596 0.733943 0.696700 -0.465556
Cl16  Cl    Cl    0.285988 0.267941 0.695456 -0.527138
Cl17  Cl    Cl    0.713406 0.733935 0.303303 -0.465545
Cl18  Cl    Cl    0.111502 0.762323 0.988384 -0.470611
Cl19  Cl    Cl    0.890298 0.200110 0.023577 -0.459846
Cl20  Cl    Cl    0.388497 0.262344 0.011621 -0.470584
Cl21  Cl    Cl    0.609730 0.699994 0.976315 -0.459794
Cl22  Cl    Cl    0.611502 0.262268 0.988396 -0.470612
Cl23  Cl    Cl    0.390266 0.699976 0.023702 -0.459798
Cl24  Cl    Cl    0.114854 0.854083 0.341225 -0.502733
H1    H     H_    0.889983 0.677847 0.123514 0.166099
H2    H     H_    0.948102 0.342886 0.142299 0.119683
H3    H     H_    0.879247 0.298706 0.061137 0.152262
H4    H     H_    0.894536 0.346938 0.014676 0.201376
H5    H     H_    0.389991 0.177856 0.123518 0.166092
H6    H     H_    0.469421 0.145728 0.224897 0.184930
H7    H     H_    0.408400 0.118852 0.107338 0.178960
H8    H     H_    0.551575 0.843164 0.858057 0.120360
H9    H     H_    0.620347 0.798721 0.937981 0.151210
H10   H     H_    0.605764 0.846588 0.985892 0.201542
H11   H     H_    0.610011 0.177822 0.876447 0.166116
H12   H     H_    0.969414 0.645731 0.224921 0.184928
H13   H     H_    0.530582 0.145708 0.775033 0.184940
H14   H     H_    0.591593 0.118807 0.892567 0.178944
H15   H     H_    0.448465 0.843198 0.141890 0.120440
H16   H     H_    0.379705 0.798720 0.062124 0.151080
H17   H     H_    0.394201 0.846540 0.014028 0.201569
H18   H     H_    0.173267 0.671513 0.290765 0.192737
H19   H     H_    0.088298 0.644698 0.190616 0.197603
H20   H     H_    0.151254 0.612828 0.301970 0.185894
H21   H     H_    0.851184 0.339543 0.605655 0.182454
H22   H     H_    0.946853 0.342455 0.692650 0.136997
H23   H     H_    0.908408 0.618837 0.107378 0.178959
H24   H     H_    0.897489 0.383350 0.700033 0.193417
H25   H     H_    0.826761 0.671526 0.709288 0.192742
H26   H     H_    0.911718 0.644679 0.809385 0.197616
H27   H     H_    0.848721 0.612839 0.698003 0.185909
H28   H     H_    0.148802 0.339576 0.394476 0.182302
H29   H     H_    0.053136 0.342529 0.307411 0.137005
H30   H     H_    0.102578 0.383421 0.300170 0.193403
H31   H     H_    0.673249 0.171529 0.290717 0.192752
H32   H     H_    0.588280 0.144708 0.190583 0.197618
H33   H     H_    0.651252 0.112841 0.301940 0.185890
H34   H     H_    0.051525 0.343212 0.858092 0.120454
H35   H     H_    0.351189 0.839546 0.605649 0.182442
H36   H     H_    0.446858 0.842462 0.692653 0.137010
H37   H     H_    0.397486 0.883356 0.700021 0.193403
H38   H     H_    0.326767 0.171490 0.709264 0.192739
H39   H     H_    0.411715 0.144616 0.809326 0.197616
H40   H     H_    0.348694 0.112807 0.697907 0.185909
H41   H     H_    0.648810 0.839541 0.394329 0.182458
H42   H     H_    0.553141 0.842451 0.307332 0.137006
H43   H     H_    0.602505 0.883345 0.299947 0.193410
H44   H     H_    0.962851 0.858164 0.245063 0.130853
H45   H     H_    0.120284 0.298733 0.937837 0.151042
H46   H     H_    0.886438 0.831155 0.130710 0.135885
H47   H     H_    0.907161 0.893452 0.136683 0.203733
H48   H     H_    0.110729 0.160401 0.828372 0.141119
H49   H     H_    0.032020 0.148724 0.702089 0.115946
H50   H     H_    0.082918 0.099910 0.784827 0.193670
H51   H     H_    0.037145 0.858168 0.754930 0.130859
H52   H     H_    0.113558 0.831156 0.869279 0.135872
H53   H     H_    0.092840 0.893454 0.863314 0.203743
H54   H     H_    0.889211 0.160433 0.171373 0.141140
H55   H     H_    0.967892 0.148729 0.297659 0.115960
H56   H     H_    0.105805 0.346549 0.985956 0.201580
H57   H     H_    0.917018 0.099933 0.214853 0.193712
H58   H     H_    0.462854 0.358160 0.245103 0.130833
H59   H     H_    0.386438 0.331164 0.130734 0.135888
H60   H     H_    0.407171 0.393463 0.136741 0.203743
H61   H     H_    0.610734 0.660403 0.828392 0.141127
H62   H     H_    0.532027 0.648729 0.702106 0.115942
H63   H     H_    0.582919 0.599913 0.784842 0.193675
H64   H     H_    0.537161 0.358145 0.755002 0.130850
H65   H     H_    0.613573 0.331132 0.869349 0.135900
H66   H     H_    0.592843 0.393426 0.863392 0.203748
H67   H     H_    0.110016 0.677848 0.876484 0.166103
H68   H     H_    0.389265 0.660396 0.171627 0.141141
H69   H     H_    0.467974 0.648737 0.297920 0.115922
H70   H     H_    0.417091 0.599911 0.215210 0.193669
H71   H     H_    0.030583 0.645733 0.775079 0.184930
H72   H     H_    0.091590 0.618839 0.892622 0.178961
O1    O     O_3   0.000000 0.749990 0.500000 -0.504340
O2    O     O_R   0.441770 0.643730 0.444290 -0.630929
O3    O     O_R   0.441770 0.356270 0.444290 -0.631385
O4    O     O_R   0.558230 0.643730 0.555710 -0.630918
O5    O     O_R   0.997500 0.643710 0.555730 -0.628006
O6    O     O_R   0.002500 0.356290 0.444270 -0.634167
O7    O     O_R   0.002500 0.643710 0.444270 -0.628008
O8    O     O_R   0.997500 0.356290 0.555730 -0.634127
O9    O     O_R   0.497500 0.143710 0.555730 -0.628019
O10   O     O_R   0.502500 0.856290 0.444270 -0.634130
O11   O     O_R   0.502500 0.143710 0.444270 -0.628002
O12   O     O_3   0.000000 0.250010 0.500000 -0.494131
O13   O     O_R   0.497500 0.856290 0.555730 -0.634138
O14   O     O_R   0.856330 0.777850 0.444260 -0.587865
O15   O     O_R   0.143670 0.222150 0.555740 -0.573417
O16   O     O_R   0.143670 0.777850 0.555740 -0.587864
O17   O     O_R   0.856330 0.222150 0.444260 -0.573417
O18   O     O_R   0.356330 0.277850 0.444260 -0.587853
O19   O     O_R   0.643670 0.722150 0.555740 -0.573407
O20   O     O_R   0.643670 0.277850 0.555740 -0.587849
O21   O     O_R   0.356330 0.722150 0.444260 -0.573411
O22   O     O_R   0.087950 0.722120 0.444280 -0.640045
O23   O     O_3   0.500000 0.249990 0.500000 -0.504345
O24   O     O_R   0.912050 0.277880 0.555720 -0.691434
O25   O     O_R   0.912050 0.722120 0.555720 -0.640043
O26   O     O_R   0.087950 0.277880 0.444280 -0.691476
O27   O     O_R   0.587950 0.222120 0.444280 -0.640050
O28   O     O_R   0.412050 0.777880 0.555720 -0.691435
O29   O     O_R   0.412050 0.222120 0.555720 -0.640045
O30   O     O_R   0.587950 0.777880 0.444280 -0.691430
O31   O     O_R   0.863370 0.777840 0.287440 -0.601968
O32   O     O_R   0.136630 0.222160 0.712560 -0.604788
O33   O     O_R   0.136630 0.777840 0.712560 -0.601969
O34   O     O_3   0.500000 0.750010 0.500000 -0.494139
O35   O     O_R   0.863370 0.222160 0.287440 -0.604769
O36   O     O_R   0.363370 0.277840 0.287440 -0.601962
O37   O     O_R   0.636630 0.722160 0.712560 -0.604792
O38   O     O_R   0.636630 0.277840 0.712560 -0.601948
O39   O     O_R   0.363370 0.722160 0.287440 -0.604794
O40   O     O_R   0.924090 0.722120 0.287440 -0.677127
O41   O     O_R   0.075910 0.277880 0.712560 -0.671449
O42   O     O_R   0.075910 0.722120 0.712560 -0.677128
O43   O     O_R   0.924090 0.277880 0.287440 -0.671473
O44   O     O_R   0.424090 0.222120 0.287440 -0.677121
O45   O     O_R   0.058230 0.856270 0.555710 -0.631382
O46   O     O_R   0.575910 0.777880 0.712560 -0.671450
O47   O     O_R   0.575910 0.222120 0.712560 -0.677146
O48   O     O_R   0.424090 0.777880 0.287440 -0.671444
O49   O     O_3   0.968503 0.672825 0.120802 -0.557814
O50   O     O_3   0.031213 0.293132 0.918846 -0.479819
O51   O     O_3   0.031497 0.672829 0.879200 -0.557821
O52   O     O_3   0.968804 0.293314 0.081285 -0.479923
O53   O     O_3   0.468498 0.172844 0.120779 -0.557809
O54   O     O_3   0.531212 0.793145 0.918836 -0.479836
O55   O     O_3   0.531493 0.172784 0.879160 -0.557838
O56   O     O_R   0.941770 0.143730 0.444290 -0.630895
O57   O     O_3   0.468787 0.793119 0.081145 -0.479820
O58   O     O_3   0.102407 0.668337 0.308250 -0.585314
O59   O     O_3   0.900726 0.314560 0.742709 -0.524628
O60   O     O_3   0.897591 0.668341 0.691751 -0.585313
O61   O     O_3   0.099306 0.314646 0.257411 -0.524665
O62   O     O_3   0.602404 0.168346 0.308227 -0.585327
O63   O     O_3   0.400725 0.814566 0.742702 -0.524661
O64   O     O_3   0.397587 0.168314 0.691707 -0.585300
O65   O     O_3   0.599271 0.814553 0.257280 -0.524656
O66   O     O_3   0.971531 0.846149 0.144334 -0.481365
O67   O     O_R   0.941770 0.856270 0.444290 -0.631380
O68   O     O_3   0.023711 0.135831 0.803141 -0.489628
O69   O     O_3   0.028468 0.846152 0.855663 -0.481364
O70   O     O_3   0.976263 0.135900 0.196653 -0.489574
O71   O     O_3   0.471534 0.346165 0.144367 -0.481368
O72   O     O_3   0.523712 0.635836 0.803153 -0.489628
O73   O     O_3   0.528474 0.346110 0.855720 -0.481363
O74   O     O_3   0.476292 0.635827 0.196880 -0.489635
O75   O     O_R   0.058230 0.143730 0.555710 -0.630956
O76   O     O_R   0.558230 0.356270 0.555710 -0.631365
Zn1   Zn    Zn3+2 0.996430 0.710180 0.579620 0.993232
Zn2   Zn    Zn3+2 0.083190 0.210200 0.579630 1.039682
Zn3   Zn    Zn3+2 0.083190 0.789800 0.579630 1.040501
Zn4   Zn    Zn3+2 0.916810 0.210200 0.420370 1.039719
Zn5   Zn    Zn3+2 0.416810 0.289800 0.420370 1.040513
Zn6   Zn    Zn3+2 0.583190 0.710200 0.579630 1.039691
Zn7   Zn    Zn3+2 0.583190 0.289800 0.579630 1.040539
Zn8   Zn    Zn3+2 0.416810 0.710200 0.420370 1.039682
Zn9   Zn    Zn3+2 0.003570 0.289820 0.420380 0.964427
Zn10  Zn    Zn3+2 0.003570 0.710180 0.420380 0.993231
Zn11  Zn    Zn3+2 0.996430 0.289820 0.579620 0.964464
Zn12  Zn    Zn3+2 0.496430 0.210180 0.579620 0.993211
Zn13  Zn    Zn3+2 0.503570 0.789820 0.420380 0.964471
Zn14  Zn    Zn3+2 0.503570 0.210180 0.420380 0.993229
Zn15  Zn    Zn3+2 0.496430 0.789820 0.579620 0.964461
Zn16  Zn    Zn3+2 0.916810 0.789800 0.420370 1.040505

loop_
_geom_bond_atom_site_label_1
_geom_bond_atom_site_label_2
_ccdc_geom_bond_type
C87   O2    A    
C52   H46   S    
C126  C127  S    
C101  C113  A    
C74   C83   A    
C139  O27   A    
C110  C118  A    
C41   O55   S    
C43   H18   S    
C6    C146  S    
O18   Zn5   S    
C4    C148  S    
C49   H37   S    
C128  O7    A    
C5    C149  S    
C41   H11   S    
O1    Zn3   S    
C29   C88   A    
C53   H49   S    
C11   C15   S    
C143  O41   A    
C56   H59   S    
C4    C12   T    
C54   H53   S    
O5    Zn1   S    
C148  O38   A    
C21   C22   S    
C149  O39   A    
C102  C111  A    
C87   O4    A    
O1    Zn10  S    
C20   C132  S    
C30   C89   A    
C99   Cl15  S    
C51   H42   S    
C71   Cl5   S    
C47   H29   S    
C3    C143  S    
C141  O31   A    
O12   Zn11  S    
C33   C92   A    
C97   C112  A    
O41   Zn11  S    
C132  O10   A    
C76   O76   A    
C101  C110  A    
O43   Zn9   S    
C17   C21   T    
C82   C91   A    
C103  C112  A    
C8    C150  T    
C43   H20   S    
C95   Cl11  S    
O23   Zn12  S    
O21   Zn8   S    
C93   Cl9   S    
C67   Cl24  S    
C36   H56   S    
C31   C90   A    
C48   H32   S    
C136  O24   A    
C81   C90   A    
C68   C77   A    
C9    C151  T    
C38   H3    S    
C70   C79   A    
O48   Zn13  S    
C65   O75   A    
C94   C115  A    
C37   H71   S    
C41   H13   S    
C106  C115  A    
O24   Zn11  S    
C144  O42   A    
C133  O25   A    
C76   C122  S    
C10   C16   S    
C50   H39   S    
O26   Zn9   S    
O13   Zn15  S    
C47   H28   S    
O22   Zn10  S    
C63   C111  S    
C54   H51   S    
C3    C11   T    
O3    Zn5   S    
O40   Zn10  S    
O28   Zn15  S    
C144  O33   A    
O9    Zn12  S    
C2    C31   A    
C34   H1    S    
O35   Zn4   S    
C57   C118  S    
C37   O51   S    
O23   Zn7   S    
C44   H22   S    
C134  O15   A    
C66   C113  S    
O46   Zn15  S    
C13   C32   A    
C121  C125  T    
C131  O61   S    
C137  O29   A    
C149  O48   A    
C46   C115  S    
C44   O59   S    
C75   C84   A    
C40   H10   S    
C138  O19   A    
C97   Cl14  S    
C66   C74   A    
C140  O21   A    
C43   H19   S    
C144  C150  S    
C123  C127  T    
O44   Zn14  S    
O34   Zn8   S    
C64   C73   A    
C39   O53   S    
C106  C136  S    
C77   C85   A    
C60   H69   S    
C88   Cl19  S    
C138  O30   A    
C55   H54   S    
C56   H58   S    
C62   C142  A    
C7    C147  S    
C100  C108  A    
C64   C114  S    
O31   Zn16  S    
C42   O57   S    
C96   C117  A    
C100  C114  A    
C28   C120  A    
C51   H43   S    
C26   O49   S    
C93   C116  A    
C42   H17   S    
C46   C68   A    
C137  O18   A    
C36   O50   S    
C35   C67   A    
C99   C111  A    
C83   O74   S    
C39   H5    S    
C48   O62   S    
C57   C120  A    
O23   Zn5   S    
O7    Zn10  S    
C44   H24   S    
C2    O63   S    
O45   Zn3   S    
C67   C75   A    
C58   H63   S    
C35   C98   A    
C146  O36   A    
C2    C63   A    
C85   Cl12  S    
C148  O47   A    
C26   C84   A    
C28   O51   S    
C86   Cl18  S    
C108  C117  A    
C82   O73   S    
C51   O65   S    
C147  O46   A    
C109  O59   S    
C74   Cl8   S    
O47   Zn12  S    
C59   H64   S    
C141  O40   A    
C87   C123  S    
O39   Zn8   S    
C29   C131  A    
C49   H36   S    
C143  O32   A    
O34   Zn6   S    
C62   C71   A    
C80   O71   S    
C39   H7    S    
C107  C116  A    
C39   H6    S    
C61   C131  A    
C105  C137  S    
C104  C113  A    
C147  O37   A    
C48   H33   S    
C27   C109  A    
O20   Zn7   S    
C96   Cl13  S    
C56   H60   S    
C36   H45   S    
C141  C152  S    
O4    Zn6   S    
C145  O35   A    
C61   C70   A    
C96   C105  A    
O34   Zn15  S    
C37   H67   S    
C56   O71   S    
C51   H41   S    
O76   Zn7   S    
C60   H70   S    
C78   O69   S    
C52   O66   S    
C59   H66   S    
C20   C25   T    
O6    Zn9   S    
C1    C119  S    
O1    Zn16  S    
O2    Zn8   S    
C80   C89   A    
C27   C85   A    
C107  C135  S    
C10   C152  T    
C42   H15   S    
C45   H26   S    
C101  Cl17  S    
C65   C121  S    
C58   H61   S    
C72   C81   A    
C24   C66   A    
C19   C130  S    
C92   Cl23  S    
C18   C22   T    
O56   Zn4   S    
O36   Zn5   S    
C79   C88   A    
O23   Zn14  S    
C60   H68   S    
C38   H4    S    
C61   C117  S    
C55   H55   S    
O67   Zn16  S    
O37   Zn6   S    
C91   Cl22  S    
C79   O70   S    
C108  C134  S    
C53   H50   S    
C84   Cl1   S    
C30   O53   S    
C50   H40   S    
C35   C116  S    
C102  C140  S    
C40   O54   S    
O42   Zn1   S    
C54   H52   S    
C5    C14   T    
C97   C106  A    
C7    C16   T    
O8    Zn11  S    
C94   C103  A    
O34   Zn13  S    
C28   C86   A    
C55   O70   S    
C73   C82   A    
C77   O68   S    
C73   Cl7   S    
O16   Zn3   S    
C47   H30   S    
C24   O65   S    
O19   Zn6   S    
C93   C102  A    
C81   O72   S    
C1    O45   A    
C99   C107  A    
C24   C33   A    
C30   C142  A    
C59   H65   S    
C47   O61   S    
O75   Zn2   S    
O11   Zn14  S    
C38   O52   S    
C13   C64   A    
C48   H31   S    
C53   O68   S    
C58   O72   S    
C62   C112  S    
C63   C72   A    
C52   H47   S    
C46   C109  A    
O10   Zn13  S    
C45   O60   S    
C76   O3    A    
C50   O64   S    
C40   H8    S    
C139  O20   A    
O25   Zn1   S    
C38   H2    S    
C98   O58   S    
C19   C23   T    
O17   Zn4   S    
O15   Zn2   S    
O12   Zn2   S    
C130  O11   A    
O32   Zn2   S    
C119  C124  T    
C53   H48   S    
C83   C92   A    
C90   Cl21  S    
C69   Cl3   S    
C37   H72   S    
C41   H14   S    
C70   Cl4   S    
C68   Cl2   S    
C29   O52   S    
C32   O55   S    
C32   C91   A    
C50   H38   S    
C72   Cl6   S    
C145  O43   A    
C6    C15   T    
C146  O44   A    
C34   H23   S    
C129  O8    A    
C43   O58   S    
O33   Zn3   S    
C54   O69   S    
C94   Cl10  S    
C45   H27   S    
C78   C86   A    
C44   H21   S    
C17   C128  S    
C59   O73   S    
C27   O50   S    
C69   C78   A    
C55   H57   S    
C71   C80   A    
C9    C12   S    
C95   C118  A    
C133  O14   A    
C52   H44   S    
O14   Zn16  S    
O30   Zn13  S    
C105  C114  A    
C40   H9    S    
C135  O22   A    
C136  O17   A    
C122  C126  T    
C103  C139  S    
O27   Zn14  S    
C49   H35   S    
C128  O5    A    
C120  O60   S    
C34   H12   S    
O1    Zn1   S    
C145  C151  S    
C26   C98   A    
C1    O67   A    
C134  O26   A    
C33   O57   S    
O12   Zn4   S    
C130  O9    A    
C18   C129  S    
C95   C104  A    
C8    C14   S    
C89   Cl20  S    
C31   O54   S    
C65   O56   A    
C100  Cl16  S    
C13   O64   S    
C140  O28   A    
C60   O74   S    
O12   Zn9   S    
C49   O63   S    
O38   Zn7   S    
C34   O49   S    
O29   Zn12  S    
C142  O62   S    
C104  C138  S    
C23   C25   S    
C75   O66   S    
C42   H16   S    
C135  O16   A    
C129  O6    A    
C45   H25   S    
C132  O13   A    
C110  C133  S    
C57   C69   A    
C58   H62   S    
C36   H34   S    
C124  C125  S    
