data_mof_unit_35250.cif
_audit_creation_date              2012-10-26T20:44:06-0400
_audit_creation_method            fapswitch 2.2
_symmetry_space_group_name_H-M    P1
_symmetry_Int_Tables_number       1
_space_group_crystal_system       triclinic
_cell_length_a                    10.821371
_cell_length_b                    9.698049
_cell_length_c                    19.460009
_cell_angle_alpha                 91.765283
_cell_angle_beta                  101.139509
_cell_angle_gamma                 89.883766
_cell_volume                      2002.81000699

loop_
_atom_site_label
_atom_site_type_symbol
_atom_type_description
_atom_site_fract_x
_atom_site_fract_y
_atom_site_fract_z
_atom_type_partial_charge
C1    C     C_R   0.871183 0.500164 0.498817 0.003809
C2    C     C_R   0.737171 0.499926 0.498930 0.573402
C3    C     C_R   0.503387 0.498516 0.368161 0.582669
C4    C     C_R   0.496304 0.501571 0.631788 0.581807
C5    C     C_R   0.058836 0.377873 0.484304 -0.096299
C6    C     C_R   0.941122 0.622145 0.515544 -0.097132
C7    C     C_R   0.930416 0.378272 0.482693 -0.095921
C8    C     C_R   0.069537 0.621751 0.517154 -0.097281
C9    C     C_R   0.464166 0.381456 0.738330 -0.084805
C10   C     C_R   0.532725 0.620364 0.261753 -0.100750
C11   C     C_R   0.489077 0.375579 0.251984 -0.092312
C12   C     C_R   0.128783 0.499841 0.501071 0.003719
C13   C     C_R   0.507726 0.626377 0.747089 -0.101922
C14   C     C_R   0.459019 0.380703 0.809480 0.210918
C15   C     C_R   0.535101 0.623129 0.190335 0.179889
C16   C     C_R   0.484115 0.376492 0.179708 0.205253
C17   C     C_R   0.510285 0.627211 0.819139 0.198978
C18   C     C_R   0.485619 0.503514 0.850674 -0.033202
C19   C     C_R   0.507723 0.501135 0.148570 -0.029458
C20   C     C_R   0.411549 0.072441 0.451665 0.274742
C21   C     C_R   0.588435 0.927538 0.548366 0.279235
C22   C     C_R   0.589239 0.078489 0.548196 0.284525
C23   C     C_R   0.383674 0.539237 0.954608 0.040016
C24   C     C_R   0.410771 0.921498 0.451813 0.277375
C25   C     C_R   0.489525 0.503562 0.706774 -0.081991
C26   C     C_R   0.508511 0.497456 0.292954 -0.069266
C27   C     C_1   0.267163 0.574452 0.907947 0.293873
C28   C     C_1   0.725643 0.429082 0.091297 0.292455
C29   C     C_1   0.279342 0.576276 0.056085 0.285095
C30   C     C_1   0.714143 0.429476 0.943266 0.289590
C31   C     C_R   0.609733 0.466392 0.044703 0.031039
C32   C     C_R   0.389823 0.540643 0.027346 0.037417
C33   C     C_R   0.603814 0.465832 0.972002 0.035382
C34   C     C_R   0.502848 0.504094 0.072291 0.044006
C35   C     C_R   0.490749 0.502119 0.927041 0.046870
C36   C     C_R   0.262815 0.500072 0.501029 0.572817
Cu1   Cu    Cu3+1 0.500000 0.640660 0.500000 1.147478
Cu2   Cu    Cu3+1 0.500000 0.359340 0.500000 1.149616
H1    H     H_    0.102856 0.282517 0.471866 0.202936
H2    H     H_    0.777736 0.658603 0.668321 0.358445
H3    H     H_    0.808167 0.364325 0.647958 0.356899
H4    H     H_    0.191928 0.635762 0.351806 0.358829
H5    H     H_    0.330833 0.032609 0.801932 0.410289
H6    H     H_    0.537726 0.929497 0.233609 0.373834
H7    H     H_    0.325210 0.047972 0.137404 0.410576
H8    H     H_    0.658968 0.958503 0.849498 0.412849
H9    H     H_    0.897100 0.717510 0.527951 0.202983
H10   H     H_    0.877559 0.283679 0.468243 0.186238
H11   H     H_    0.122380 0.716365 0.531574 0.185129
H12   H     H_    0.446895 0.286605 0.707180 0.207843
H13   H     H_    0.551317 0.714288 0.293487 0.174224
H14   H     H_    0.477013 0.279682 0.276214 0.226270
H15   H     H_    0.521235 0.721411 0.722493 0.231822
H16   H     H_    0.223218 0.341335 0.331364 0.361177
N1    N     N_R   0.500000 0.852070 0.500000 -0.323631
N2    N     N_R   0.500000 0.147930 0.500000 -0.323442
N3    N     N_1   0.174314 0.602490 0.870664 -0.194784
N4    N     N_1   0.818022 0.399369 0.128531 -0.179778
N5    N     N_1   0.191343 0.604648 0.079098 -0.180875
N6    N     N_1   0.802014 0.400530 0.920253 -0.180108
O1    O     O_R   0.319640 0.618740 0.500000 -0.453017
O2    O     O_2   0.170625 0.102265 0.379459 -0.211797
O3    O     O_3   0.279252 0.327001 0.377240 -0.504166
O4    O     O_2   0.829653 0.897463 0.619999 -0.222363
O5    O     O_2   0.658653 0.884235 0.685270 -0.233827
O6    O     O_3   0.720841 0.672870 0.622710 -0.505556
O7    O     O_2   0.742701 0.117298 0.678985 -0.166869
O8    O     O_2   0.835516 0.143112 0.575496 -0.277530
O9    O     O_3   0.721442 0.341605 0.623080 -0.487565
O10   O     O_2   0.164445 0.857118 0.424135 -0.271431
O11   O     O_2   0.258080 0.882539 0.320870 -0.175908
O12   O     O_R   0.680360 0.381260 0.500000 -0.453749
O13   O     O_3   0.278539 0.658321 0.376919 -0.488751
O14   O     O_2   0.527790 0.175142 0.897717 -0.201610
O15   O     O_2   0.308472 0.250938 0.881047 -0.233852
O16   O     O_3   0.377060 0.103475 0.781257 -0.477435
O17   O     O_2   0.681697 0.756611 0.117622 -0.179039
O18   O     O_2   0.462661 0.830186 0.103285 -0.227230
O19   O     O_3   0.616816 0.901803 0.218621 -0.443850
O20   O     O_2   0.369615 0.244294 0.059868 -0.236387
O21   O     O_2   0.571014 0.153194 0.120690 -0.162762
O22   O     O_3   0.372202 0.112017 0.173776 -0.469286
O23   O     O_R   0.680360 0.618740 0.500000 -0.461153
O24   O     O_2   0.433504 0.833082 0.895955 -0.211706
O25   O     O_2   0.652615 0.759648 0.929546 -0.237387
O26   O     O_3   0.590838 0.905715 0.818471 -0.432403
O27   O     O_R   0.319640 0.381260 0.500000 -0.461384
O28   O     O_R   0.500020 0.618830 0.400190 -0.455245
O29   O     O_R   0.499980 0.381170 0.599810 -0.453090
O30   O     O_R   0.499980 0.618830 0.599810 -0.452679
O31   O     O_R   0.500020 0.381170 0.400190 -0.453805
O32   O     O_2   0.342568 0.115746 0.314854 -0.246269
S1    S     S_3+6 0.301205 0.156495 0.381839 0.091961
S2    S     S_3+6 0.699146 0.843407 0.618053 0.091472
S3    S     S_3+6 0.720543 0.171209 0.606337 0.114473
S4    S     S_3+6 0.279650 0.828759 0.393543 0.109070
S5    S     S_3+6 0.417816 0.225144 0.845124 0.078239
S6    S     S_3+6 0.573928 0.780121 0.154981 0.092336
S7    S     S_3+6 0.449720 0.219315 0.130514 0.079341
S8    S     S_3+6 0.546986 0.783679 0.868575 0.072849

loop_
_geom_bond_atom_site_label_1
_geom_bond_atom_site_label_2
_ccdc_geom_bond_type
C20   S1    S    
O22   S7    S    
C14   C18   A    
O19   S6    S    
H7    O22   S    
C20   N2    A    
C4    C25   S    
C9    C25   A    
C24   N1    A    
C15   C19   A    
Cu2   O29   S    
Cu1   O30   S    
C29   C32   S    
C10   C15   A    
C24   S4    S    
H16   O3    S    
O15   S5    D    
C3    O31   A    
C1    C2    S    
C22   S3    S    
C3    C26   S    
C11   H14   S    
Cu1   O28   S    
C29   N5    T    
C30   N6    T    
O18   S6    D    
C31   C33   A    
C23   C27   S    
C12   C36   S    
O26   S8    S    
C18   C35   S    
C4    O30   A    
O6    S2    S    
C10   C26   A    
H2    O6    S    
C21   C22   A    
O7    S3    D    
C13   C25   A    
C2    O23   A    
C2    O12   A    
C10   H13   S    
O14   S5    D    
C13   H15   S    
C28   C31   S    
C36   O27   A    
Cu2   O12   S    
O8    S3    D    
C6    H9    S    
C1    C6    A    
O24   S8    D    
C20   C24   A    
C5    C12   A    
C27   N3    T    
C21   N1    A    
C6    C8    A    
O11   S4    D    
O21   S7    D    
C11   C26   A    
O16   S5    S    
Cu2   O31   S    
C32   C34   A    
O10   S4    D    
C9    C14   A    
Cu1   Cu2   S    
C5    C7    A    
C11   C16   A    
C8    C12   A    
C17   C18   A    
C31   C34   A    
O17   S6    D    
O5    S2    D    
C23   C35   A    
C5    H1    S    
O20   S7    D    
C15   S6    S    
C36   O1    A    
C14   S5    S    
H3    O9    S    
C4    O29   A    
H5    O16   S    
H4    O13   S    
C30   C33   S    
C3    O28   A    
C1    C7    A    
H6    O19   S    
C9    H12   S    
O9    S3    S    
C19   C34   S    
Cu1   O1    S    
C16   S7    S    
C28   N4    T    
O3    S1    S    
C22   N2    A    
Cu2   O27   S    
C7    H10   S    
O4    S2    D    
O25   S8    D    
C23   C32   A    
C16   C19   A    
O32   S1    D    
C33   C35   A    
C17   S8    S    
C13   C17   A    
Cu1   N1    S    
Cu2   N2    S    
C21   S2    S    
O2    S1    D    
Cu1   O23   S    
O13   S4    S    
C8    H11   S    
H8    O26   S    
