data_mof_unit_25043.cif
_audit_creation_date              2012-12-10T18:05:15-0500
_audit_creation_method            fapswitch 2.2
_symmetry_space_group_name_H-M    P1
_symmetry_Int_Tables_number       1
_space_group_crystal_system       triclinic
_cell_length_a                    9.604722
_cell_length_b                    10.781108
_cell_length_c                    17.143953
_cell_angle_alpha                 87.960307
_cell_angle_beta                  94.293961
_cell_angle_gamma                 90.912027
_cell_volume                      1768.98741225

loop_
_atom_site_label
_atom_site_type_symbol
_atom_type_description
_atom_site_fract_x
_atom_site_fract_y
_atom_site_fract_z
_atom_type_partial_charge
C1    C     C_R   0.498940 0.262756 0.497961 0.844236
C2    C     C_R   0.501060 0.737244 0.502039 0.844236
C3    C     C_R   0.434979 0.934569 0.560861 -0.012362
C4    C     C_R   0.565021 0.065431 0.439138 -0.012363
C5    C     C_R   0.502632 0.871159 0.504010 -0.097028
C6    C     C_R   0.497368 0.128840 0.495989 -0.097028
C7    C     C_R   0.077510 0.414097 0.544594 0.056798
C8    C     C_R   0.922489 0.585903 0.455406 0.056797
C9    C     C_R   0.929366 0.416153 0.545694 0.000280
C10   C     C_R   0.070634 0.583847 0.454306 0.000280
C11   C     C_R   0.518611 0.503448 0.650798 0.862860
C12   C     C_R   0.481388 0.496552 0.349202 0.862859
C13   C     C_R   0.531381 0.512811 0.736961 -0.077161
C14   C     C_R   0.468619 0.487189 0.263038 -0.077161
C15   C     C_R   0.408734 0.504598 0.776746 -0.178634
C16   C     C_R   0.591266 0.495401 0.223254 -0.178631
C17   C     C_R   0.414366 0.502511 0.857834 -0.153458
C18   C     C_R   0.585635 0.497487 0.142166 -0.153459
C19   C     C_R   0.543894 0.509286 0.901668 0.359722
C20   C     C_R   0.456107 0.490716 0.098332 0.359723
C21   C     C_R   0.666025 0.522081 0.862901 -0.216494
C22   C     C_R   0.333975 0.477923 0.137099 -0.216494
C23   C     C_R   0.662023 0.527464 0.781123 -0.042491
C24   C     C_R   0.337976 0.472539 0.218876 -0.042491
C25   C     C_R   0.433564 0.063611 0.555769 -0.155687
C26   C     C_R   0.566436 0.936389 0.444231 -0.155688
Cu1   Cu    Cu3+1 0.640660 0.500020 0.500000 1.034650
Cu2   Cu    Cu3+1 0.359340 0.499980 0.500000 1.034649
H1    H     H_    0.692948 0.500228 0.254646 0.217694
H2    H     H_    0.307053 0.499769 0.745354 0.217695
H3    H     H_    0.682952 0.504890 0.114181 0.174014
H4    H     H_    0.317049 0.495106 0.885819 0.174015
H5    H     H_    0.765008 0.531460 0.897156 0.172852
H6    H     H_    0.234992 0.468546 0.102843 0.172851
H7    H     H_    0.387909 0.114314 0.600705 0.180673
H8    H     H_    0.612091 0.885686 0.399295 0.180674
N1    N     N_2   0.556531 0.506390 0.984610 -0.240789
N2    N     N_2   0.443470 0.493612 0.015390 -0.240789
N3    N     N_R   0.852070 0.500030 0.499980 -0.223403
N4    N     N_R   0.147930 0.499970 0.500020 -0.223403
O1    O     O_R   0.618740 0.319660 0.500000 -0.585036
O2    O     O_R   0.381260 0.680340 0.500000 -0.585037
O3    O     O_R   0.381170 0.319630 0.500010 -0.556400
O4    O     O_R   0.618830 0.680370 0.499990 -0.556399
O5    O     O_R   0.631780 0.498870 0.613920 -0.580820
O6    O     O_R   0.368220 0.501130 0.386080 -0.580820
O7    O     O_R   0.394210 0.498840 0.613930 -0.554159
O8    O     O_R   0.605790 0.501160 0.386070 -0.554158
C27   C     C_2   0.795795 0.554892 0.745903 0.869610
O9    O     O_2   0.804188 0.640634 0.697740 -0.548999
O10   O     O_R   0.914431 0.486877 0.771264 -0.755803
H9    H     H_    0.999823 0.514673 0.743560 0.335926
C28   C     C_2   0.204204 0.445115 0.254097 0.869609
O11   O     O_2   0.195806 0.359371 0.302258 -0.548999
O12   O     O_R   0.085570 0.513135 0.228737 -0.755801
H10   H     H_    0.000177 0.485341 0.256440 0.335926
C29   C     C_2   0.369476 0.871011 0.627552 0.862533
O13   O     O_2   0.412761 0.771180 0.654274 -0.607788
O14   O     O_R   0.260170 0.927872 0.661620 -0.726773
H11   H     H_    0.224789 0.876392 0.706869 0.347197
C30   C     C_2   0.630524 0.128989 0.372448 0.862533
O15   O     O_2   0.587239 0.228820 0.345726 -0.607788
O16   O     O_R   0.739829 0.072128 0.338379 -0.726773
H12   H     H_    0.775211 0.123608 0.293131 0.347198
C31   C     C_2   0.151389 0.310814 0.587279 0.879777
O17   O     O_2   0.147398 0.208423 0.558713 -0.553321
O18   O     O_R   0.211274 0.326089 0.663002 -0.784748
H13   H     H_    0.253819 0.246924 0.687151 0.335138
C32   C     C_2   0.848611 0.689186 0.412721 0.879777
O19   O     O_2   0.852601 0.791576 0.441286 -0.553321
O20   O     O_R   0.788726 0.673910 0.336998 -0.784749
H14   H     H_    0.746181 0.753074 0.312848 0.335139
C33   C     C_1   0.860452 0.330681 0.597572 0.369041
N5    N     N_1   0.806531 0.261928 0.639519 -0.251650
C34   C     C_1   0.139548 0.669319 0.402428 0.369041
N6    N     N_1   0.193469 0.738073 0.360481 -0.251648

loop_
_geom_bond_atom_site_label_1
_geom_bond_atom_site_label_2
_ccdc_geom_bond_type
Cu1   O8    S    
O12   H10   S    
Cu2   O7    S    
C33   N5    T    
C11   O7    A    
C12   O8    A    
C28   O11   D    
Cu2   O6    S    
C8    C32   S    
C22   C24   A    
C19   C21   A    
C23   C27   S    
C6    C25   A    
C21   H5    S    
Cu2   N4    S    
C9    N3    A    
O10   H9    S    
C13   C23   A    
C10   N4    A    
C14   C24   A    
C30   O16   S    
C19   N1    S    
Cu1   O4    S    
C1    O3    A    
Cu1   N3    S    
C31   O18   S    
C7    N4    A    
C8    N3    A    
Cu1   O5    S    
O14   H11   S    
C30   O15   D    
C9    C33   S    
C28   O12   S    
C22   H6    S    
C32   O20   S    
O18   H13   S    
C3    C25   A    
C4    C6    A    
C2    O4    A    
C27   O10   S    
C16   H1    S    
C4    C30   S    
C1    C6    S    
C12   O6    A    
C34   N6    T    
N1    N2    D    
C7    C31   S    
C20   N2    S    
C10   C34   S    
Cu1   O1    S    
C25   H7    S    
C3    C29   S    
C1    O1    A    
C12   C14   S    
C27   O9    D    
C13   C15   A    
C14   C16   A    
C11   O5    A    
C2    C5    S    
C15   H2    S    
C26   H8    S    
C15   C17   A    
C8    C10   A    
C20   C22   A    
O16   H12   S    
C3    C5    A    
C4    C26   A    
Cu2   O3    S    
C21   C23   A    
C24   C28   S    
O20   H14   S    
C11   C13   S    
C29   O13   D    
C2    O2    A    
Cu2   O2    S    
C17   C19   A    
C18   C20   A    
C32   O19   D    
C29   O14   S    
C5    C26   A    
C7    C9    A    
C16   C18   A    
C31   O17   D    
Cu1   Cu2   S    
C17   H4    S    
C18   H3    S    
