data_mof_unit_61355.cif
_audit_creation_date              2012-12-10T18:56:38-0500
_audit_creation_method            fapswitch 2.2
_symmetry_space_group_name_H-M    P1
_symmetry_Int_Tables_number       1
_space_group_crystal_system       monoclinic
_cell_length_a                    30.405538
_cell_length_b                    30.405542
_cell_length_c                    59.933836
_cell_angle_alpha                 90.0
_cell_angle_beta                  90.0
_cell_angle_gamma                 90.005856
_cell_volume                      55408.6430617

loop_
_atom_site_label
_atom_site_type_symbol
_atom_type_description
_atom_site_fract_x
_atom_site_fract_y
_atom_site_fract_z
_atom_type_partial_charge
C1    C     C_R   0.500000 1.000000 0.689479 0.899175
C2    C     C_R   0.465189 0.979753 0.153186 0.074023
C3    C     C_R   0.500000 1.000000 0.476362 0.081322
C4    C     C_R   0.500000 1.000000 0.023638 0.081318
C5    C     C_R   0.500000 0.000000 0.976394 0.081327
C6    C     C_R   0.000000 0.500000 0.023499 0.083166
C7    C     C_R   1.000000 0.500000 0.976500 0.083163
C8    C     C_R   0.920446 0.491132 0.524101 -0.199278
C9    C     C_R   0.079552 0.491137 0.475899 -0.199276
C10   C     C_R   0.567337 0.956663 0.524463 -0.195239
C11   C     C_R   0.430385 0.039575 0.475506 -0.195237
C12   C     C_R   0.079554 0.508868 0.524101 -0.199278
C13   C     C_R   0.033464 0.522571 0.847281 0.089693
C14   C     C_R   0.920447 0.508863 0.475899 -0.199276
C15   C     C_R   0.432663 0.043337 0.524463 -0.195239
C16   C     C_R   0.569615 0.960425 0.475506 -0.195237
C17   C     C_R   0.460435 0.069620 0.024494 -0.195237
C18   C     C_R   0.543343 0.932667 0.975537 -0.195240
C19   C     C_R   0.991132 0.420446 0.024101 -0.199278
C20   C     C_R   0.991137 0.579552 0.975899 -0.199276
C21   C     C_R   0.539565 0.930379 0.024494 -0.195237
C22   C     C_R   0.456657 0.067333 0.975537 -0.195240
C23   C     C_R   0.008868 0.579554 0.024101 -0.199278
C24   C     C_R   0.033462 0.477433 0.152719 0.089821
C25   C     C_R   0.008863 0.420447 0.975899 -0.199276
C26   C     C_R   0.584272 0.915723 0.749997 0.800370
C27   C     C_R   0.415723 0.084271 0.249997 0.800844
C28   C     C_R   0.084248 0.584296 0.750021 0.802194
C29   C     C_R   0.915704 0.415752 0.250021 0.802197
C30   C     C_R   0.415728 0.084277 0.749997 0.800369
C31   C     C_R   0.584277 0.915728 0.249997 0.800844
C32   C     C_R   0.915752 0.415704 0.750021 0.802194
C33   C     C_R   0.084296 0.584248 0.250021 0.802197
C34   C     C_R   0.415733 0.915727 0.250003 0.815380
C35   C     C_R   0.465810 0.978712 0.846845 0.074997
C36   C     C_R   0.584273 0.084267 0.750003 0.815178
C37   C     C_R   0.915752 0.584296 0.249979 0.802152
C38   C     C_R   0.084296 0.415752 0.749979 0.802149
C39   C     C_R   0.584267 0.084273 0.250003 0.815380
C40   C     C_R   0.415727 0.915733 0.750003 0.815178
C41   C     C_R   0.084248 0.415704 0.249979 0.802152
C42   C     C_R   0.915704 0.584248 0.749979 0.802149
C43   C     C_R   0.345859 0.884030 0.735158 -0.161440
C44   C     C_R   0.654027 0.116045 0.264940 -0.161359
C45   C     C_R   0.115755 0.345680 0.735235 -0.161112
C46   C     C_R   0.534811 0.020247 0.153186 0.074022
C47   C     C_R   0.884560 0.654687 0.264463 -0.174099
C48   C     C_R   0.654141 0.115970 0.735158 -0.161440
C49   C     C_R   0.345973 0.883954 0.264940 -0.161360
C50   C     C_R   0.884245 0.654320 0.735235 -0.161112
C51   C     C_R   0.115440 0.345313 0.264463 -0.174099
C52   C     C_R   0.654919 0.884780 0.264321 -0.171564
C53   C     C_R   0.345222 0.115330 0.735561 -0.171547
C54   C     C_R   0.884045 0.345876 0.264897 -0.161090
C55   C     C_R   0.115647 0.654485 0.735398 -0.174047
C56   C     C_R   0.345081 0.115220 0.264321 -0.171564
C57   C     C_R   0.966536 0.477429 0.847281 0.089693
C58   C     C_R   0.654777 0.884670 0.735561 -0.171548
C59   C     C_R   0.115955 0.654124 0.264897 -0.161090
C60   C     C_R   0.884353 0.345515 0.735398 -0.174046
C61   C     C_R   0.845505 0.384362 0.235405 -0.174042
C62   C     C_R   0.154114 0.615964 0.764903 -0.161095
C63   C     C_R   0.615332 0.845225 0.235560 -0.171397
C64   C     C_R   0.384782 0.154921 0.764320 -0.171714
C65   C     C_R   0.154495 0.615637 0.235405 -0.174042
C66   C     C_R   0.845885 0.384035 0.764903 -0.161095
C67   C     C_R   0.384668 0.154775 0.235560 -0.171397
C68   C     C_R   0.966538 0.522567 0.152719 0.089821
C69   C     C_R   0.615218 0.845078 0.764320 -0.171714
C70   C     C_R   0.154687 0.384560 0.764463 -0.174103
C71   C     C_R   0.845680 0.615755 0.235235 -0.161107
C72   C     C_R   0.383919 0.846010 0.764964 -0.161246
C73   C     C_R   0.615934 0.154178 0.235182 -0.161554
C74   C     C_R   0.845312 0.615440 0.764463 -0.174103
C75   C     C_R   0.154320 0.384245 0.235235 -0.161107
C76   C     C_R   0.616081 0.153990 0.764964 -0.161246
C77   C     C_R   0.384066 0.845821 0.235182 -0.161553
C78   C     C_R   0.313363 0.851649 0.735203 -0.145692
C79   C     C_R   0.022571 0.533464 0.347281 0.089694
C80   C     C_R   0.686407 0.148541 0.264996 -0.145377
C81   C     C_R   0.148258 0.313308 0.735171 -0.147064
C82   C     C_R   0.852197 0.687193 0.264404 -0.148886
C83   C     C_R   0.686637 0.148351 0.735203 -0.145692
C84   C     C_R   0.313593 0.851459 0.264996 -0.145377
C85   C     C_R   0.851742 0.686692 0.735171 -0.147064
C86   C     C_R   0.147803 0.312806 0.264404 -0.148886
C87   C     C_R   0.687413 0.852399 0.264276 -0.148760
C88   C     C_R   0.312842 0.147823 0.735505 -0.148566
C89   C     C_R   0.851532 0.313508 0.264965 -0.146531
C90   C     C_R   0.977433 0.533462 0.652719 0.089821
C91   C     C_R   0.148017 0.686989 0.735453 -0.148349
C92   C     C_R   0.312587 0.147601 0.264276 -0.148760
C93   C     C_R   0.687157 0.852177 0.735505 -0.148567
C94   C     C_R   0.148468 0.686492 0.264965 -0.146531
C95   C     C_R   0.851983 0.313011 0.735453 -0.148349
C96   C     C_R   0.813001 0.351993 0.235459 -0.148349
C97   C     C_R   0.186482 0.648478 0.764971 -0.146532
C98   C     C_R   0.647825 0.812845 0.235503 -0.148492
C99   C     C_R   0.352401 0.187415 0.764274 -0.148835
C100  C     C_R   0.186999 0.648007 0.235459 -0.148349
C101  C     C_R   0.520255 0.034806 0.346814 0.073932
C102  C     C_R   0.813518 0.351522 0.764971 -0.146532
C103  C     C_R   0.352175 0.187155 0.235503 -0.148492
C104  C     C_R   0.647599 0.812585 0.764274 -0.148835
C105  C     C_R   0.187194 0.352198 0.764404 -0.148901
C106  C     C_R   0.813308 0.648258 0.235171 -0.147050
C107  C     C_R   0.351423 0.813630 0.765020 -0.145374
C108  C     C_R   0.648315 0.186674 0.235227 -0.145694
C109  C     C_R   0.812806 0.647802 0.764404 -0.148901
C110  C     C_R   0.186692 0.351741 0.235171 -0.147050
C111  C     C_R   0.648577 0.186370 0.765020 -0.145374
C112  C     C_R   0.500000 1.000000 0.310513 0.899833
C113  C     C_R   0.478719 0.965805 0.653155 0.075093
C114  C     C_R   0.351685 0.813326 0.235227 -0.145695
C115  C     C_R   0.315787 0.816096 0.750139 0.072181
C116  C     C_R   0.683904 0.184214 0.250139 0.072298
C117  C     C_R   0.184319 0.316198 0.749768 0.073150
C118  C     C_R   0.816198 0.684319 0.249768 0.073150
C119  C     C_R   0.684213 0.183904 0.750139 0.072181
C120  C     C_R   0.316095 0.815786 0.250139 0.072298
C121  C     C_R   0.815681 0.683802 0.749768 0.073150
C122  C     C_R   0.183802 0.315681 0.249768 0.073150
C123  C     C_R   0.684224 0.816078 0.249862 0.074928
C124  C     C_R   0.977429 0.466536 0.347281 0.089695
C125  C     C_R   0.316078 0.184224 0.749862 0.074940
C126  C     C_R   0.815672 0.316195 0.250231 0.073078
C127  C     C_R   0.183805 0.684328 0.750231 0.073073
C128  C     C_R   0.315776 0.183921 0.249862 0.074927
C129  C     C_R   0.683922 0.815776 0.749862 0.074940
C130  C     C_R   0.184328 0.683804 0.250231 0.073078
C131  C     C_R   0.816195 0.315672 0.750231 0.073073
C132  C     C_R   0.381429 0.881506 0.750036 -0.015156
C133  C     C_R   0.618495 0.118571 0.250036 -0.014921
C134  C     C_R   0.118651 0.381578 0.749897 -0.015630
C135  C     C_R   0.022567 0.466538 0.652719 0.089821
C136  C     C_R   0.881578 0.618651 0.249897 -0.015631
C137  C     C_R   0.618571 0.118494 0.750036 -0.015156
C138  C     C_R   0.381505 0.881428 0.250036 -0.014921
C139  C     C_R   0.881349 0.618422 0.749897 -0.015630
C140  C     C_R   0.118422 0.381349 0.249897 -0.015631
C141  C     C_R   0.618582 0.881493 0.249965 -0.012766
C142  C     C_R   0.381493 0.118582 0.749965 -0.012792
C143  C     C_R   0.881347 0.381577 0.250103 -0.015825
C144  C     C_R   0.118423 0.618653 0.750103 -0.015832
C145  C     C_R   0.381418 0.118507 0.249965 -0.012766
C146  C     C_R   0.479745 0.965194 0.346814 0.073932
C147  C     C_R   0.618507 0.881418 0.749965 -0.012792
C148  C     C_R   0.118653 0.618423 0.250103 -0.015825
C149  C     C_R   0.881577 0.381346 0.750103 -0.015832
C150  C     C_R   0.218147 0.718693 0.750241 0.297900
C151  C     C_R   0.781307 0.281853 0.250241 0.297924
C152  C     C_R   0.281782 0.218632 0.749813 0.297069
C153  C     C_R   0.718632 0.781782 0.249813 0.297113
C154  C     C_R   0.781853 0.281307 0.750241 0.297900
C155  C     C_R   0.218693 0.718147 0.250241 0.297924
C156  C     C_R   0.718218 0.781368 0.749813 0.297069
C157  C     C_R   0.521281 0.034195 0.653155 0.075093
C158  C     C_R   0.281368 0.218218 0.249813 0.297114
C159  C     C_R   0.781857 0.718682 0.249758 0.297905
C160  C     C_R   0.218682 0.281857 0.749758 0.297891
C161  C     C_R   0.718202 0.218623 0.250187 0.299202
C162  C     C_R   0.281377 0.781798 0.750187 0.299201
C163  C     C_R   0.218143 0.281318 0.249758 0.297905
C164  C     C_R   0.781318 0.718143 0.749758 0.297891
C165  C     C_R   0.281798 0.781376 0.250187 0.299202
C166  C     C_R   0.718623 0.218201 0.750187 0.299201
C167  C     C_R   0.478770 0.032943 0.917218 0.575609
C168  C     C_R   0.500000 0.000000 0.881998 0.126722
C169  C     C_R   0.519346 0.965916 0.082813 0.575589
C170  C     C_R   0.008146 0.461614 0.917605 0.575562
C171  C     C_R   0.008149 0.538386 0.082395 0.575657
C172  C     C_R   0.521230 0.967057 0.917218 0.575608
C173  C     C_R   0.480654 0.034084 0.082813 0.575589
C174  C     C_R   0.991853 0.538385 0.917605 0.575562
C175  C     C_R   0.991851 0.461613 0.082395 0.575657
C176  C     C_R   0.961614 0.508146 0.417605 0.575563
C177  C     C_R   0.038387 0.508149 0.582395 0.575658
C178  C     C_R   0.534081 0.980649 0.417187 0.575547
C179  C     C_R   0.500000 1.000000 0.118032 0.126709
C180  C     C_R   0.467055 0.021226 0.582782 0.575650
C181  C     C_R   0.038385 0.491853 0.417605 0.575563
C182  C     C_R   0.961613 0.491851 0.582395 0.575658
C183  C     C_R   0.465919 0.019351 0.417187 0.575547
C184  C     C_R   0.532945 0.978773 0.582782 0.575650
C185  C     C_R   0.533984 0.021362 0.870339 0.172520
C186  C     C_R   0.465334 0.979757 0.129693 0.173097
C187  C     C_R   0.034647 0.520210 0.870716 0.171778
C188  C     C_R   0.034646 0.479795 0.129284 0.171861
C189  C     C_R   0.466016 0.978638 0.870339 0.172519
C190  C     C_R   0.000000 0.500000 0.882378 0.116864
C191  C     C_R   0.534666 0.020243 0.129693 0.173098
C192  C     C_R   0.965353 0.479790 0.870716 0.171777
C193  C     C_R   0.965354 0.520205 0.129284 0.171861
C194  C     C_R   0.020210 0.534647 0.370716 0.171778
C195  C     C_R   0.979795 0.534646 0.629284 0.171861
C196  C     C_R   0.520251 0.034661 0.370306 0.173016
C197  C     C_R   0.478645 0.966012 0.629661 0.172604
C198  C     C_R   0.979790 0.465353 0.370716 0.171777
C199  C     C_R   0.020205 0.465354 0.629284 0.171861
C200  C     C_R   0.479749 0.965339 0.370306 0.173016
C201  C     C_R   0.000000 0.500000 0.117622 0.117010
C202  C     C_R   0.521355 0.033988 0.629661 0.172604
C203  C     C_R   0.000000 0.500000 0.382377 0.116865
C204  C     C_R   0.000000 0.500000 0.689379 0.888568
C205  C     C_R   1.000000 0.500000 0.617622 0.117012
C206  C     C_R   0.500000 1.000000 0.381967 0.126651
C207  C     C_R   0.500000 1.000000 0.618002 0.126781
C208  C     C_R   0.500000 1.000000 0.952608 -0.043856
C209  C     C_R   0.500000 1.000000 0.047423 -0.043857
C210  C     C_R   1.000000 0.500000 0.952840 -0.048359
C211  C     C_R   0.000000 0.500000 0.047160 -0.048364
C212  C     C_R   1.000000 0.500000 0.452840 -0.048359
C213  C     C_R   1.000000 0.500000 0.547160 -0.048364
C214  C     C_R   0.500000 1.000000 0.452577 -0.043857
C215  C     C_R   0.000000 0.500000 0.310621 0.888535
C216  C     C_R   0.500000 1.000000 0.547392 -0.043853
C217  C     C_R   0.478376 0.033542 0.940680 -0.035789
C218  C     C_R   0.519694 0.965289 0.059352 -0.035849
C219  C     C_R   0.006622 0.460572 0.941002 -0.035472
C220  C     C_R   0.006624 0.539429 0.058997 -0.035544
C221  C     C_R   0.521624 0.966458 0.940680 -0.035789
C222  C     C_R   0.480306 0.034711 0.059352 -0.035848
C223  C     C_R   0.993378 0.539428 0.941002 -0.035472
C224  C     C_R   0.993376 0.460571 0.058997 -0.035544
C225  C     C_R   0.960572 0.506622 0.441002 -0.035474
C226  C     C_R   0.000000 0.500000 0.189379 0.888569
C227  C     C_R   0.039429 0.506624 0.558997 -0.035543
C228  C     C_R   0.534708 0.980301 0.440648 -0.035780
C229  C     C_R   0.466455 0.021621 0.559320 -0.035863
C230  C     C_R   0.039428 0.493378 0.441002 -0.035474
C231  C     C_R   0.960571 0.493376 0.558997 -0.035543
C232  C     C_R   0.465292 0.019699 0.440648 -0.035780
C233  C     C_R   0.533545 0.978379 0.559320 -0.035862
C234  C     C_R   0.456721 0.066814 0.952354 -0.114630
C235  C     C_R   0.539135 0.930676 0.047677 -0.114549
C236  C     C_R   0.011709 0.421142 0.952733 -0.111549
C237  C     C_R   1.000000 0.500000 0.810620 0.888534
C238  C     C_R   0.011714 0.578860 0.047267 -0.111450
C239  C     C_R   0.543279 0.933186 0.952354 -0.114630
C240  C     C_R   0.460865 0.069323 0.047677 -0.114550
C241  C     C_R   0.988291 0.578858 0.952733 -0.111549
C242  C     C_R   0.988285 0.421140 0.047267 -0.111450
C243  C     C_R   0.921142 0.511709 0.452733 -0.111544
C244  C     C_R   0.078860 0.511714 0.547267 -0.111453
C245  C     C_R   0.569317 0.960854 0.452322 -0.114632
C246  C     C_R   0.433181 0.043272 0.547646 -0.114546
C247  C     C_R   0.078858 0.488291 0.452733 -0.111544
C248  C     C_R   0.500000 1.000000 0.189487 0.899912
C249  C     C_R   0.921140 0.488285 0.547267 -0.111453
C250  C     C_R   0.430682 0.039145 0.452322 -0.114632
C251  C     C_R   0.566819 0.956728 0.547646 -0.114546
C252  C     C_R   0.500000 1.000000 0.835092 -0.188516
C253  C     C_R   0.500000 1.000000 0.164928 -0.187099
C254  C     C_R   0.000000 0.500000 0.835352 -0.212392
C255  C     C_R   0.000000 0.500000 0.164648 -0.212346
C256  C     C_R   0.000000 0.500000 0.335352 -0.212393
C257  C     C_R   0.000000 0.500000 0.664648 -0.212345
C258  C     C_R   0.500000 1.000000 0.335072 -0.187169
C259  C     C_R   0.500000 1.000000 0.810521 0.899096
C260  C     C_R   0.500000 1.000000 0.664908 -0.188447
C261  C     C_R   0.959515 0.497886 0.511785 0.043490
C262  C     C_R   0.040484 0.497889 0.488214 0.043555
C263  C     C_R   0.534509 0.978519 0.511869 0.044457
C264  C     C_R   0.464969 0.020618 0.488100 0.044490
C265  C     C_R   0.040484 0.502114 0.511785 0.043490
C266  C     C_R   0.959516 0.502111 0.488214 0.043555
C267  C     C_R   0.465491 0.021481 0.511869 0.044457
C268  C     C_R   0.535031 0.979381 0.488100 0.044490
C269  C     C_R   0.479384 0.035032 0.011900 0.044459
C270  C     C_R   0.534190 0.021288 0.846845 0.074997
C271  C     C_R   0.521482 0.965492 0.988131 0.044488
C272  C     C_R   0.997886 0.459515 0.011785 0.043488
C273  C     C_R   0.997889 0.540484 0.988214 0.043556
C274  C     C_R   0.520616 0.964967 0.011900 0.044459
C275  C     C_R   0.478518 0.034508 0.988131 0.044488
C276  C     C_R   0.002114 0.540484 0.011785 0.043488
C277  C     C_R   0.002111 0.459516 0.988214 0.043556
C278  C     C_R   1.000000 0.500000 0.523499 0.083166
C279  C     C_R   1.000000 0.500000 0.476500 0.083163
C280  C     C_R   0.500000 1.000000 0.523606 0.081323
H1    H     H_    0.888955 0.486361 0.516178 0.151233
H2    H     H_    0.561414 0.906055 0.982998 0.147987
H3    H     H_    0.986361 0.388955 0.016178 0.151234
H4    H     H_    0.986368 0.611043 0.983821 0.151078
H5    H     H_    0.554766 0.902030 0.017034 0.148016
H6    H     H_    0.438586 0.093945 0.982998 0.147987
H7    H     H_    0.013639 0.611045 0.016178 0.151234
H8    H     H_    0.013632 0.388957 0.983821 0.151078
H9    H     H_    0.343121 0.911009 0.723441 0.174396
H10   H     H_    0.656816 0.088983 0.276604 0.174157
H11   H     H_    0.088372 0.342572 0.723785 0.177822
H12   H     H_    0.111043 0.486368 0.483821 0.151079
H13   H     H_    0.911888 0.657787 0.275945 0.171235
H14   H     H_    0.656878 0.088991 0.723441 0.174396
H15   H     H_    0.343184 0.911017 0.276604 0.174157
H16   H     H_    0.911628 0.657428 0.723785 0.177822
H17   H     H_    0.088111 0.342213 0.275945 0.171235
H18   H     H_    0.658290 0.912386 0.275612 0.169842
H19   H     H_    0.341826 0.087672 0.724305 0.169978
H20   H     H_    0.911273 0.342927 0.276452 0.178072
H21   H     H_    0.088481 0.657419 0.723806 0.171357
H22   H     H_    0.341710 0.087614 0.275612 0.169842
H23   H     H_    0.593952 0.938596 0.517003 0.148023
H24   H     H_    0.658174 0.912327 0.724305 0.169978
H25   H     H_    0.088727 0.657073 0.276452 0.178072
H26   H     H_    0.911519 0.342581 0.723806 0.171357
H27   H     H_    0.842564 0.411536 0.223817 0.171354
H28   H     H_    0.157056 0.588744 0.776464 0.178084
H29   H     H_    0.587676 0.841830 0.224302 0.169934
H30   H     H_    0.412389 0.158294 0.775609 0.169885
H31   H     H_    0.157436 0.588464 0.223817 0.171354
H32   H     H_    0.842944 0.411255 0.776464 0.178084
H33   H     H_    0.412324 0.158170 0.224302 0.169934
H34   H     H_    0.402038 0.054782 0.482966 0.147980
H35   H     H_    0.587611 0.841706 0.775609 0.169885
H36   H     H_    0.157788 0.411889 0.775945 0.171235
H37   H     H_    0.842573 0.588373 0.223784 0.177821
H38   H     H_    0.410951 0.843252 0.776648 0.174493
H39   H     H_    0.588925 0.156946 0.223484 0.174059
H40   H     H_    0.842212 0.588110 0.775945 0.171235
H41   H     H_    0.157427 0.411627 0.223784 0.177821
H42   H     H_    0.589048 0.156748 0.776648 0.174493
H43   H     H_    0.411075 0.843054 0.223484 0.174059
H44   H     H_    0.286369 0.854537 0.723512 0.161296
H45   H     H_    0.111045 0.513639 0.516178 0.151233
H46   H     H_    0.713371 0.145649 0.276704 0.161492
H47   H     H_    0.145055 0.286034 0.723670 0.161979
H48   H     H_    0.855437 0.714535 0.275861 0.160241
H49   H     H_    0.713630 0.145462 0.723512 0.161296
H50   H     H_    0.286629 0.854351 0.276704 0.161492
H51   H     H_    0.854945 0.713966 0.723670 0.161979
H52   H     H_    0.144563 0.285465 0.275861 0.160241
H53   H     H_    0.715018 0.855904 0.275548 0.159845
H54   H     H_    0.285290 0.144344 0.724197 0.160119
H55   H     H_    0.854580 0.286388 0.276569 0.162334
H56   H     H_    0.888957 0.513632 0.483821 0.151079
H57   H     H_    0.144939 0.714171 0.723887 0.160581
H58   H     H_    0.284982 0.144096 0.275548 0.159845
H59   H     H_    0.714710 0.855655 0.724197 0.160119
H60   H     H_    0.145420 0.713612 0.276569 0.162334
H61   H     H_    0.855061 0.285829 0.723887 0.160581
H62   H     H_    0.785812 0.355078 0.223899 0.160575
H63   H     H_    0.213595 0.645438 0.776581 0.162342
H64   H     H_    0.644348 0.785294 0.224194 0.160114
H65   H     H_    0.355908 0.215022 0.775546 0.159850
H66   H     H_    0.214188 0.644922 0.223899 0.160575
H67   H     H_    0.406048 0.061404 0.517003 0.148023
H68   H     H_    0.786405 0.354562 0.776581 0.162342
H69   H     H_    0.355652 0.214706 0.224194 0.160114
H70   H     H_    0.644092 0.784978 0.775546 0.159850
H71   H     H_    0.214536 0.355438 0.775860 0.160238
H72   H     H_    0.786035 0.645056 0.223669 0.161982
H73   H     H_    0.354285 0.786696 0.776747 0.161578
H74   H     H_    0.645397 0.213697 0.223556 0.161211
H75   H     H_    0.785464 0.644562 0.775860 0.160238
H76   H     H_    0.213965 0.354944 0.223669 0.161982
H77   H     H_    0.645714 0.213304 0.776747 0.161578
H78   H     H_    0.597962 0.945218 0.482966 0.147980
H79   H     H_    0.354603 0.786303 0.223556 0.161211
H80   H     H_    0.439520 0.092802 0.943588 0.195259
H81   H     H_    0.554186 0.903387 0.056444 0.195362
H82   H     H_    0.017317 0.390423 0.944029 0.195800
H83   H     H_    0.017324 0.609580 0.055970 0.195911
H84   H     H_    0.560480 0.907198 0.943588 0.195259
H85   H     H_    0.445814 0.096613 0.056444 0.195362
H86   H     H_    0.982683 0.609577 0.944029 0.195800
H87   H     H_    0.982676 0.390420 0.055970 0.195911
H88   H     H_    0.890422 0.517317 0.444029 0.195804
H89   H     H_    0.445234 0.097970 0.017034 0.148016
H90   H     H_    0.109580 0.517324 0.555970 0.195908
H91   H     H_    0.596603 0.945798 0.443556 0.195256
H92   H     H_    0.407191 0.060469 0.556413 0.195373
H93   H     H_    0.109577 0.482683 0.444029 0.195804
H94   H     H_    0.890420 0.482675 0.555970 0.195908
H95   H     H_    0.403396 0.054202 0.443556 0.195256
H96   H     H_    0.592809 0.939531 0.556413 0.195373
I1    I     I_    0.412597 0.948700 0.829006 -0.263944
I2    I     I_    0.064015 0.419557 0.669346 -0.248347
I3    I     I_    0.451121 0.911305 0.328922 -0.264650
I4    I     I_    0.551281 0.087413 0.670994 -0.264275
I5    I     I_    0.064024 0.580448 0.330653 -0.248127
I6    I     I_    0.935985 0.580443 0.669346 -0.248347
I7    I     I_    0.548879 0.088695 0.328922 -0.264650
I8    I     I_    0.448719 0.912587 0.670994 -0.264275
I9    I     I_    0.415360 0.946695 0.888989 -0.212664
I10   I     I_    0.586483 0.050289 0.111057 -0.213045
I11   I     I_    0.910646 0.454371 0.889186 -0.214098
I12   I     I_    0.588707 0.048856 0.171078 -0.264972
I13   I     I_    0.910649 0.545616 0.110814 -0.214988
I14   I     I_    0.584640 0.053305 0.888989 -0.212663
I15   I     I_    0.413517 0.949711 0.111057 -0.213045
I16   I     I_    0.089354 0.545628 0.889186 -0.214098
I17   I     I_    0.089351 0.454384 0.110814 -0.214988
I18   I     I_    0.954371 0.410646 0.389186 -0.214103
I19   I     I_    0.045616 0.410649 0.610814 -0.214999
I20   I     I_    0.449690 0.913529 0.388943 -0.212490
I21   I     I_    0.553289 0.084650 0.611011 -0.213241
I22   I     I_    0.045628 0.589354 0.389186 -0.214103
I23   I     I_    0.919552 0.435976 0.830653 -0.248150
I24   I     I_    0.954384 0.589351 0.610814 -0.214998
I25   I     I_    0.550310 0.086471 0.388943 -0.212489
I26   I     I_    0.446711 0.915350 0.611011 -0.213241
I27   I     I_    0.919557 0.564015 0.169346 -0.248330
I28   I     I_    0.587403 0.051300 0.829006 -0.263944
I29   I     I_    0.411293 0.951143 0.171078 -0.264972
I30   I     I_    0.080448 0.564024 0.830653 -0.248150
I31   I     I_    0.080443 0.435985 0.169346 -0.248330
I32   I     I_    0.935976 0.419552 0.330653 -0.248127
N1    N     N_R   0.283688 0.747274 0.764503 -0.164222
N2    N     N_R   0.284601 0.253681 0.763772 -0.166359
N3    N     N_R   0.746752 0.284193 0.235946 -0.165623
N4    N     N_R   0.252715 0.716357 0.764528 -0.164176
N5    N     N_R   0.284155 0.253218 0.235818 -0.165518
N6    N     N_R   0.715399 0.746319 0.763772 -0.166359
N7    N     N_R   0.253248 0.715807 0.235946 -0.165623
N8    N     N_R   0.747285 0.283643 0.764528 -0.164176
N9    N     N_R   0.783666 0.247263 0.264514 -0.164186
N10   N     N_R   0.215829 0.753226 0.735931 -0.165615
N11   N     N_R   0.753679 0.784600 0.263773 -0.166339
N12   N     N_R   0.715838 0.253219 0.235920 -0.165073
N13   N     N_R   0.246781 0.215844 0.735819 -0.165538
N14   N     N_R   0.216334 0.752736 0.264514 -0.164186
N15   N     N_R   0.784171 0.246774 0.735931 -0.165615
N16   N     N_R   0.246321 0.215400 0.263773 -0.166339
N17   N     N_R   0.753219 0.784156 0.735819 -0.165538
N18   N     N_R   0.215870 0.246817 0.735792 -0.165011
N19   N     N_R   0.784648 0.753687 0.263748 -0.166391
N20   N     N_R   0.246804 0.784139 0.735905 -0.165056
N21   N     N_R   0.752749 0.216290 0.264489 -0.164241
N22   N     N_R   0.784130 0.753183 0.735792 -0.165011
N23   N     N_R   0.253689 0.284650 0.763747 -0.166405
N24   N     N_R   0.215352 0.246313 0.263748 -0.166391
N25   N     N_R   0.753196 0.215860 0.735905 -0.165056
N26   N     N_R   0.247251 0.783710 0.264489 -0.164241
N27   N     N_R   0.500000 1.000000 0.906010 -0.330649
N28   N     N_R   0.500000 1.000000 0.094021 -0.330724
N29   N     N_R   1.000000 0.500000 0.906386 -0.330085
N30   N     N_R   0.000000 0.500000 0.093614 -0.330096
N31   N     N_R   1.000000 0.500000 0.406386 -0.330086
N32   N     N_R   1.000000 0.500000 0.593614 -0.330095
N33   N     N_R   0.500000 1.000000 0.405979 -0.330709
N34   N     N_R   0.746818 0.715871 0.235791 -0.164997
N35   N     N_R   0.500000 1.000000 0.593990 -0.330664
N36   N     N_R   0.716312 0.252726 0.764503 -0.164222
N37   N     N_R   0.284161 0.746781 0.235920 -0.165073
N38   N     N_R   0.746311 0.715350 0.763747 -0.166405
N39   N     N_R   0.253182 0.284129 0.235791 -0.164997
N40   N     N_R   0.715845 0.746782 0.235818 -0.165518
O1    O     O_3   0.500000 1.000000 0.750000 -0.492074
O2    O     O_R   0.463590 1.000000 0.299840 -0.618856
O3    O     O_R   1.000000 0.536410 0.700160 -0.616379
O4    O     O_R   0.000000 0.463590 0.299840 -0.616412
O5    O     O_R   0.963590 0.500000 0.200160 -0.616379
O6    O     O_R   0.036410 0.500000 0.799840 -0.616413
O7    O     O_R   0.500000 0.963590 0.200160 -0.618829
O8    O     O_R   0.500000 0.036410 0.799840 -0.618657
O9    O     O_R   0.036410 0.500000 0.200160 -0.616379
O10   O     O_R   0.963590 0.500000 0.799840 -0.616412
O11   O     O_R   0.500000 0.036410 0.200160 -0.618830
O12   O     O_3   0.500000 0.000000 0.250000 -0.492050
O13   O     O_R   0.500000 0.963590 0.799840 -0.618656
O14   O     O_R   0.587440 0.948860 0.737000 -0.641881
O15   O     O_R   0.412560 0.051140 0.263000 -0.641864
O16   O     O_R   0.051140 0.587440 0.737000 -0.642502
O17   O     O_R   0.948860 0.412560 0.263000 -0.633041
O18   O     O_R   0.412560 0.051140 0.737000 -0.641881
O19   O     O_R   0.587440 0.948860 0.263000 -0.641864
O20   O     O_R   0.948860 0.412560 0.737000 -0.642502
O21   O     O_R   0.051140 0.587440 0.263000 -0.633041
O22   O     O_R   0.412560 0.948860 0.263000 -0.636445
O23   O     O_3   1.000000 0.500000 0.750000 -0.492387
O24   O     O_R   0.587440 0.051140 0.737000 -0.636211
O25   O     O_R   0.948860 0.587440 0.263000 -0.642513
O26   O     O_R   0.051140 0.412560 0.737000 -0.632992
O27   O     O_R   0.587440 0.051140 0.263000 -0.636445
O28   O     O_R   0.412560 0.948860 0.737000 -0.636211
O29   O     O_R   0.051140 0.412560 0.263000 -0.642513
O30   O     O_R   0.948860 0.587440 0.737000 -0.632992
O31   O     O_R   0.087440 0.448860 0.237000 -0.632993
O32   O     O_R   0.912560 0.551140 0.763000 -0.642512
O33   O     O_R   0.551140 0.087440 0.237000 -0.636400
O34   O     O_3   1.000000 0.500000 0.250000 -0.492389
O35   O     O_R   0.448860 0.912560 0.763000 -0.636258
O36   O     O_R   0.912560 0.551140 0.237000 -0.632993
O37   O     O_R   0.087440 0.448860 0.763000 -0.642512
O38   O     O_R   0.448860 0.912560 0.237000 -0.636400
O39   O     O_R   0.551140 0.087440 0.763000 -0.636258
O40   O     O_R   0.912560 0.448860 0.763000 -0.633041
O41   O     O_R   0.087440 0.551140 0.237000 -0.642503
O42   O     O_R   0.448860 0.087440 0.763000 -0.641865
O43   O     O_R   0.551140 0.912560 0.237000 -0.641881
O44   O     O_R   0.087440 0.551140 0.763000 -0.633041
O45   O     O_R   0.463590 0.000000 0.700160 -0.618628
O46   O     O_R   0.912560 0.448860 0.237000 -0.642503
O47   O     O_R   0.551140 0.912560 0.763000 -0.641865
O48   O     O_R   0.448860 0.087440 0.237000 -0.641881
O49   O     O_2   0.458136 0.064980 0.905676 -0.529683
O50   O     O_2   0.538167 0.932781 0.094355 -0.529461
O51   O     O_2   0.017289 0.424548 0.906117 -0.528258
O52   O     O_2   0.017294 0.575455 0.093883 -0.528030
O53   O     O_2   0.541864 0.935020 0.905676 -0.529683
O54   O     O_2   0.461833 0.067218 0.094355 -0.529461
O55   O     O_2   0.982711 0.575452 0.906117 -0.528258
O56   O     O_R   0.536410 1.000000 0.299840 -0.618857
O57   O     O_2   0.982706 0.424545 0.093883 -0.528030
O58   O     O_2   0.924547 0.517289 0.406117 -0.528250
O59   O     O_2   0.075455 0.517294 0.593883 -0.528034
O60   O     O_2   0.567212 0.961822 0.405645 -0.529665
O61   O     O_2   0.435015 0.041856 0.594324 -0.529468
O62   O     O_2   0.075452 0.482711 0.406117 -0.528250
O63   O     O_2   0.924545 0.482706 0.593883 -0.528034
O64   O     O_2   0.432788 0.038178 0.405645 -0.529665
O65   O     O_2   0.564985 0.958144 0.594324 -0.529468
O66   O     O_R   1.000000 0.463590 0.700160 -0.616379
O67   O     O_R   1.000000 0.536410 0.299840 -0.616412
O68   O     O_R   0.536410 0.000000 0.700160 -0.618628
Zn1   Zn    Zn3+2 0.500000 0.948070 0.768800 1.012952
Zn2   Zn    Zn3+2 1.000000 0.551930 0.731200 1.010065
Zn3   Zn    Zn3+2 0.551930 0.000000 0.268800 1.013153
Zn4   Zn    Zn3+2 0.448070 1.000000 0.731200 1.013003
Zn5   Zn    Zn3+2 1.000000 0.551930 0.268800 1.010005
Zn6   Zn    Zn3+2 1.000000 0.448070 0.731200 1.010065
Zn7   Zn    Zn3+2 0.448070 0.000000 0.268800 1.013153
Zn8   Zn    Zn3+2 0.551930 1.000000 0.731200 1.013003
Zn9   Zn    Zn3+2 0.500000 0.051930 0.231200 1.013202
Zn10  Zn    Zn3+2 0.051930 0.500000 0.768800 1.010002
Zn11  Zn    Zn3+2 0.948070 0.500000 0.231200 1.010067
Zn12  Zn    Zn3+2 0.500000 0.051930 0.768800 1.012952
Zn13  Zn    Zn3+2 0.500000 0.948070 0.231200 1.013202
Zn14  Zn    Zn3+2 0.948070 0.500000 0.768800 1.010002
Zn15  Zn    Zn3+2 0.051930 0.500000 0.231200 1.010066
Zn16  Zn    Zn3+2 1.000000 0.448070 0.268800 1.010005

loop_
_geom_bond_atom_site_label_1
_geom_bond_atom_site_label_2
_ccdc_geom_bond_type
C47   C136  A    
N7    N37   A    
C78   C115  A    
C51   H17   S    
C21   C274  A    
C182  O63   S    
O28   Zn4   S    
C197  I26   S    
C112  O2    A    
C237  O6    A    
C89   H55   S    
C79   C194  A    
C91   C127  A    
N2    N23   A    
C195  I24   S    
C180  N35   A    
C63   C98   A    
C75   C140  A    
C127  C150  S    
C135  C199  A    
C160  N23   A    
C100  C130  A    
C157  C260  A    
C231  C249  A    
O41   Zn15  S    
C81   C117  A    
C29   O46   A    
C208  C217  A    
C273  C276  A    
C193  C201  A    
C83   C119  A    
C57   C254  A    
O24   Zn8   S    
C199  I19   S    
C172  C221  A    
C22   H6    S    
O30   Zn2   S    
C22   C234  A    
O10   Zn14  S    
C90   C195  A    
C80   C116  A    
C29   O17   A    
C68   C193  A    
N14   N26   A    
C70   H36   S    
O68   Zn8   S    
N11   N19   A    
C184  O65   S    
C184  N35   A    
C51   C140  A    
C54   C143  A    
C247  H93   S    
O20   Zn6   S    
C206  N33   S    
C106  C118  A    
O45   Zn4   S    
C216  C233  A    
C220  C238  A    
C36   O39   A    
C173  C222  A    
C123  C153  S    
O12   Zn3   S    
C72   C132  A    
C20   C241  A    
C95   H61   S    
O1    Zn4   S    
C157  I4    S    
O40   Zn14  S    
C237  C254  S    
O3    Zn2   S    
C162  N20   A    
C77   C138  A    
C66   C149  A    
C17   C269  A    
C73   C108  A    
C226  O5    A    
C6    C272  A    
C31   O19   A    
C167  N27   A    
C211  C220  A    
C158  N5    A    
C204  C257  S    
C37   O25   A    
C27   C145  S    
C124  C198  A    
C113  I8    S    
C159  N19   A    
C185  C270  A    
C212  C225  A    
C72   H38   S    
C249  H94   S    
C13   I30   S    
C104  C129  A    
C183  N33   A    
C69   C147  A    
C175  O57   S    
O34   Zn15  S    
N8    N36   A    
C155  N14   A    
C54   H20   S    
C156  N17   A    
C71   C136  A    
C7    C210  A    
C48   H14   S    
C22   C275  A    
O35   Zn1   S    
O12   Zn7   S    
C114  H79   S    
C213  C278  A    
C66   H32   S    
C3    C268  A    
C248  C253  S    
O1    Zn8   S    
C45   C81   A    
C196  I25   S    
C62   C144  A    
C167  O49   S    
C70   C105  A    
C129  C156  S    
C19   H3    S    
C226  O9    A    
O19   Zn3   S    
C83   H49   S    
C1    O68   A    
C203  N31   S    
C25   H8    S    
C261  C266  A    
C165  N26   A    
C109  C121  A    
C34   O38   A    
O13   Zn1   S    
C223  C241  A    
C163  N24   A    
C174  N29   A    
C35   C252  A    
C49   H15   S    
C38   C134  S    
N34   N40   A    
C150  N10   A    
O1    Zn1   S    
O6    Zn10  S    
C4    C209  A    
C60   C95   A    
C205  N32   S    
C179  C191  A    
C71   C106  A    
C70   C134  A    
O47   Zn1   S    
C7    C277  A    
C40   O28   A    
C99   H65   S    
C13   C187  A    
C270  I28   S    
C161  N21   A    
C199  C205  A    
C46   C191  A    
C252  C270  A    
C2    C186  A    
O27   Zn3   S    
C61   C96   A    
C67   C103  A    
C179  C186  A    
C76   C137  A    
C30   O42   A    
C94   C130  A    
C68   I27   S    
C221  C239  A    
C194  I22   S    
C49   C84   A    
C16   H78   S    
C218  C235  A    
C53   H19   S    
C164  N38   A    
C265  C278  A    
C262  C279  A    
C263  C280  A    
C267  C280  A    
C161  N12   A    
N9    N21   A    
C111  C119  A    
C53   C142  A    
C52   H18   S    
C56   C145  A    
C41   C140  S    
C112  C258  S    
C64   C99   A    
C12   C244  A    
C18   H2    S    
C67   C145  A    
N17   N22   A    
C82   H48   S    
C5    C275  A    
C113  C260  A    
C168  N27   S    
C6    C276  A    
C36   C137  S    
C46   C253  A    
C213  C231  A    
C101  C196  A    
C1    C260  S    
O12   Zn9   S    
C146  C200  A    
C73   H39   S    
C74   H40   S    
C61   H27   S    
C27   O15   A    
C77   H43   S    
C180  C229  A    
C39   O33   A    
C261  C278  A    
C100  H66   S    
C179  N28   S    
C116  C161  S    
C65   H31   S    
C227  C244  A    
C23   C238  A    
C98   H64   S    
C58   C147  A    
C6    C211  A    
C155  N7    A    
C34   C138  S    
C41   O29   A    
C210  C219  A    
C190  N29   S    
C31   C141  S    
C176  N31   A    
C17   C240  A    
C30   O18   A    
C88   C125  A    
O67   Zn5   S    
C62   C97   A    
C187  I16   S    
C171  N30   A    
C15   C246  A    
C181  C230  A    
C79   C256  A    
O17   Zn16  S    
C9    C262  A    
O44   Zn10  S    
C216  C229  A    
C45   H11   S    
C96   C126  A    
C11   C264  A    
C103  H69   S    
N1    N4    A    
C85   C121  A    
C201  N30   S    
O33   Zn9   S    
C108  H74   S    
O9    Zn15  S    
C63   H29   S    
C245  H91   S    
C241  H86   S    
C204  O3    A    
O12   Zn13  S    
C202  C207  A    
C251  H96   S    
C32   O20   A    
C166  N36   A    
C146  C258  A    
C87   H53   S    
O66   Zn6   S    
C59   H25   S    
C238  H83   S    
C170  C219  A    
C4    C269  A    
C248  O11   A    
C226  C255  S    
C75   C110  A    
C105  H71   S    
C178  N33   A    
C26   O47   A    
C131  C154  S    
C174  C223  A    
C171  C220  A    
C94   H60   S    
C14   H56   S    
N3    N12   A    
C52   C141  A    
C48   C83   A    
C80   H46   S    
C124  I32   S    
C150  N4    A    
C71   H37   S    
C87   C123  A    
C68   C255  A    
C26   O14   A    
C264  C267  A    
C13   C254  A    
C75   H41   S    
C27   O48   A    
C169  C218  A    
C181  N31   A    
C47   H13   S    
C57   I23   S    
O34   Zn5   S    
C3    C264  A    
C191  I10   S    
C84   H50   S    
O1    Zn12  S    
C33   O21   A    
C8    C261  A    
C167  C217  A    
C58   H24   S    
C230  C247  A    
C250  H95   S    
C177  O59   S    
C81   H47   S    
C271  C274  A    
C154  N8    A    
C209  C222  A    
O23   Zn14  S    
C69   H35   S    
C102  H68   S    
C214  C232  A    
C262  C265  A    
C166  N25   A    
C16   C245  A    
C43   C78   A    
C41   O31   A    
C175  N30   A    
C172  N27   A    
C58   C93   A    
C152  N2    A    
C15   C267  A    
C185  I14   S    
C170  N29   A    
C28   O16   A    
C82   C118  A    
C29   C143  S    
O21   Zn5   S    
C10   C263  A    
C97   H63   S    
C112  O56   A    
C20   C273  A    
C187  C190  A    
C55   C91   A    
O11   Zn9   S    
C50   C85   A    
C61   C143  A    
C25   C236  A    
C56   H22   S    
O14   Zn8   S    
C86   C122  A    
C180  O61   S    
C76   H42   S    
C55   C144  A    
C59   C94   A    
O5    Zn11  S    
C188  I17   S    
O4    Zn16  S    
C97   C127  A    
C28   C144  S    
O56   Zn3   S    
C40   O35   A    
C156  N6    A    
C109  H75   S    
C35   C189  A    
C78   H44   S    
C117  C160  S    
C95   C131  A    
O23   Zn2   S    
C105  C117  A    
C118  C159  S    
O34   Zn16  S    
C172  O53   S    
C93   C129  A    
C51   C86   A    
C246  H92   S    
C120  C165  S    
C198  I18   S    
C89   C126  A    
C52   C87   A    
C62   H28   S    
C263  C268  A    
C111  H77   S    
C135  C257  A    
C11   C250  A    
C181  O62   S    
C44   C80   A    
C178  O60   S    
C102  C131  A    
C162  N1    A    
C10   H23   S    
C160  N18   A    
C50   C139  A    
C106  H72   S    
C168  C189  A    
C153  N40   A    
O48   Zn9   S    
C93   H59   S    
C12   H45   S    
N5    N39   A    
C213  C227  A    
C33   C148  S    
C86   H52   S    
O34   Zn11  S    
C177  C227  A    
C23   C276  A    
C38   O26   A    
C146  I3    S    
C84   C120  A    
C101  C258  A    
C152  N13   A    
C63   C141  A    
C37   C136  S    
C17   H89   S    
C65   C148  A    
C57   C192  A    
O22   Zn7   S    
C159  N34   A    
O7    Zn13  S    
C28   O44   A    
C176  O58   S    
C243  H88   S    
C266  C279  A    
C197  C207  A    
O23   Zn6   S    
C77   C114  A    
C2    C253  A    
C200  I20   S    
C233  C251  A    
C39   C133  S    
C215  O67   A    
N16   N24   A    
C190  C192  A    
C210  C223  A    
C204  O66   A    
C193  I13   S    
O2    Zn7   S    
C65   C100  A    
C151  N9    A    
C217  C234  A    
C9    H12   S    
O42   Zn12  S    
C19   C272  A    
C151  N3    A    
C225  C243  A    
C11   H34   S    
C202  I21   S    
C169  N28   A    
C30   C142  S    
C24   C188  A    
C4    C274  A    
C108  C116  A    
O31   Zn15  S    
C110  C122  A    
C5    C208  A    
C224  C242  A    
C21   C235  A    
C64   C142  A    
C42   O32   A    
C211  C224  A    
C222  C240  A    
C237  O10   A    
O26   Zn6   S    
C235  H81   S    
C26   C147  S    
C9    C247  A    
C24   I31   S    
C60   H26   S    
C14   C243  A    
C212  C279  A    
C182  C231  A    
C248  O7    A    
N10   N20   A    
C240  H85   S    
C198  C203  A    
C20   H4    S    
C1    O45   A    
C90   C257  A    
C21   H5    S    
C114  C120  A    
C252  C259  S    
C88   H54   S    
C242  H87   S    
C23   H7    S    
C173  O54   S    
O15   Zn7   S    
C272  C277  A    
C66   C102  A    
C189  I9    S    
C124  C256  A    
C64   H30   S    
C74   C109  A    
C239  H84   S    
C90   I6    S    
C128  C158  S    
C99   C125  A    
C110  H76   S    
C3    C214  A    
C176  C225  A    
C45   C134  A    
C44   H10   S    
C48   C137  A    
C196  C206  A    
C209  C218  A    
C43   C132  A    
N6    N38   A    
C171  O52   S    
C154  N15   A    
C43   H9    S    
C188  C201  A    
C33   O41   A    
O29   Zn16  S    
C10   C251  A    
O37   Zn10  S    
C47   C82   A    
C12   C265  A    
C19   C242  A    
C32   C149  S    
C67   H33   S    
C215  O4    A    
C175  C224  A    
C130  C155  S    
C53   C88   A    
C177  N32   A    
C214  C228  A    
C169  O50   S    
C178  C228  A    
C192  I11   S    
C59   C148  A    
C40   C132  S    
C49   C138  A    
O39   Zn12  S    
C216  C280  A    
O32   Zn14  S    
C236  H82   S    
C92   C128  A    
C18   C271  A    
C101  I7    S    
O18   Zn4   S    
C98   C123  A    
C182  N32   A    
C8    C249  A    
C5    C271  A    
C269  C275  A    
C15   H67   S    
C259  O13   A    
C96   H62   S    
C54   C89   A    
C25   C277  A    
C55   H21   S    
C163  N39   A    
C228  C245  A    
C208  C221  A    
C42   O30   A    
C121  C164  S    
C122  C163  S    
C24   C255  A    
C32   O40   A    
C125  C152  S    
C186  I15   S    
C212  C230  A    
C126  C151  S    
C195  C205  A    
C72   C107  A    
C56   C92   A    
C259  O8    A    
C158  N16   A    
C103  C128  A    
C119  C166  S    
C107  C115  A    
C16   C268  A    
C153  N11   A    
C76   C111  A    
C229  C246  A    
C107  H73   S    
C39   O27   A    
N15   N25   A    
C73   C133  A    
O25   Zn5   S    
O38   Zn13  S    
C46   I12   S    
C232  C250  A    
C85   H51   S    
N13   N18   A    
C18   C239  A    
C69   C104  A    
C104  H70   S    
C44   C133  A    
O8    Zn12  S    
C200  C206  A    
C168  C185  A    
C42   C139  S    
C92   H58   S    
C219  C236  A    
C37   O36   A    
C7    C273  A    
O36   Zn11  S    
C165  N37   A    
C164  N22   A    
C74   C139  A    
C91   H57   S    
C115  C162  S    
C79   I5    S    
C8    H1    S    
C207  N35   S    
O43   Zn13  S    
C194  C203  A    
C215  C256  S    
C234  H80   S    
C174  O55   S    
C38   O37   A    
C60   C149  A    
O23   Zn10  S    
C50   H16   S    
O46   Zn11  S    
C244  H90   S    
C184  C233  A    
C135  I2    S    
C2    I29   S    
C170  O51   S    
C35   I1    S    
C183  O64   S    
C34   O22   A    
O16   Zn2   S    
C113  C197  A    
C157  C202  A    
C173  N28   A    
C31   O43   A    
C183  C232  A    
C36   O24   A    
C14   C266  A    
