data_mof_unit_13462.cif
_audit_creation_date              2013-03-05T15:59:44-0500
_audit_creation_method            fapswitch 2.2
_symmetry_space_group_name_H-M    P1
_symmetry_Int_Tables_number       1
_space_group_crystal_system       triclinic
_cell_length_a                    18.317145
_cell_length_b                    25.892312
_cell_length_c                    18.344487
_cell_angle_alpha                 90.090006
_cell_angle_beta                  89.666515
_cell_angle_gamma                 90.048945
_cell_volume                      8700.13795033

loop_
_atom_site_label
_atom_site_type_symbol
_atom_site_description
_atom_site_fract_x
_atom_site_fract_y
_atom_site_fract_z
_atom_type_partial_charge
Zn1   Zn    Zn3+2 0.500000 0.706650 0.586810 0.981483
Zn2   Zn    Zn3+2 0.500000 0.293350 0.413190 1.033849
Zn3   Zn    Zn3+2 0.500000 0.706650 0.413190 1.033552
Zn4   Zn    Zn3+2 0.500000 0.293350 0.586810 1.038107
Zn5   Zn    Zn3+2 0.000000 0.206650 0.086810 1.015072
Zn6   Zn    Zn3+2 0.000000 0.793350 0.913190 1.011430
Zn7   Zn    Zn3+2 0.000000 0.206650 0.913190 1.007890
Zn8   Zn    Zn3+2 1.000000 0.793350 0.086810 0.996925
Zn9   Zn    Zn3+2 0.586710 0.793420 0.500000 0.957964
Zn10  Zn    Zn3+2 0.413290 0.206580 0.500000 1.006240
Zn11  Zn    Zn3+2 0.413290 0.793420 0.500000 1.006137
Zn12  Zn    Zn3+2 0.586710 0.206580 0.500000 0.958030
Zn13  Zn    Zn3+2 0.086710 0.293420 0.000000 0.965480
Zn14  Zn    Zn3+2 0.913290 0.706580 0.000000 1.021404
Zn15  Zn    Zn3+2 0.913290 0.293420 0.000000 1.029615
Zn16  Zn    Zn3+2 0.086710 0.706580 0.000000 0.967248
O1    O     O_3   0.500000 0.750040 0.500000 -0.530818
O2    O     O_3   0.500000 0.249960 0.500000 -0.534924
O3    O     O_3   1.000000 0.250040 0.000000 -0.527116
O4    O     O_3   1.000000 0.749960 0.000000 -0.524280
O5    O     O_R   0.585420 0.719700 0.353880 -0.615684
O6    O     O_R   0.414580 0.280300 0.646120 -0.567681
O7    O     O_R   0.414580 0.719700 0.646120 -0.607560
O8    O     O_R   0.585420 0.280300 0.353880 -0.590913
O9    O     O_R   0.585420 0.280300 0.646120 -0.633082
O10   O     O_R   0.414580 0.719700 0.353880 -0.590076
O11   O     O_R   0.414580 0.280300 0.353880 -0.609466
O12   O     O_R   0.585420 0.719700 0.646120 -0.638950
O13   O     O_R   0.085420 0.219700 0.853880 -0.617218
O14   O     O_R   0.914580 0.780300 0.146120 -0.652927
O15   O     O_R   0.914580 0.219700 0.146120 -0.639598
O16   O     O_R   0.085420 0.780300 0.853880 -0.615979
O17   O     O_R   0.085420 0.780300 0.146120 -0.610456
O18   O     O_R   0.914580 0.219700 0.853880 -0.637399
O19   O     O_R   0.914580 0.780300 0.853880 -0.629629
O20   O     O_R   0.085420 0.219700 0.146120 -0.595903
O21   O     O_R   0.646120 0.780390 0.585510 -0.626336
O22   O     O_R   0.353880 0.219610 0.414490 -0.609243
O23   O     O_R   0.353880 0.780390 0.414490 -0.602504
O24   O     O_R   0.646120 0.219610 0.585510 -0.639558
O25   O     O_R   0.646120 0.219610 0.414490 -0.634097
O26   O     O_R   0.353880 0.780390 0.585510 -0.626242
O27   O     O_R   0.353880 0.219610 0.585510 -0.631895
O28   O     O_R   0.646120 0.780390 0.414490 -0.647780
O29   O     O_R   0.146120 0.280390 0.085510 -0.621232
O30   O     O_R   0.853880 0.719610 0.914490 -0.610459
O31   O     O_R   0.853880 0.280390 0.914490 -0.626058
O32   O     O_R   0.146120 0.719610 0.085510 -0.608642
O33   O     O_R   0.146120 0.719610 0.914490 -0.634164
O34   O     O_R   0.853880 0.280390 0.085510 -0.590628
O35   O     O_R   0.853880 0.719610 0.085510 -0.619884
O36   O     O_R   0.146120 0.280390 0.914490 -0.624609
O37   O     O_R   0.560660 0.865840 0.500000 -0.671094
O38   O     O_R   0.439340 0.134160 0.500000 -0.594201
O39   O     O_R   0.439340 0.865840 0.500000 -0.597886
O40   O     O_R   0.560660 0.134160 0.500000 -0.672062
O41   O     O_R   0.060660 0.365840 0.000000 -0.675398
O42   O     O_R   0.939340 0.634160 0.000000 -0.619604
O43   O     O_R   0.939340 0.365840 0.000000 -0.613757
O44   O     O_R   0.060660 0.634160 0.000000 -0.677310
O45   O     O_R   0.500000 0.634240 0.439310 -0.597089
O46   O     O_R   0.500000 0.365760 0.560690 -0.620229
O47   O     O_R   0.500000 0.634240 0.560690 -0.617336
O48   O     O_R   0.500000 0.365760 0.439310 -0.612255
O49   O     O_R   1.000000 0.134240 0.939310 -0.640841
O50   O     O_R   1.000000 0.865760 0.060690 -0.631008
O51   O     O_R   0.000000 0.134240 0.060690 -0.620028
O52   O     O_R   1.000000 0.865760 0.939310 -0.624980
C1    C     C_R   0.639817 0.750142 0.359826 0.944528
C2    C     C_R   0.359899 0.250018 0.639928 0.924230
C3    C     C_R   0.359944 0.749849 0.639848 0.922611
C4    C     C_R   0.639980 0.249832 0.360042 0.920674
C5    C     C_R   0.639929 0.249818 0.640265 0.944802
C6    C     C_R   0.360566 0.750963 0.359184 0.874857
C7    C     C_R   0.360979 0.248782 0.358777 0.876216
C8    C     C_R   0.639972 0.750273 0.640129 0.945896
C9    C     C_R   0.140035 0.250003 0.860062 0.899171
C10   C     C_R   0.860254 0.749747 0.140248 0.949193
C11   C     C_R   0.860049 0.250232 0.140024 0.911388
C12   C     C_R   0.139920 0.749904 0.859930 0.905235
C13   C     C_R   0.139574 0.749189 0.140678 0.904359
C14   C     C_R   0.860159 0.250173 0.859773 0.956206
C15   C     C_R   0.860002 0.749547 0.859803 0.946163
C16   C     C_R   0.139213 0.251049 0.141056 0.898447
C17   C     C_R   0.500257 0.890093 0.499343 0.937092
C18   C     C_R   0.500114 0.109908 0.499179 0.945592
C19   C     C_R   0.000108 0.390054 0.999723 0.950395
C20   C     C_R   0.000092 0.609921 0.999082 0.943658
C21   C     C_R   0.492276 0.609980 0.499609 0.831948
C22   C     C_R   0.501055 0.389967 0.499986 0.958651
C23   C     C_R   0.999054 0.110154 0.000179 0.994379
C24   C     C_R   0.000168 0.889994 0.999970 0.965414
C25   C     C_R   0.520574 0.545497 0.363994 0.427407
C26   C     C_R   0.377370 0.441145 0.571058 0.409865
C27   C     C_R   0.392811 0.546093 0.606055 0.334076
C28   C     C_R   0.591989 0.455251 0.405876 0.433953
C29   C     C_R   0.136404 0.052900 0.992107 0.366571
C30   C     C_R   0.868715 0.950046 0.962805 0.306153
C31   C     C_R   0.864354 0.050120 0.020744 0.310602
C32   C     C_R   0.133044 0.949355 0.036290 0.334032
C33   C     C_R   0.573845 0.523833 0.317619 0.065454
C34   C     C_R   0.329904 0.463746 0.621825 0.141548
C35   C     C_R   0.338390 0.515811 0.640687 0.098044
C36   C     C_R   0.612929 0.480086 0.340706 0.095664
C37   C     C_R   0.201800 0.027480 0.009470 0.126703
C38   C     C_R   0.801378 0.975285 0.971957 0.130312
C39   C     C_R   0.798717 0.024519 0.003645 0.120098
C40   C     C_R   0.200070 0.976128 0.033406 0.105677
C41   C     C_R   0.533403 0.475233 0.448417 -0.171368
C42   C     C_R   0.437960 0.524423 0.549437 -0.135314
C43   C     C_R   0.436582 0.469914 0.540867 -0.165589
C44   C     C_R   0.511144 0.525848 0.436195 -0.194043
C45   C     C_R   0.067134 0.973607 0.012986 -0.153636
C46   C     C_R   0.932987 0.026608 0.004037 -0.152245
C47   C     C_R   0.934435 0.973589 0.987858 -0.140698
C48   C     C_R   0.067854 0.027433 0.001056 -0.149882
C49   C     C_R   0.492992 0.445953 0.499261 -0.038712
C50   C     C_R   0.479571 0.553361 0.496262 -0.037037
C51   C     C_R   0.000777 0.946307 0.999790 -0.040359
C52   C     C_R   0.000020 0.054071 0.001230 -0.039620
C53   C     C_R   0.230381 0.742212 0.676145 0.408137
C54   C     C_R   0.770010 0.254928 0.323947 0.379763
C55   C     C_R   0.686285 0.779535 0.239786 0.375770
C56   C     C_R   0.324095 0.250034 0.769943 0.407869
C57   C     C_R   0.242592 0.217066 0.310780 0.375741
C58   C     C_R   0.767154 0.732816 0.678406 0.380343
C59   C     C_R   0.762622 0.275693 0.683782 0.411144
C60   C     C_R   0.236199 0.774821 0.316909 0.383122
C61   C     C_R   0.730130 0.246166 0.176305 0.378868
C62   C     C_R   0.269385 0.755997 0.823096 0.397532
C63   C     C_R   0.175689 0.249967 0.730000 0.386989
C64   C     C_R   0.813648 0.719908 0.260162 0.364565
C65   C     C_R   0.732038 0.763089 0.821955 0.350874
C66   C     C_R   0.258713 0.281598 0.187930 0.364555
C67   C     C_R   0.264579 0.726298 0.182283 0.366637
C68   C     C_R   0.737964 0.224012 0.816439 0.393950
C69   C     C_R   0.676344 0.244224 0.230446 0.421763
C70   C     C_R   0.323432 0.755149 0.769359 0.393118
C71   C     C_R   0.229614 0.249757 0.676034 0.411009
C72   C     C_R   0.758785 0.720005 0.313593 0.411493
C73   C     C_R   0.679134 0.766357 0.767291 0.412017
C74   C     C_R   0.315482 0.277467 0.237673 0.370038
C75   C     C_R   0.320240 0.730587 0.233352 0.370677
C76   C     C_R   0.683741 0.223625 0.762818 0.406689
C77   C     C_R   0.176208 0.742827 0.730008 0.392887
C78   C     C_R   0.823861 0.256097 0.269832 0.400811
C79   C     C_R   0.741109 0.779353 0.186349 0.410978
C80   C     C_R   0.270223 0.250138 0.823931 0.395311
C81   C     C_R   0.185423 0.221679 0.261523 0.385710
C82   C     C_R   0.820724 0.731329 0.732682 0.400914
C83   C     C_R   0.816699 0.275898 0.737485 0.390693
C84   C     C_R   0.180350 0.770141 0.266103 0.363031
C85   C     C_R   0.696227 0.249469 0.304118 -0.370176
C86   C     C_R   0.303783 0.749254 0.695816 -0.373399
C87   C     C_R   0.303785 0.249865 0.696039 -0.368678
C88   C     C_R   0.695789 0.750132 0.303627 -0.366848
C89   C     C_R   0.696411 0.750325 0.695863 -0.385550
C90   C     C_R   0.306256 0.247087 0.301094 -0.395994
C91   C     C_R   0.305335 0.752809 0.302076 -0.392810
C92   C     C_R   0.696077 0.249676 0.696412 -0.376780
C93   C     C_R   0.195829 0.749663 0.803572 -0.386588
C94   C     C_R   0.803945 0.250935 0.196152 -0.386735
C95   C     C_R   0.804260 0.749493 0.196473 -0.371951
C96   C     C_R   0.196047 0.250063 0.803961 -0.406671
C97   C     C_R   0.194524 0.252194 0.198192 -0.392453
C98   C     C_R   0.803651 0.748206 0.803826 -0.391400
C99   C     C_R   0.804121 0.250110 0.803698 -0.381905
C100  C     C_R   0.195197 0.747850 0.197410 -0.392800
C101  C     C_R   0.457891 0.973135 0.552014 0.398229
C102  C     C_R   0.547559 0.026984 0.452104 0.380351
C103  C     C_R   0.547930 0.972921 0.452542 0.394595
C104  C     C_R   0.457170 0.027073 0.551166 0.391061
C105  C     C_R   0.990434 0.473298 0.066014 0.398897
C106  C     C_R   0.013827 0.526608 0.933610 0.381039
C107  C     C_R   0.014146 0.472490 0.934392 0.372779
C108  C     C_R   0.990856 0.527370 0.065303 0.405269
C109  C     C_R   0.501222 0.053798 0.500595 -0.383069
C110  C     C_R   0.501812 0.946179 0.501333 -0.379851
C111  C     C_R   0.001159 0.553811 0.999112 -0.360258
C112  C     C_R   0.001209 0.446111 0.000184 -0.364475
N1    N     N_R   0.291977 0.538325 0.695823 0.253613
O53   O     O_R   0.279154 0.513783 0.756431 -0.364317
O54   O     O_R   0.265870 0.584648 0.687702 -0.415091
N2    N     N_R   0.673500 0.460710 0.298556 0.266427
O55   O     O_R   0.720811 0.492527 0.270276 -0.350429
O56   O     O_R   0.684346 0.411234 0.292120 -0.327120
N3    N     N_R   0.585478 0.545126 0.246120 0.269496
O57   O     O_R   0.593482 0.514820 0.189983 -0.292774
O58   O     O_R   0.583587 0.594856 0.236080 -0.318567
N4    N     N_R   0.271710 0.433520 0.652784 0.253681
O59   O     O_R   0.205062 0.450885 0.653009 -0.395024
O60   O     O_R   0.284876 0.387808 0.678941 -0.382679
N5    N     N_R   0.729477 0.049523 0.015357 0.248471
O61   O     O_R   0.714068 0.070923 0.077703 -0.409159
O62   O     O_R   0.680055 0.049062 0.964686 -0.340014
N6    N     N_R   0.265852 0.951429 0.058028 0.259708
O63   O     O_R   0.311334 0.976227 0.099633 -0.309181
O64   O     O_R   0.277411 0.902779 0.044545 -0.396917
N7    N     N_R   0.270127 0.054299 0.002068 0.260128
O65   O     O_R   0.324628 0.032871 0.967743 -0.346554
O66   O     O_R   0.277254 0.101000 0.027304 -0.377734
N8    N     N_R   0.735175 0.949519 0.951925 0.244559
O67   O     O_R   0.718466 0.944492 0.883483 -0.427802
O68   O     O_R   0.686231 0.939114 0.001450 -0.358916
O69   O     O_3   0.472494 0.580771 0.333760 -0.505582
C113  C     C_3   0.402183 0.558677 0.329715 -0.179620
H1    H     H_    0.376845 0.555184 0.384677 0.123745
H2    H     H_    0.403302 0.520410 0.301873 0.149336
H3    H     H_    0.366993 0.584612 0.297106 0.201646
O70   O     O_3   0.361176 0.391852 0.546624 -0.582018
C114  C     C_3   0.320978 0.395883 0.481417 -0.360863
H4    H     H_    0.350894 0.418288 0.438941 0.170550
H5    H     H_    0.266476 0.413412 0.491911 0.179240
H6    H     H_    0.312179 0.356517 0.459166 0.168253
O71   O     O_3   0.401543 0.596069 0.630428 -0.572392
C115  C     C_3   0.444694 0.594935 0.694256 -0.071686
H7    H     H_    0.498354 0.575934 0.684078 0.119759
H8    H     H_    0.416007 0.575546 0.740203 0.164373
H9    H     H_    0.455934 0.635138 0.711724 0.215289
O72   O     O_3   0.633057 0.414202 0.430571 -0.575715
C116  C     C_3   0.688789 0.434114 0.475393 -0.360415
H10   H     H_    0.666646 0.443561 0.530372 0.156972
H11   H     H_    0.716527 0.468588 0.451537 0.174429
H12   H     H_    0.731469 0.404317 0.481234 0.176099
O73   O     O_3   0.140869 0.101725 0.962000 -0.602036
C117  C     C_3   0.150906 0.096117 0.885967 -0.244064
H13   H     H_    0.103117 0.076771 0.860467 0.170201
H14   H     H_    0.201876 0.074657 0.872592 0.165735
H15   H     H_    0.156330 0.134877 0.861279 0.187038
O74   O     O_3   0.869354 0.903687 0.925591 -0.621195
C118  C     C_3   0.885665 0.914098 0.851571 -0.199114
H16   H     H_    0.941797 0.929950 0.844976 0.166267
H17   H     H_    0.845752 0.941192 0.826937 0.171774
H18   H     H_    0.882860 0.877496 0.820319 0.193353
O75   O     O_3   0.860365 0.097113 0.056354 -0.625610
C119  C     C_3   0.868553 0.088109 0.131926 -0.186627
H19   H     H_    0.924596 0.074570 0.144833 0.166208
H20   H     H_    0.828259 0.059567 0.153110 0.170306
H21   H     H_    0.859129 0.124853 0.161577 0.185175
O76   O     O_3   0.131967 0.901395 0.069183 -0.597166
C120  C     C_3   0.125221 0.908939 0.145331 -0.118334
H22   H     H_    0.071855 0.926975 0.159542 0.144052
H23   H     H_    0.170651 0.932611 0.167655 0.165197
H24   H     H_    0.127783 0.871007 0.172820 0.220896
O77   O     O_3   0.210730 0.735427 0.604043 -0.594905
C121  C     C_3   0.218569 0.682732 0.585732 -0.232515
H25   H     H_    0.184888 0.657583 0.621525 0.198096
H26   H     H_    0.276676 0.670440 0.587194 0.182503
H27   H     H_    0.198843 0.676682 0.529423 0.150219
O78   O     O_3   0.790942 0.256837 0.396321 -0.552046
C122  C     C_3   0.781448 0.307519 0.423109 -0.145781
H28   H     H_    0.814149 0.311822 0.473406 0.213492
H29   H     H_    0.723453 0.314485 0.437878 0.157285
H30   H     H_    0.800633 0.337669 0.384300 0.143400
O79   O     O_3   0.621735 0.805548 0.226005 -0.585662
C123  C     C_3   0.617944 0.851098 0.268423 -0.217585
H31   H     H_    0.672267 0.867129 0.283903 0.122836
H32   H     H_    0.584618 0.844128 0.318134 0.169377
H33   H     H_    0.589589 0.881199 0.236292 0.220585
O80   O     O_3   0.396672 0.251721 0.790594 -0.526750
C124  C     C_3   0.426290 0.201406 0.787587 -0.178051
H34   H     H_    0.442212 0.191181 0.730890 0.114280
H35   H     H_    0.388838 0.171425 0.809954 0.111459
H36   H     H_    0.476336 0.200660 0.821224 0.244005
O81   O     O_3   0.239794 0.178399 0.363059 -0.547144
C125  C     C_3   0.199221 0.194839 0.424540 -0.057179
H37   H     H_    0.197999 0.237540 0.431695 0.083291
H38   H     H_    0.224651 0.178376 0.474078 0.217712
H39   H     H_    0.142906 0.179236 0.421737 0.169796
O82   O     O_3   0.785759 0.720423 0.607245 -0.532082
C126  C     C_3   0.767998 0.668255 0.593926 -0.219963
H40   H     H_    0.781331 0.659308 0.536286 0.207555
H41   H     H_    0.708811 0.660454 0.602045 0.116057
H42   H     H_    0.800850 0.641870 0.628216 0.151803
O83   O     O_3   0.776510 0.300395 0.618388 -0.561107
C127  C     C_3   0.737666 0.347529 0.615939 -0.343839
H43   H     H_    0.716218 0.361414 0.669615 0.150633
H44   H     H_    0.691362 0.343660 0.577581 0.173638
H45   H     H_    0.775020 0.377860 0.595064 0.175532
O84   O     O_3   0.225008 0.805529 0.377873 -0.548889
C128  C     C_3   0.192073 0.776408 0.434046 -0.073768
H46   H     H_    0.210860 0.792191 0.486903 0.234734
H47   H     H_    0.206731 0.734657 0.432590 0.079047
H48   H     H_    0.131966 0.781211 0.432613 0.172556
O85   O     O_3   0.709436 0.246306 0.103852 -0.546032
C129  C     C_3   0.711893 0.195394 0.076712 -0.098384
H49   H     H_    0.769137 0.182110 0.069743 0.153357
H50   H     H_    0.685670 0.194842 0.022475 0.237779
H51   H     H_    0.681009 0.167974 0.111681 0.170722
O86   O     O_3   0.289734 0.762732 0.894922 -0.595126
C130  C     C_3   0.280428 0.815098 0.914520 -0.215134
H52   H     H_    0.223408 0.822210 0.932792 0.166608
H53   H     H_    0.295204 0.842599 0.870172 0.143532
H54   H     H_    0.317020 0.823638 0.960891 0.221644
O87   O     O_3   0.103127 0.249071 0.708977 -0.542591
C131  C     C_3   0.071167 0.298239 0.719915 -0.177778
H55   H     H_    0.110985 0.330834 0.721746 0.112801
H56   H     H_    0.038394 0.298234 0.770973 0.167195
H57   H     H_    0.033403 0.305949 0.674171 0.215375
O88   O     O_3   0.878046 0.693663 0.273896 -0.602981
C132  C     C_3   0.883906 0.649654 0.228485 -0.215656
H58   H     H_    0.831184 0.636293 0.204711 0.174341
H59   H     H_    0.905789 0.617303 0.261317 0.200274
H60   H     H_    0.923619 0.657404 0.183904 0.165242
O89   O     O_3   0.712539 0.770594 0.894191 -0.560314
C133  C     C_3   0.718407 0.823383 0.911785 -0.065221
H61   H     H_    0.666088 0.843274 0.900582 0.215103
H62   H     H_    0.764103 0.843199 0.882969 0.147865
H63   H     H_    0.728800 0.826796 0.970989 0.215539
O90   O     O_3   0.262882 0.319063 0.134051 -0.568926
C134  C     C_3   0.301496 0.300134 0.072695 -0.066633
H64   H     H_    0.275650 0.315774 0.022849 0.218332
H65   H     H_    0.301166 0.257205 0.067713 0.107191
H66   H     H_    0.358386 0.314788 0.073471 0.174948
O91   O     O_3   0.276216 0.696119 0.120917 -0.561518
C135  C     C_3   0.306498 0.726364 0.064475 -0.072115
H67   H     H_    0.286888 0.767129 0.064621 0.119957
H68   H     H_    0.290273 0.708806 0.011895 0.234025
H69   H     H_    0.366916 0.725093 0.066582 0.172099
O92   O     O_3   0.724961 0.200626 0.882944 -0.574072
C136  C     C_3   0.752808 0.149809 0.880970 -0.234163
H70   H     H_    0.806005 0.146324 0.851583 0.130851
H71   H     H_    0.712272 0.123253 0.856345 0.209597
H72   H     H_    0.762448 0.137088 0.937695 0.210053
O93   O     O_3   0.604357 0.237222 0.209945 -0.573741
C137  C     C_3   0.581739 0.186361 0.227287 -0.302784
H73   H     H_    0.626880 0.157453 0.227712 0.154771
H74   H     H_    0.541856 0.173492 0.185754 0.205937
H75   H     H_    0.553458 0.185917 0.280947 0.152664
O94   O     O_3   0.395637 0.759755 0.790094 -0.531117
C138  C     C_3   0.420617 0.810457 0.776187 -0.189764
H76   H     H_    0.376736 0.839560 0.766910 0.090060
H77   H     H_    0.457365 0.809942 0.727949 0.150910
H78   H     H_    0.452329 0.823680 0.823988 0.209390
O95   O     O_3   0.208820 0.248522 0.603604 -0.580790
C139  C     C_3   0.208796 0.299450 0.576360 -0.208626
H79   H     H_    0.175968 0.326164 0.610804 0.189577
H80   H     H_    0.183748 0.299512 0.521585 0.142415
H81   H     H_    0.265325 0.314215 0.570612 0.198822
O96   O     O_3   0.768325 0.692308 0.377318 -0.568088
C140  C     C_3   0.739974 0.642082 0.367288 -0.239026
H82   H     H_    0.771154 0.620477 0.325066 0.192734
H83   H     H_    0.681046 0.642740 0.353064 0.180564
H84   H     H_    0.745118 0.620467 0.419117 0.152534
O97   O     O_3   0.611118 0.786391 0.784287 -0.545861
C141  C     C_3   0.608210 0.838221 0.759915 -0.329680
H85   H     H_    0.660933 0.859409 0.765890 0.164015
H86   H     H_    0.567464 0.859463 0.793221 0.189880
H87   H     H_    0.590258 0.839812 0.702287 0.141899
O98   O     O_3   0.378787 0.305241 0.224412 -0.555606
C142  C     C_3   0.431695 0.271564 0.194204 -0.111548
H88   H     H_    0.411260 0.250276 0.145779 0.100690
H89   H     H_    0.450669 0.243016 0.234835 0.161535
H90   H     H_    0.479542 0.294784 0.176638 0.233708
O99   O     O_3   0.388640 0.711359 0.215510 -0.539318
C143  C     C_3   0.435098 0.753009 0.196561 -0.104628
H91   H     H_    0.453562 0.774413 0.245585 0.154699
H92   H     H_    0.409058 0.780607 0.158157 0.110234
H93   H     H_    0.484448 0.737227 0.169214 0.220685
O100  O     O_3   0.617548 0.200061 0.778183 -0.561457
C144  C     C_3   0.612967 0.152431 0.740733 -0.325858
H94   H     H_    0.666637 0.132730 0.733307 0.148046
H95   H     H_    0.586735 0.157991 0.687009 0.148186
H96   H     H_    0.577428 0.126061 0.772735 0.193135
O101  O     O_3   0.104141 0.737070 0.709331 -0.532098
C145  C     C_3   0.079512 0.686932 0.727395 -0.195340
H97   H     H_    0.045725 0.688762 0.777644 0.147917
H98   H     H_    0.123766 0.657902 0.735321 0.113008
H99   H     H_    0.044902 0.672669 0.682298 0.203700
O102  O     O_3   0.895939 0.262539 0.290324 -0.578498
C146  C     C_3   0.918517 0.313689 0.274949 -0.288205
H100  H     H_    0.960777 0.324974 0.315013 0.169709
H101  H     H_    0.873869 0.342819 0.278902 0.177635
H102  H     H_    0.943901 0.315633 0.219944 0.144877
O103  O     O_3   0.731876 0.806974 0.122544 -0.559131
C147  C     C_3   0.760958 0.857082 0.131972 -0.233634
H103  H     H_    0.813573 0.857547 0.162190 0.128745
H104  H     H_    0.720644 0.882359 0.159851 0.195121
H105  H     H_    0.772287 0.873874 0.077554 0.198793
O104  O     O_3   0.291501 0.251377 0.896233 -0.581862
C148  C     C_3   0.283694 0.201750 0.927403 -0.192517
H106  H     H_    0.328857 0.195779 0.966484 0.208667
H107  H     H_    0.286136 0.169321 0.887395 0.133512
H108  H     H_    0.231602 0.199511 0.958440 0.188255
O105  O     O_3   0.122018 0.194038 0.274861 -0.546846
C149  C     C_3   0.069488 0.227750 0.305688 -0.173022
H109  H     H_    0.051291 0.257169 0.265886 0.158886
H110  H     H_    0.089993 0.247975 0.354972 0.092924
H111  H     H_    0.021080 0.204712 0.322153 0.229024
O106  O     O_3   0.888667 0.711040 0.715871 -0.550158
C150  C     C_3   0.894165 0.660803 0.745909 -0.268803
H112  H     H_    0.928590 0.636779 0.709373 0.181304
H113  H     H_    0.840856 0.640263 0.751785 0.138753
H114  H     H_    0.921095 0.662520 0.799874 0.158449
O107  O     O_3   0.883473 0.298913 0.723099 -0.577226
C151  C     C_3   0.882317 0.350013 0.749975 -0.268034
H115  H     H_    0.838570 0.373293 0.724300 0.170774
H116  H     H_    0.935129 0.368732 0.736338 0.188894
H117  H     H_    0.876207 0.351012 0.810248 0.169128
O108  O     O_3   0.111837 0.789092 0.284093 -0.565633
C152  C     C_3   0.065937 0.747257 0.303571 -0.190026
H118  H     H_    0.091808 0.720862 0.343695 0.104734
H119  H     H_    0.049140 0.724595 0.255049 0.157144
H120  H     H_    0.015592 0.762941 0.329146 0.214553
O109  O     O_3   0.412502 0.947531 0.600685 -0.523284
C153  C     C_3   0.454504 0.926127 0.657586 -0.284698
H121  H     H_    0.419993 0.924215 0.707374 0.190479
H122  H     H_    0.503928 0.949229 0.671520 0.116711
H123  H     H_    0.470998 0.886084 0.643706 0.130503
O110  O     O_3   0.583622 0.053297 0.396844 -0.565102
C154  C     C_3   0.655945 0.065055 0.417916 -0.188851
H124  H     H_    0.666806 0.106333 0.405800 0.200449
H125  H     H_    0.694712 0.042217 0.384373 0.157944
H126  H     H_    0.667989 0.058637 0.476818 0.120016
O111  O     O_3   0.585484 0.946401 0.398432 -0.575538
C155  C     C_3   0.658836 0.938284 0.419405 -0.246996
H127  H     H_    0.668720 0.896293 0.425722 0.203374
H128  H     H_    0.675529 0.958040 0.470827 0.121629
H129  H     H_    0.695280 0.951621 0.374776 0.164330
O112  O     O_3   0.409066 0.053325 0.596415 -0.525291
C156  C     C_3   0.446242 0.068977 0.659863 -0.251817
H130  H     H_    0.408419 0.092350 0.693895 0.180245
H131  H     H_    0.494336 0.093614 0.647026 0.093981
H132  H     H_    0.463254 0.035194 0.692826 0.166980
O113  O     O_3   0.973024 0.448085 0.130467 -0.542598
C157  C     C_3   0.035052 0.422519 0.158394 -0.283421
H133  H     H_    0.033708 0.425552 0.218713 0.179647
H134  H     H_    0.088251 0.438947 0.139558 0.141485
H135  H     H_    0.032617 0.380821 0.144563 0.149106
O114  O     O_3   0.017430 0.551984 0.867227 -0.588136
C158  C     C_3   0.087427 0.573977 0.856912 -0.256945
H136  H     H_    0.104681 0.567210 0.799620 0.208257
H137  H     H_    0.130831 0.557782 0.892716 0.161170
H138  H     H_    0.084332 0.616363 0.864891 0.164435
O115  O     O_3   0.018570 0.445247 0.869504 -0.596628
C159  C     C_3   0.092668 0.436266 0.852305 -0.192577
H139  H     H_    0.095479 0.406610 0.808717 0.177319
H140  H     H_    0.124257 0.421347 0.899457 0.160703
H141  H     H_    0.118832 0.471757 0.830748 0.209373
O116  O     O_3   0.975879 0.554393 0.128790 -0.564803
C160  C     C_3   0.042286 0.564750 0.164582 -0.319013
H142  H     H_    0.030570 0.587994 0.214088 0.173650
H143  H     H_    0.080271 0.587655 0.129844 0.167022
H144  H     H_    0.069222 0.528567 0.182563 0.178612

loop_
_geom_bond_atom_site_label_1
_geom_bond_atom_site_label_2
_geom_bond_distance
_ccdc_geom_bond_type
C104  C109  1.408148 A    
C150  H114  1.109417 S    
Zn6   O16   1.930285 S    
Zn7   O13   1.930416 S    
C154  H125  1.107706 S    
O113  C157  1.414456 S    
C130  H52   1.110480 S    
C115  H9    1.108171 S    
Zn5   O51   1.934394 S    
O34   C11   1.275333 A    
C42   C50   1.444492 A    
C46   C47   1.404284 A    
C132  H58   1.116407 S    
C159  H139  1.108737 S    
C128  H48   1.108564 S    
C5    C92   1.459789 S    
C6    C91   1.461448 S    
O112  C156  1.410651 S    
C24   C51   1.458131 S    
C151  H116  1.109080 S    
C38   C39   1.400977 A    
C126  H40   1.108005 S    
Zn5   O20   1.940059 S    
C26   C43   1.425094 A    
Zn6   O19   1.940060 S    
O23   C6    1.273239 A    
C42   C43   1.420078 A    
O72   C116  1.411223 S    
C108  C111  1.406555 A    
C147  H104  1.109295 S    
C67   C100  1.414271 A    
C103  C110  1.409354 A    
C137  H73   1.115867 S    
C76   C92   1.410370 A    
N5    O61   1.299720 A    
C147  H105  1.107896 S    
C29   C37   1.405705 A    
C70   C86   1.406354 A    
N2    O55   1.301426 A    
N7    O65   1.301325 A    
O77   C121  1.411852 S    
C74   C90   1.414656 A    
O11   C7    1.278995 A    
C14   C99   1.457412 S    
N1    O54   1.300701 A    
C15   C98   1.460561 S    
N8    O67   1.300345 A    
C22   C49   1.457334 S    
O96   C140  1.412066 S    
C25   C33   1.407232 A    
C113  H1    1.111276 S    
C139  H79   1.110937 S    
C160  H144  1.110665 S    
C28   O72   1.381157 S    
C76   O100  1.384584 S    
C143  H93   1.109285 S    
C135  H67   1.115233 S    
N5    O62   1.301321 A    
Zn12  O24   1.943258 S    
C149  H110  1.111215 S    
O71   C115  1.416862 S    
O16   C12   1.277181 A    
C144  H95   1.108590 S    
O40   C18   1.274137 A    
O99   C143  1.415678 S    
Zn16  O4    1.946091 S    
C137  H75   1.109745 S    
C133  H61   1.108768 S    
C66   C97   1.412029 A    
C69   C85   1.408072 A    
C72   O96   1.384434 S    
C57   C81   1.392438 A    
C66   O90   1.387715 S    
C67   O91   1.384925 S    
C131  H55   1.115582 S    
Zn7   O3    1.947454 S    
C28   C36   1.409435 A    
C148  H106  1.108912 S    
C153  H122  1.115345 S    
C149  H111  1.108976 S    
O36   C9    1.275562 A    
C62   C70   1.393160 A    
C31   C39   1.409120 A    
O88   C132  1.414267 S    
C20   C111  1.452949 S    
C132  H60   1.109769 S    
O49   C23   1.279840 A    
C104  O112  1.384981 S    
C129  H51   1.110011 S    
C57   O81   1.388188 S    
C35   N1    1.440340 S    
C58   O82   1.384521 S    
Zn3   O10   1.941121 S    
C59   O83   1.382543 S    
N6    O63   1.301446 A    
O42   C20   1.278062 A    
O103  C147  1.412864 S    
C28   C41   1.420635 A    
C30   C38   1.405421 A    
O33   C12   1.278224 A    
Zn10  O22   1.944438 S    
C155  H127  1.108722 S    
C61   O85   1.384231 S    
O35   C10   1.276553 A    
C65   C98   1.405410 A    
Zn13  O29   1.944436 S    
C77   C93   1.409395 A    
C63   C96   1.409182 A    
Zn10  O2    1.944526 S    
C83   C99   1.404748 A    
O52   C24   1.276647 A    
Zn3   O1    1.947454 S    
C118  H18   1.108152 S    
C54   C78   1.395724 A    
O98   C142  1.414306 S    
O43   C19   1.277040 A    
C64   C95   1.409524 A    
C25   C44   1.429079 A    
O95   C139  1.410921 S    
C48   C52   1.421615 A    
C37   N7    1.436602 S    
C61   C69   1.395803 A    
C26   C34   1.398372 A    
C136  H70   1.114490 S    
O37   C17   1.272788 A    
O101  C145  1.413237 S    
O104  C148  1.414063 S    
C77   O101  1.383462 S    
C129  H50   1.107417 S    
C106  O114  1.385830 S    
C156  H130  1.109271 S    
C142  H88   1.111329 S    
C31   C46   1.428722 A    
C152  H118  1.113387 S    
O44   C20   1.274369 A    
C142  H90   1.108984 S    
C158  H137  1.116606 S    
O116  C160  1.410955 S    
C135  H69   1.108116 S    
C130  H53   1.114048 S    
C115  H8    1.110984 S    
C124  H34   1.110248 S    
C80   O104  1.384908 S    
Zn13  O41   1.935276 S    
C102  C103  1.399877 A    
C82   C98   1.409155 A    
C119  H19   1.111975 S    
C120  H22   1.113096 S    
Zn16  O44   1.934486 S    
C106  C107  1.401359 A    
C59   C83   1.401098 A    
C30   O74   1.379966 S    
C60   C84   1.392962 A    
C131  H57   1.109066 S    
N2    O56   1.301597 A    
C17   C110  1.452854 S    
C123  H32   1.109340 S    
C148  H108  1.109811 S    
C84   O108  1.385761 S    
C159  H141  1.108454 S    
C146  H102  1.109756 S    
C9    C96   1.448956 S    
C67   C75   1.392856 A    
C10   C95   1.450341 S    
O93   C137  1.416311 S    
C139  H81   1.107979 S    
O100  C144  1.413406 S    
C27   C35   1.415955 A    
C140  H83   1.112104 S    
C8    C89   1.458216 S    
C32   C40   1.410170 A    
C1    C88   1.449724 S    
C2    C87   1.450423 S    
C80   C96   1.409277 A    
C155  H129  1.108734 S    
C81   C97   1.414976 A    
O84   C128  1.410236 S    
O38   C18   1.278565 A    
C122  H30   1.112709 S    
O50   C24   1.279297 A    
C3    C86   1.449252 S    
O41   C19   1.274590 A    
O5    C1    1.274995 A    
C116  H10   1.111835 S    
C54   O78   1.384848 S    
Zn4   O6    1.930417 S    
C141  H86   1.107765 S    
C158  H136  1.109428 S    
C71   C87   1.409356 A    
C136  H72   1.107180 S    
O47   C21   1.292120 A    
C143  H92   1.113773 S    
C127  H44   1.109566 S    
C79   O103  1.383903 S    
C145  H99   1.107891 S    
O110  C154  1.414912 S    
C125  H38   1.109502 S    
C26   O70   1.384538 S    
C156  H132  1.110060 S    
C47   C51   1.424297 A    
C134  H65   1.115153 S    
C54   C85   1.408572 A    
O102  C146  1.415421 S    
C152  H120  1.109250 S    
O8    C4    1.279395 A    
C141  H87   1.109776 S    
C148  H107  1.115091 S    
C58   C89   1.408155 A    
C150  H113  1.116271 S    
C121  H25   1.109820 S    
C64   O88   1.386380 S    
O82   C126  1.410382 S    
C55   C79   1.399278 A    
O108  C152  1.415622 S    
C125  H39   1.108946 S    
C124  H36   1.108195 S    
C107  C112  1.406515 A    
C68   C99   1.405543 A    
C128  H47   1.114347 S    
Zn1   O1    1.950337 S    
C119  H21   1.108308 S    
C43   C49   1.423200 A    
C120  H24   1.105894 S    
Zn4   O2    1.947453 S    
C79   C95   1.405264 A    
C58   C82   1.402593 A    
C30   C47   1.426978 A    
C68   O92   1.382191 S    
C83   O107  1.384267 S    
O76   C120  1.414895 S    
C32   O76   1.381562 S    
O9    C5    1.277181 A    
C34   C35   1.400004 A    
C138  H78   1.108246 S    
C63   C71   1.394401 A    
C114  H6    1.109387 S    
O13   C9    1.276308 A    
C127  H43   1.117034 S    
C117  H13   1.113229 S    
C56   C87   1.407931 A    
C137  H74   1.109280 S    
O18   C14   1.275822 A    
C33   N3    1.438215 S    
C59   C92   1.410317 A    
O6    C2    1.276936 A    
C60   C91   1.413974 A    
C121  H27   1.107177 S    
C126  H42   1.109490 S    
C29   O73   1.382528 S    
O83   C127  1.414115 S    
O48   C22   1.276791 A    
C41   C49   1.409189 A    
C122  H28   1.108392 S    
Zn14  O30   1.944438 S    
N1    O53   1.301545 A    
Zn15  O3    1.946093 S    
C78   C94   1.408163 A    
N4    O59   1.301309 A    
N8    O68   1.300996 A    
C116  H12   1.104602 S    
C113  H2    1.114140 S    
C160  H143  1.112315 S    
C157  H133  1.109316 S    
C146  H100  1.109202 S    
Zn4   O46   1.935853 S    
O24   C5    1.276680 A    
Zn11  O26   1.933866 S    
C135  H68   1.107756 S    
O86   C130  1.412391 S    
C145  H97   1.108245 S    
C16   C97   1.462239 S    
C19   C112  1.451583 S    
C45   C51   1.427250 A    
C69   O93   1.384960 S    
Zn1   O12   1.940059 S    
C133  H62   1.112773 S    
O75   C119  1.415012 S    
Zn2   O11   1.940060 S    
C40   N6    1.439929 S    
C55   O79   1.385985 S    
C55   C88   1.409542 A    
C131  H56   1.109572 S    
O91   C135  1.409994 S    
C154  H126  1.116802 S    
C81   O105  1.384464 S    
C84   C100  1.410336 A    
C159  H140  1.113320 S    
Zn4   O9    1.941119 S    
C132  H59   1.109063 S    
Zn14  O42   1.935276 S    
C133  H63   1.107108 S    
Zn13  O3    1.944525 S    
C102  C109  1.408537 A    
Zn14  O4    1.944526 S    
C151  H115  1.110597 S    
C139  H80   1.107039 S    
C53   C86   1.405774 A    
O87   C131  1.415191 S    
O19   C15   1.281770 A    
O80   C124  1.412512 S    
C105  C112  1.409823 A    
O78   C122  1.411070 S    
O69   C113  1.411073 S    
C18   C109  1.453265 S    
C155  H128  1.116491 S    
O39   C17   1.279930 A    
C138  H76   1.116199 S    
O85   C129  1.409039 S    
O7    C3    1.275585 A    
Zn7   O49   1.935853 S    
Zn13  O36   1.933332 S    
C114  H4    1.113488 S    
C127  H45   1.108394 S    
O51   C23   1.272573 A    
O28   C1    1.277118 A    
C118  H17   1.112017 S    
Zn8   O4    1.947453 S    
Zn16  O33   1.933867 S    
C29   C48   1.426495 A    
C7    C90   1.462372 S    
N6    O64   1.300646 A    
C36   N2    1.438839 S    
O21   C8    1.275030 A    
C33   C36   1.407606 A    
Zn7   O18   1.941121 S    
Zn9   O37   1.935276 S    
C11   C94   1.450603 S    
O12   C8    1.278599 A    
Zn11  O39   1.934486 S    
O105  C149  1.414598 S    
O90   C134  1.413118 S    
Zn11  O1    1.946093 S    
N4    O60   1.301098 A    
C4    C85   1.449715 S    
C57   C90   1.411433 A    
Zn15  O43   1.934486 S    
C27   C42   1.437518 A    
C105  C108  1.400147 A    
O107  C151  1.411379 S    
C142  H89   1.108133 S    
C75   C91   1.410313 A    
O106  C150  1.417324 S    
Zn5   O3    1.950337 S    
C64   C72   1.399690 A    
Zn6   O4    1.950338 S    
C65   C73   1.401249 A    
Zn8   O14   1.930417 S    
C149  H109  1.108826 S    
N3    O57   1.301389 A    
C68   C76   1.401948 A    
O94   C138  1.412991 S    
O26   C3    1.278750 A    
C34   N4    1.436737 S    
C13   C100  1.461124 S    
C119  H20   1.112891 S    
C103  O111  1.385888 S    
O74   C118  1.414923 S    
C101  O109  1.385710 S    
O30   C15   1.273113 A    
C123  H33   1.109194 S    
C56   O80   1.385082 S    
O89   C133  1.408081 S    
C154  H124  1.109574 S    
N7    O66   1.300836 A    
C153  H121  1.108880 S    
C73   O97   1.383666 S    
C46   C52   1.419073 A    
C134  H64   1.109400 S    
Zn8   O50   1.935853 S    
Zn2   O2    1.950338 S    
C27   O71   1.377888 S    
C151  H117  1.110931 S    
Zn15  O31   1.943260 S    
C25   O69   1.387809 S    
Zn16  O32   1.943258 S    
C160  H142  1.108721 S    
C150  H112  1.108246 S    
C140  H82   1.110436 S    
O32   C13   1.273356 A    
C70   O94   1.383336 S    
Zn12  O25   1.933867 S    
C71   O95   1.384635 S    
C82   O106  1.384205 S    
C129  H49   1.110397 S    
C122  H29   1.109622 S    
C66   C74   1.391747 A    
Zn15  O34   1.933866 S    
C108  O116  1.383922 S    
O114  C158  1.414290 S    
C74   O98   1.384461 S    
Zn14  O35   1.933330 S    
C146  H101  1.114979 S    
C153  H123  1.109002 S    
O81   C125  1.412380 S    
C102  O110  1.386291 S    
C45   C48   1.411146 A    
C78   O102  1.384727 S    
Zn6   O52   1.934394 S    
C156  H131  1.111540 S    
Zn1   O47   1.934394 S    
C152  H119  1.110186 S    
O45   C21   1.279992 A    
C158  H138  1.108413 S    
O22   C7    1.277769 A    
Zn3   O45   1.935853 S    
C37   C40   1.401192 A    
C121  H26   1.111674 S    
C130  H54   1.107948 S    
C115  H7    1.114177 S    
Zn2   O48   1.934394 S    
C41   C44   1.391742 A    
C124  H35   1.112823 S    
C136  H71   1.109151 S    
C128  H46   1.108167 S    
C144  H96   1.109340 S    
C120  H23   1.112729 S    
C105  O113  1.386913 S    
C38   N8    1.433077 S    
C31   O75   1.381904 S    
O111  C155  1.415709 S    
C123  H31   1.115905 S    
C62   O86   1.382142 S    
Zn9   O21   1.944436 S    
O73   C117  1.413060 S    
C63   O87   1.386257 S    
Zn11  O23   1.943260 S    
C138  H77   1.108762 S    
C65   O89   1.383854 S    
Zn12  O40   1.934486 S    
O25   C4    1.275362 A    
C62   C93   1.405541 A    
Zn9   O1    1.944525 S    
C114  H5    1.112628 S    
C72   C88   1.406361 A    
Zn1   O7    1.930287 S    
O27   C2    1.275634 A    
C117  H14   1.112833 S    
Zn2   O8    1.930285 S    
C101  C104  1.396760 A    
C53   C77   1.396358 A    
Zn3   O5    1.930416 S    
O29   C16   1.277585 A    
O79   C123  1.413469 S    
C101  C110  1.410305 A    
C39   N5    1.439317 S    
C147  H103  1.114661 S    
C140  H84   1.108556 S    
C73   C89   1.408204 A    
C126  H41   1.111830 S    
Zn9   O28   1.933332 S    
C56   C80   1.393995 A    
Zn10  O27   1.933330 S    
O31   C14   1.276412 A    
C32   C45   1.429251 A    
C107  O115  1.384697 S    
O15   C11   1.279887 A    
C53   O77   1.383692 S    
C117  H15   1.105848 S    
C144  H94   1.115488 S    
O92   C136  1.411912 S    
C116  H11   1.115475 S    
C44   C50   1.430707 A    
C113  H3    1.109386 S    
C141  H85   1.116131 S    
C157  H134  1.116121 S    
O20   C16   1.279128 A    
O46   C22   1.278750 A    
C143  H91   1.109915 S    
O10   C6    1.282035 A    
C60   O84   1.385538 S    
C61   C94   1.407555 A    
O109  C153  1.414409 S    
Zn8   O17   1.941119 S    
Zn10  O38   1.935276 S    
C145  H98   1.116207 S    
C12   C93   1.450979 S    
N3    O58   1.301536 A    
C125  H37   1.113402 S    
O115  C159  1.411075 S    
O14   C10   1.275648 A    
C21   C50   1.485383 S    
O70   C114  1.412334 S    
C134  H66   1.108842 S    
Zn12  O2    1.946091 S    
C118  H16   1.112780 S    
C23   C52   1.452416 S    
O97   C141  1.416343 S    
O17   C13   1.281704 A    
C106  C111  1.410026 A    
C75   O99   1.385831 S    
Zn5   O15   1.930287 S    
C157  H135  1.109597 S    
