data_mof_unit_66749.cif
_audit_creation_date              2012-12-11T14:19:23-0500
_audit_creation_method            fapswitch 2.2
_symmetry_space_group_name_H-M    P1
_symmetry_Int_Tables_number       1
_space_group_crystal_system       triclinic
_cell_length_a                    8.191636
_cell_length_b                    12.65169
_cell_length_c                    15.043456
_cell_angle_alpha                 95.304463
_cell_angle_beta                  98.979504
_cell_angle_gamma                 97.693848
_cell_volume                      1515.83767184

loop_
_atom_site_label
_atom_site_type_symbol
_atom_type_description
_atom_site_fract_x
_atom_site_fract_y
_atom_site_fract_z
_atom_type_partial_charge
Ba1   Ba    Ba6+2 0.153570 0.551840 0.456200 1.629374
Ba2   Ba    Ba6+2 0.656590 0.448150 0.543720 1.656083
C1    C     C_3   0.311764 0.780739 0.109626 -0.348480
C2    C     C_R   0.727792 0.815504 0.466020 -0.272930
C3    C     C_R   0.692884 0.995307 0.432030 -0.092578
C4    C     C_3   0.874964 0.835269 0.241145 0.340962
C5    C     C_R   0.627864 0.886607 0.428646 -0.006710
C6    C     C_R   0.889000 0.851161 0.513811 0.055445
C7    C     C_R   0.955054 0.963443 0.521428 -0.051477
C8    C     C_R   0.855653 0.036600 0.478998 -0.036844
C9    C     C_R   0.921378 0.148931 0.486740 0.062468
C10   C     C_R   0.182170 0.113647 0.572770 -0.007477
C11   C     C_R   0.117670 0.004755 0.568648 -0.089587
C12   C     C_3   0.354099 0.763703 0.208594 0.363451
C13   C     C_R   0.234431 0.468017 0.767970 -0.216254
C14   C     C_R   0.134916 0.430666 0.828437 0.003834
C15   C     C_R   0.196730 0.446008 0.921691 -0.130279
C16   C     C_3   0.826261 0.925424 0.187073 -0.415605
C17   C     C_R   0.360828 0.500186 0.955809 0.023192
C18   C     C_R   0.452961 0.545206 0.892411 -0.132486
C19   C     C_R   0.389923 0.528857 0.799926 0.028415
C20   C     C_R   0.601146 0.561690 0.087337 -0.136917
C21   C     C_R   0.669092 0.573391 0.179017 0.014241
C22   C     C_R   0.414429 0.480549 0.212614 0.076535
C23   C     C_3   0.583227 0.778034 0.662840 0.319127
C24   C     C_R   0.344123 0.468021 0.120348 -0.102315
C25   C     C_R   0.434651 0.511169 0.055447 0.002802
C26   C     C_R   0.574105 0.536897 0.241823 -0.292745
C27   C     C_3   0.725884 0.312529 0.271266 0.403194
C28   C     C_3   0.668085 0.281037 0.169875 0.190647
C29   C     C_3   0.065719 0.681724 0.728789 0.312808
C30   C     C_3   0.074011 0.703147 0.830988 -0.391095
C31   C     C_3   0.229989 0.225662 0.346992 0.315279
C32   C     C_3   0.212489 0.104511 0.326374 -0.335556
C33   C     C_R   0.103082 0.034626 0.899244 -0.002610
C34   C     C_3   0.667789 0.893942 0.686661 0.049116
C35   C     C_R   0.188606 0.040062 0.988519 -0.000229
C36   C     C_R   0.338842 0.998757 0.005446 -0.053914
C37   C     C_R   0.401565 0.948334 0.934171 -0.016250
C38   C     C_R   0.315101 0.940725 0.845598 0.066064
C39   C     C_R   0.166715 0.983753 0.828074 0.000554
C40   C     C_3   0.992375 0.184913 0.825726 0.320597
C41   C     C_3   0.952751 0.090320 0.879089 -0.191222
C42   C     C_3   0.447431 0.240894 0.792290 0.778230
C43   C     C_3   0.484667 0.228506 0.892953 0.664351
C44   C     C_R   0.082046 0.184729 0.535337 -0.265833
H1    H     H_    0.257793 0.699775 0.221763 0.110851
H2    H     H_    0.329868 0.251248 0.406945 0.056319
H3    H     H_    0.204862 0.826279 0.098950 0.150845
H4    H     H_    0.118009 0.077151 0.264686 0.110785
H5    H     H_    0.172251 0.064729 0.383489 0.067681
H6    H     H_    0.334066 0.081154 0.314830 0.158266
H7    H     H_    0.478326 0.736835 0.219800 -0.055187
H8    H     H_    0.277107 0.702039 0.067055 0.083900
H9    H     H_    0.668620 0.732502 0.629713 -0.022567
H10   H     H_    0.465542 0.776022 0.614742 0.060286
H11   H     H_    0.797230 0.895655 0.722502 0.096514
H12   H     H_    0.663191 0.354645 0.135266 -0.038391
H13   H     H_    0.672305 0.933798 0.624455 0.059632
H14   H     H_    0.598272 0.939797 0.730280 -0.747674
H15   H     H_    0.422832 0.824370 0.088351 0.074652
H16   H     H_    0.717300 0.894208 0.133153 0.118780
H17   H     H_    0.018778 0.156036 0.758065 0.011615
H18   H     H_    0.104923 0.235543 0.866107 0.046290
H19   H     H_    0.845532 0.032959 0.840767 0.157920
H20   H     H_    0.915863 0.121172 0.943482 0.121539
H21   H     H_    0.322510 0.266327 0.777335 -0.438487
H22   H     H_    0.543311 0.305053 0.779151 0.014105
H23   H     H_    0.759023 0.235175 0.141954 0.056806
H24   H     H_    0.370839 0.189721 0.914414 -0.573029
H25   H     H_    0.521442 0.309393 0.932295 -0.069291
H26   H     H_    0.975824 0.868948 0.299017 0.071944
H27   H     H_    0.613421 0.046464 0.398917 0.101909
H28   H     H_    0.197414 0.953523 0.601555 0.112117
H29   H     H_    0.133202 0.268885 0.540390 0.064308
H30   H     H_    0.676297 0.731440 0.461244 0.071174
H31   H     H_    0.683773 0.590795 0.043133 0.079082
H32   H     H_    0.113837 0.415042 0.965232 0.069531
H33   H     H_    0.220677 0.422588 0.101462 0.079141
H34   H     H_    0.182561 0.655718 0.713923 -0.011948
H35   H     H_    0.572496 0.595191 0.912046 0.076055
H36   H     H_    0.628560 0.546199 0.312930 0.070560
H37   H     H_    0.762938 0.801505 0.268391 -0.054734
H38   H     H_    0.186086 0.455886 0.696007 0.055356
H39   H     H_    0.792383 0.990345 0.232448 0.107858
H40   H     H_    0.931629 0.958603 0.154600 0.128858
H41   H     H_    0.625324 0.345362 0.300896 0.002799
H42   H     H_    0.837991 0.374782 0.281518 -0.015462
H43   H     H_    0.459820 0.222232 0.091119 0.312897
H44   H     H_    0.143087 0.080037 0.044474 0.078961
H45   H     H_    0.960302 0.616554 0.703077 0.090399
H46   H     H_    0.407348 0.006795 0.073889 0.116000
H47   H     H_    0.517406 0.915721 0.947489 0.082934
H48   H     H_    0.361644 0.900574 0.790433 0.127860
H49   H     H_    0.102955 0.979300 0.758956 0.067473
H50   H     H_    0.633342 0.164578 0.977073 0.294833
H51   H     H_    0.203204 0.736547 0.864548 0.088844
H52   H     H_    0.037021 0.627544 0.859305 0.090620
H53   H     H_    0.987063 0.759667 0.846961 0.144339
H54   H     H_    0.110244 0.247528 0.361785 -0.016782
O1    O     O_2   0.168170 0.764170 0.543850 -0.460935
O2    O     O_2   0.799364 0.437366 0.821238 -0.497641
O3    O     O_3   0.855447 0.241027 0.814577 -0.554180
O4    O     O_3   0.898670 0.629780 0.545890 -0.492038
O5    O     O_3   0.409490 0.443300 0.392340 -0.496441
O6    O     O_2   0.674250 0.555830 0.719690 -0.456389
O7    O     O_3   0.548175 0.736016 0.742107 -0.631196
O8    O     O_2   0.527750 0.114018 0.575198 -0.465082
O9    O     O_3   0.451751 0.144522 0.738298 -0.573496
O10   O     O_3   0.365980 0.695510 0.380810 -0.495438
O11   O     O_2   0.283987 0.885103 0.428964 -0.487802
O12   O     O_3   0.268632 0.271931 0.270537 -0.591496
O13   O     O_3   0.045248 0.776049 0.689226 -0.649285
O14   O     O_3   0.354936 0.859119 0.264833 -0.607458
O15   O     O_2   0.136040 0.444100 0.280280 -0.475449
O16   O     O_3   0.934510 0.640480 0.335500 -0.479851
O17   O     O_2   0.004055 0.563103 0.176081 -0.503875
O18   O     O_3   0.510427 0.217535 0.154693 -0.711940
O19   O     O_3   0.613106 0.167020 0.910601 -0.694895
O20   O     O_3   0.934668 0.759566 0.184639 -0.593344
O21   O     O_2   0.642110 0.235770 0.456130 -0.470723
O22   O     O_3   0.911620 0.370210 0.454030 -0.494818
O23   O     O_3   0.444310 0.304480 0.619110 -0.483937
O24   O     O_3   0.763834 0.221397 0.311168 -0.644958
O25   O     O_3   0.400800 0.556680 0.607590 -0.476506
O26   O     O_3   0.875770 0.359510 0.664420 -0.462472
P1    P     P_3+3 0.998660 0.747790 0.570900 0.968543
P2    P     P_3+3 0.306970 0.411860 0.294270 0.996750
P3    P     P_3+3 0.886683 0.631854 0.217976 0.952023
P4    P     P_3+3 0.811620 0.252200 0.429030 0.975360
P5    P     P_3+3 0.919116 0.367727 0.782994 0.958625
P6    P     P_3+3 0.408736 0.833883 0.377603 0.955116
P7    P     P_3+3 0.501179 0.596097 0.719689 0.950139
P8    P     P_3+3 0.401187 0.166508 0.624397 1.008631

loop_
_geom_bond_atom_site_label_1
_geom_bond_atom_site_label_2
_ccdc_geom_bond_type
C6    C7    A    
C40   H18   S    
C43   H25   S    
H50   O19   S    
C17   C18   A    
C23   H10   S    
O21   P4    D    
C2    C6    A    
C34   H13   S    
C40   O3    S    
C1    H3    S    
C29   H34   S    
Ba2   O23   S    
C27   H41   S    
C4    H26   S    
C32   H5    S    
C16   H40   S    
C35   H44   S    
O22   P4    S    
C33   C35   A    
C35   C36   A    
C22   C24   A    
C9    C44   A    
C36   C37   A    
C1    H8    S    
C13   C14   A    
C27   O24   S    
C36   H46   S    
C30   H51   S    
C21   P3    S    
Ba1   Ba2   S    
C4    O20   S    
C14   P5    S    
C7    C11   A    
Ba1   O22   S    
C37   H47   S    
C27   H42   S    
Ba2   P4    S    
O6    P7    D    
O16   P3    S    
C14   C15   A    
Ba1   P2    S    
O10   P6    S    
Ba1   O16   S    
C33   C41   S    
C7    C8    A    
C42   O9    S    
C43   O19   S    
Ba2   O22   S    
O9    P8    S    
C10   P8    S    
C18   H35   S    
C2    C5    A    
C19   P7    S    
C44   H29   S    
C1    H15   S    
C4    C16   S    
C32   H4    S    
C16   H39   S    
C2    H30   S    
O23   P8    S    
C26   H36   S    
O20   P3    S    
Ba1   P1    S    
O2    P5    D    
C10   C44   A    
C34   H11   S    
C37   C38   A    
C3    C5    A    
C16   H16   S    
C28   O18   S    
C12   O14   S    
Ba2   O6    S    
O15   P2    D    
O8    P8    D    
C27   C28   S    
O1    P1    D    
Ba1   O10   S    
C6    P1    S    
C29   C30   S    
Ba2   O4    S    
C41   H19   S    
C31   C32   S    
C24   C25   A    
O24   P4    S    
C31   O12   S    
C21   C26   A    
C10   C11   A    
Ba1   O4    S    
C5    P6    S    
C13   H38   S    
C1    C12   S    
Ba2   O26   S    
C38   C39   A    
C29   H45   S    
C20   C25   A    
C42   H22   S    
C40   C41   S    
C9    P4    S    
Ba1   O1    S    
C28   H23   S    
O17   P3    D    
C42   C43   S    
C23   O7    S    
C22   C26   A    
Ba2   O21   S    
O25   P7    S    
C4    H37   S    
O5    P2    S    
C43   H24   S    
O14   P6    S    
C23   H9    S    
C20   H31   S    
C38   H48   S    
C34   H14   S    
C12   H1    S    
O13   P1    S    
Ba2   O5    S    
C32   H6    S    
C24   H33   S    
C30   H53   S    
Ba1   O25   S    
C31   H54   S    
C3    C8    A    
O7    P7    S    
C39   H49   S    
O4    P1    S    
O26   P5    S    
C41   H20   S    
C28   H12   S    
C15   H32   S    
C15   C17   A    
C30   H52   S    
C3    H27   S    
C33   C39   A    
H43   O18   S    
O12   P2    S    
C8    C9    A    
C23   C34   S    
Ba2   O25   S    
O11   P6    D    
C13   C19   A    
C12   H7    S    
C18   C19   A    
C22   P2    S    
C31   H2    S    
C20   C21   A    
C42   H21   S    
Ba1   O15   S    
C17   C25   S    
O3    P5    S    
C40   H17   S    
C29   O13   S    
Ba1   O5    S    
C11   H28   S    
