data_mof_unit_66864.cif
_audit_creation_date              2013-03-05T15:57:21-0500
_audit_creation_method            fapswitch 2.2
_symmetry_space_group_name_H-M    P1
_symmetry_Int_Tables_number       1
_space_group_crystal_system       triclinic
_cell_length_a                    17.122035
_cell_length_b                    18.26287
_cell_length_c                    8.402444
_cell_angle_alpha                 89.999985
_cell_angle_beta                  101.808939
_cell_angle_gamma                 90.014931
_cell_volume                      2571.81496464

loop_
_atom_site_label
_atom_site_type_symbol
_atom_site_description
_atom_site_fract_x
_atom_site_fract_y
_atom_site_fract_z
_atom_type_partial_charge
P1    P     P_3+3 0.834140 0.419320 0.003900 0.517851
P2    P     P_3+3 0.834140 0.580680 0.503900 0.520215
P3    P     P_3+3 0.334140 0.919320 0.003900 0.529605
P4    P     P_3+3 0.334140 0.080680 0.503900 0.520805
O1    O     O_2   0.841960 0.394640 0.833410 -0.376274
O2    O     O_2   0.841960 0.605360 0.333410 -0.372231
O3    O     O_2   0.341960 0.894640 0.833410 -0.379943
O4    O     O_2   0.341960 0.105360 0.333410 -0.377794
O5    O     O_3   0.907950 0.463080 0.102990 -0.309897
O6    O     O_3   0.907950 0.536920 0.602990 -0.309773
O7    O     O_3   0.407950 0.963080 0.102990 -0.313176
O8    O     O_3   0.407950 0.036920 0.602990 -0.309974
O9    O     O_3   0.972780 0.329600 0.629720 -0.323950
O10   O     O_3   0.972780 0.670400 0.129720 -0.316294
O11   O     O_3   0.472780 0.829600 0.629720 -0.326350
O12   O     O_3   0.472780 0.170400 0.129720 -0.326789
O13   O     O_2   0.839649 0.272296 0.692595 -0.398450
O14   O     O_2   0.836275 0.723885 0.183701 -0.373047
O15   O     O_2   0.340567 0.770950 0.693820 -0.405486
O16   O     O_2   0.340552 0.228839 0.194289 -0.399624
O17   O     O_3   0.751152 0.477353 0.968991 -0.586557
O18   O     O_3   0.750621 0.523275 0.469369 -0.585927
O19   O     O_3   0.250655 0.976719 0.969014 -0.555711
O20   O     O_3   0.250840 0.023034 0.469163 -0.579878
O21   O     O_3   0.943013 0.176396 0.637579 -0.538818
O22   O     O_3   0.939618 0.822482 0.146700 -0.523397
O23   O     O_3   0.444794 0.676520 0.634523 -0.537575
O24   O     O_3   0.444580 0.323486 0.134937 -0.537547
H1    H     H_    0.062850 0.192290 0.729097 0.116418
H2    H     H_    0.059316 0.803059 0.233883 0.149442
H3    H     H_    0.563935 0.696097 0.727454 0.113843
H4    H     H_    0.563485 0.303510 0.229354 0.115386
C1    C     C_3   0.042769 0.098131 0.570609 -0.944445
C2    C     C_3   0.039670 0.906200 0.107206 -0.934273
C3    C     C_3   0.547856 0.601198 0.571193 -0.967307
C4    C     C_3   0.548263 0.398846 0.074456 -0.967396
H5    H     H_    0.611489 0.600405 0.560827 0.240857
H6    H     H_    0.612016 0.399622 0.065013 0.240386
H7    H     H_    0.106170 0.095464 0.558963 0.241838
H8    H     H_    0.030077 0.937378 0.214891 0.250399
H9    H     H_    0.032707 0.059094 0.665671 0.274495
H10   H     H_    0.000365 0.929661 0.997528 0.280591
H11   H     H_    0.538881 0.562382 0.667219 0.253541
H12   H     H_    0.539014 0.437388 0.170738 0.253515
P5    P     P_3+3 0.165830 0.418670 0.685610 0.465654
P6    P     P_3+3 0.165830 0.581330 0.185610 0.464892
P7    P     P_3+3 0.665830 0.918670 0.685610 0.466170
P8    P     P_3+3 0.665830 0.081330 0.185610 0.465597
P9    P     P_3+3 0.101115 0.262507 0.111091 0.481208
P10   P     P_3+3 0.098623 0.739358 0.609794 0.464176
P11   P     P_3+3 0.601274 0.762578 0.110757 0.482136
P12   P     P_3+3 0.601045 0.237597 0.611337 0.481268
O25   O     O_2   0.157990 0.394030 0.856030 -0.378795
O26   O     O_2   0.157990 0.605970 0.356030 -0.378090
O27   O     O_2   0.657990 0.894030 0.856030 -0.382513
O28   O     O_2   0.657990 0.105970 0.356030 -0.372333
O29   O     O_3   0.027110 0.329490 0.059550 -0.344408
O30   O     O_3   0.027110 0.670510 0.559550 -0.334122
O31   O     O_3   0.527110 0.829490 0.059550 -0.346075
O32   O     O_3   0.527110 0.170510 0.559550 -0.343831
O33   O     O_2   0.162223 0.273803 0.001319 -0.406640
O34   O     O_2   0.157988 0.729523 0.495539 -0.400932
O35   O     O_2   0.662708 0.774452 0.001916 -0.396919
O36   O     O_2   0.662312 0.226164 0.501987 -0.407836
O37   O     O_3   0.248863 0.476726 0.721006 -0.576528
O38   O     O_3   0.249076 0.523601 0.221158 -0.576739
O39   O     O_3   0.748870 0.976658 0.719886 -0.576238
O40   O     O_3   0.749646 0.024473 0.223285 -0.574849
O41   O     O_3   0.060621 0.176300 0.052767 -0.604288
O42   O     O_3   0.049406 0.821452 0.544812 -0.574304
O43   O     O_3   0.561404 0.676186 0.051681 -0.605788
O44   O     O_3   0.560902 0.323920 0.552749 -0.605314
C5    C     C_3   0.981846 0.172269 0.076776 1.203256
C6    C     C_3   0.018208 0.851172 0.673174 1.270855
C7    C     C_3   0.482583 0.671471 0.075272 1.199014
C8    C     C_3   0.482262 0.328570 0.577402 1.198306
H13   H     H_    0.941414 0.204218 0.981324 0.026224
H14   H     H_    0.997368 0.808315 0.748745 -0.152994
H15   H     H_    0.441998 0.703197 0.979658 0.026057
H16   H     H_    0.441386 0.297247 0.481458 0.025382
C9    C     C_3   0.956350 0.092496 0.065467 -1.038360
C10   C     C_3   0.945991 0.897970 0.604606 -0.981085
C11   C     C_3   0.457728 0.591464 0.063775 -1.030451
C12   C     C_3   0.457697 0.408651 0.567850 -1.030951
H17   H     H_    0.394176 0.586225 0.072859 0.245785
H18   H     H_    0.394070 0.413872 0.576404 0.246232
H19   H     H_    0.892778 0.087655 0.074673 0.245024
H20   H     H_    0.897526 0.862237 0.539072 0.215807
H21   H     H_    0.965255 0.068563 0.949115 0.237182
H22   H     H_    0.961771 0.939906 0.520741 0.254276
H23   H     H_    0.466712 0.567678 0.947295 0.234118
H24   H     H_    0.467114 0.433068 0.452291 0.233664
C13   C     C_3   0.230371 0.456540 0.284683 0.370107
C14   C     C_3   0.230256 0.543346 0.786625 0.374366
C15   C     C_3   0.729882 0.955036 0.273030 0.339865
C16   C     C_3   0.730658 0.043126 0.786579 0.365908
H25   H     H_    0.236343 0.462596 0.417337 0.111714
H26   H     H_    0.238010 0.536857 0.919501 0.111009
H27   H     H_    0.729840 0.956802 0.404451 0.111520
H28   H     H_    0.738540 0.036343 0.919495 0.106055
H29   H     H_    0.169632 0.436657 0.229010 0.114204
H30   H     H_    0.168891 0.562665 0.734428 0.114937
H31   H     H_    0.671602 0.934555 0.204208 0.124622
H32   H     H_    0.669358 0.062690 0.734654 0.114878
C17   C     C_3   0.289704 0.399567 0.251607 -0.893885
C18   C     C_3   0.288123 0.601240 0.751116 -0.894228
C19   C     C_3   0.793425 0.901961 0.243548 -0.839262
C20   C     C_3   0.788725 0.100838 0.751251 -0.888276
H33   H     H_    0.349911 0.423951 0.265417 0.277356
H34   H     H_    0.348428 0.577575 0.761058 0.278040
H35   H     H_    0.853546 0.924981 0.291061 0.271729
H36   H     H_    0.848948 0.076941 0.761512 0.275424
H37   H     H_    0.292338 0.352869 0.336765 0.217512
H38   H     H_    0.291451 0.647456 0.837659 0.217911
H39   H     H_    0.787300 0.848816 0.303252 0.225971
H40   H     H_    0.792033 0.147204 0.837465 0.216468
H41   H     H_    0.271582 0.379285 0.125488 0.276705
H42   H     H_    0.268073 0.622120 0.625980 0.276439
H43   H     H_    0.787271 0.893280 0.111356 0.264720
H44   H     H_    0.768978 0.121485 0.625834 0.278939
Ba1   Ba    Ba6+2 1.000000 0.447380 0.844850 1.637476
Ba2   Ba    Ba6+2 0.000000 0.552620 0.344850 1.637928
Ba3   Ba    Ba6+2 0.500000 0.947380 0.844850 1.642629
Ba4   Ba    Ba6+2 0.500000 0.052620 0.344850 1.640757
C21   C     C_3   0.771640 0.545644 0.914268 0.377032
C22   C     C_3   0.770459 0.454773 0.414836 0.369539
C23   C     C_3   0.270765 0.045415 0.916080 0.392582
C24   C     C_3   0.270767 0.954425 0.415145 0.362676
H45   H     H_    0.776501 0.540728 0.785685 0.106379
H46   H     H_    0.774753 0.459374 0.285821 0.105938
H47   H     H_    0.277489 0.040954 0.788466 0.104556
H48   H     H_    0.272164 0.958238 0.284487 0.099865
C25   C     C_3   0.705655 0.599408 0.927194 -0.909051
C26   C     C_3   0.704407 0.401347 0.429556 -0.919208
C27   C     C_3   0.203289 0.098032 0.925589 -0.906898
C28   C     C_3   0.206676 0.900314 0.437879 -0.895092
H49   H     H_    0.646622 0.574202 0.880463 0.269933
H50   H     H_    0.645370 0.427053 0.385892 0.274425
H51   H     H_    0.145070 0.072160 0.874506 0.286429
H52   H     H_    0.146927 0.925038 0.397238 0.275008
H53   H     H_    0.711229 0.649637 0.856517 0.213618
H54   H     H_    0.708736 0.351368 0.357210 0.207762
H55   H     H_    0.209195 0.148763 0.856845 0.201471
H56   H     H_    0.210703 0.849410 0.367621 0.204914
H57   H     H_    0.709309 0.614202 0.056330 0.280245
H58   H     H_    0.709295 0.386017 0.558714 0.279793
H59   H     H_    0.204686 0.112087 0.054413 0.275799
H60   H     H_    0.213954 0.886760 0.568771 0.282309
O45   O     O_3   0.092100 0.536880 0.086720 -0.370858
O46   O     O_3   0.092100 0.463120 0.586720 -0.368459
O47   O     O_3   0.592100 0.036880 0.086720 -0.374102
O48   O     O_3   0.592100 0.963120 0.586720 -0.365997
P13   P     P_3+3 0.899077 0.737588 0.078894 0.512210
P14   P     P_3+3 0.899773 0.261697 0.580261 0.511965
P15   P     P_3+3 0.400051 0.238454 0.080206 0.510403
P16   P     P_3+3 0.400113 0.761470 0.579792 0.508220
C29   C     C_3   0.022146 0.175540 0.614504 0.420671
C30   C     C_3   0.018821 0.826283 0.125509 0.434639
C31   C     C_3   0.524176 0.677913 0.612865 0.442696
C32   C     C_3   0.524158 0.322055 0.114604 0.442373
H61   H     H_    0.032572 0.212432 0.515894 0.138848
H62   H     H_    0.028853 0.796374 0.016531 0.052430
H63   H     H_    0.533523 0.714773 0.513357 0.137052
H64   H     H_    0.533723 0.285474 0.014843 0.136525
H65   H     H_    0.510245 0.583411 0.454001 0.289947
H66   H     H_    0.511049 0.416985 0.957198 0.289166
H67   H     H_    0.004129 0.081849 0.453366 0.281323
H68   H     H_    0.102901 0.911374 0.095471 0.266867
H69   H     H_    0.494851 0.560360 0.164976 0.259630
H70   H     H_    0.494747 0.439232 0.670065 0.259355
H71   H     H_    0.993355 0.061344 0.166623 0.264550
H72   H     H_    0.924317 0.925907 0.704792 0.234955
C33   C     C_R   0.135935 0.678429 0.923513 -0.488552
C34   C     C_R   0.136888 0.322313 0.423759 -0.489853
C35   C     C_R   0.636688 0.177785 0.924057 -0.493999
C36   C     C_R   0.637470 0.822831 0.422737 -0.501868
C37   C     C_R   0.863796 0.322386 0.267434 0.429436
C38   C     C_R   0.865926 0.679159 0.764369 0.380790
C39   C     C_R   0.364071 0.822086 0.266790 0.431189
C40   C     C_R   0.363685 0.177540 0.767555 0.425897
C41   C     C_R   0.791404 0.211932 0.301025 -0.237723
C42   C     C_R   0.792822 0.789031 0.798676 -0.275269
C43   C     C_R   0.291196 0.711966 0.300618 -0.242629
C44   C     C_R   0.291476 0.288097 0.800907 -0.236964
C45   C     C_R   0.847882 0.264924 0.365002 0.150410
C46   C     C_R   0.850131 0.736623 0.861801 0.054498
C47   C     C_R   0.347919 0.764811 0.364559 0.149151
C48   C     C_R   0.347794 0.235006 0.865109 0.149749
C49   C     C_R   0.817398 0.333080 0.111343 0.080976
C50   C     C_R   0.818367 0.667601 0.609730 0.109370
C51   C     C_R   0.317645 0.832852 0.110757 0.073399
C52   C     C_R   0.317475 0.166965 0.611222 0.083477
C53   C     C_R   0.756059 0.281473 0.048051 -0.163528
C54   C     C_R   0.756745 0.719012 0.546697 -0.158289
C55   C     C_R   0.256231 0.781302 0.047297 -0.169400
C56   C     C_R   0.256205 0.218607 0.547783 -0.161498
C57   C     C_R   0.243539 0.719363 0.143056 -0.082237
C58   C     C_R   0.243780 0.280695 0.643502 -0.082727
C59   C     C_R   0.743637 0.219380 0.143737 -0.082760
C60   C     C_R   0.744559 0.781266 0.642058 -0.062037
C61   C     C_R   0.182357 0.667747 0.079276 0.272815
C62   C     C_R   0.182802 0.332483 0.579710 0.257130
C63   C     C_R   0.682601 0.167631 0.080017 0.257381
C64   C     C_R   0.683162 0.832777 0.578945 0.263199
C65   C     C_R   0.151211 0.736150 0.825909 0.154281
C66   C     C_R   0.152175 0.264702 0.326487 0.274257
C67   C     C_R   0.652011 0.235390 0.826786 0.276914
C68   C     C_R   0.652248 0.764812 0.326047 0.270436
C69   C     C_R   0.208656 0.788530 0.889620 -0.058435
C70   C     C_R   0.208503 0.211442 0.390181 -0.151602
C71   C     C_R   0.708316 0.288667 0.890566 -0.152244
C72   C     C_R   0.708392 0.711416 0.389914 -0.160965
H73   H     H_    0.284757 0.666028 0.376818 0.202518
H74   H     H_    0.285355 0.334282 0.876650 0.202123
H75   H     H_    0.785216 0.165816 0.376937 0.204297
H76   H     H_    0.785903 0.834689 0.874992 0.205088
H77   H     H_    0.714839 0.334477 0.814017 0.178094
H78   H     H_    0.714551 0.665364 0.313702 0.179902
H79   H     H_    0.216034 0.833924 0.813068 0.193165
H80   H     H_    0.215102 0.165720 0.313365 0.178068
H81   H     H_    0.090274 0.639017 0.873864 0.210861
H82   H     H_    0.091611 0.362004 0.373710 0.210363
H83   H     H_    0.591319 0.138147 0.874066 0.210906
H84   H     H_    0.592703 0.862897 0.372167 0.211337
H85   H     H_    0.827991 0.567584 0.988501 0.156058
H86   H     H_    0.826889 0.432762 0.488518 0.152732
H87   H     H_    0.325995 0.067908 0.993504 0.142266
H88   H     H_    0.328546 0.933438 0.485074 0.153390
F1    F     F_    0.923164 0.369963 0.328422 -0.674066
F2    F     F_    0.925238 0.631579 0.825484 -0.681600
F3    F     F_    0.423770 0.869388 0.327471 -0.674393
F4    F     F_    0.422815 0.129804 0.828816 -0.674644
F5    F     F_    0.975832 0.197611 0.228788 -0.773200
F6    F     F_    0.075484 0.894891 0.767923 -0.749246
F7    F     F_    0.476070 0.696674 0.227122 -0.771280
F8    F     F_    0.476048 0.302759 0.728944 -0.772094

loop_
_geom_bond_atom_site_label_1
_geom_bond_atom_site_label_2
_geom_bond_distance
_ccdc_geom_bond_type
C43   H73   1.074609 S    
C59   C63   1.429151 A    
P1    O17   1.748864 S    
O10   Ba2   2.786972 S    
O16   P15   1.545041 D    
C13   H25   1.103815 S    
P12   C67   1.842215 S    
C20   H44   1.105100 S    
P3    O19   1.748531 S    
O7    Ba4   2.824129 S    
C34   H82   1.081716 S    
C35   C67   1.389686 A    
O44   C8    1.406174 S    
O6    Ba1   2.824603 S    
C33   H81   1.081447 S    
C8    C12   1.519454 S    
C37   C45   1.392444 A    
Ba3   Ba4   4.619987 S    
C22   H86   1.110771 S    
C25   H49   1.106828 S    
P8    C63   1.859509 S    
C43   C57   1.412340 A    
C7    H15   1.111636 S    
O11   Ba3   2.786785 S    
C18   H38   1.107889 S    
P1    O1    1.533549 D    
C32   H64   1.109963 S    
C17   H37   1.108238 S    
C3    H5    1.110714 S    
C12   H18   1.110492 S    
C55   C69   1.412305 A    
P3    O3    1.533549 D    
P15   C48   1.846378 S    
C24   C28   1.517407 S    
C37   F1    1.355431 S    
P4    O20   1.748307 S    
C15   H27   1.104874 S    
O18   C22   1.397979 S    
C39   C47   1.392242 A    
P13   C46   1.845078 S    
C14   H26   1.103422 S    
O23   C31   1.407954 S    
O1    Ba1   2.855066 S    
O24   C32   1.407716 S    
P9    O29   1.750945 S    
Ba1   O46   2.945039 S    
P4    Ba4   3.415778 S    
C33   C61   1.398954 A    
P5    O46   1.585653 S    
C42   C46   1.395598 A    
C29   H61   1.110314 S    
P7    O39   1.748611 S    
O32   Ba4   2.786052 S    
P4    C52   1.866380 S    
C40   C48   1.392414 A    
C13   C17   1.519225 S    
P7    O48   1.585653 S    
P5    O37   1.749285 S    
C44   H74   1.074627 S    
C28   H52   1.106486 S    
P6    C61   1.863432 S    
C54   C60   1.430651 A    
P1    O5    1.580459 S    
C15   H31   1.110710 S    
P5    C62   1.860067 S    
C53   C71   1.412041 A    
C2    H10   1.109997 S    
P2    O18   1.748608 S    
O24   P15   1.749356 S    
O41   C5    1.405934 S    
C6    F6    1.383152 S    
P12   O32   1.751211 S    
C14   C18   1.519568 S    
C5    F5    1.382058 S    
P8    O28   1.532869 D    
C49   C53   1.430046 A    
P4    O4    1.533529 D    
C9    H21   1.109558 S    
C27   H55   1.107291 S    
C16   C20   1.519135 S    
P7    O27   1.532848 D    
P5    O25   1.532848 D    
C36   C64   1.395506 A    
P9    O41   1.749255 S    
C18   H42   1.105046 S    
C23   H87   1.110952 S    
O15   P16   1.545115 D    
C17   H41   1.105349 S    
P2    O2    1.533529 D    
P11   O43   1.750006 S    
C6    C10   1.516675 S    
C2    H68   1.111033 S    
O13   P14   1.544649 D    
C24   H48   1.105194 S    
C19   H43   1.105467 S    
C68   C72   1.397268 A    
P3    Ba3   3.415556 S    
C50   C54   1.430752 A    
C51   C55   1.430508 A    
P2    Ba2   3.415778 S    
P11   O31   1.751599 S    
O31   Ba3   2.786239 S    
C71   H77   1.074926 S    
P14   C45   1.845689 S    
Ba3   O47   2.824107 S    
O30   Ba2   2.786052 S    
O40   C15   1.398220 S    
C37   C49   1.401081 A    
P10   O30   1.745304 S    
Ba2   O45   2.945120 S    
C8    H16   1.111687 S    
P11   O35   1.543843 D    
C56   C58   1.431088 A    
C40   C52   1.401184 A    
C70   H80   1.075420 S    
C13   H29   1.110370 S    
C22   H46   1.104641 S    
C30   H62   1.109389 S    
P11   C68   1.841065 S    
O4    Ba4   2.855541 S    
H1    C29   1.109787 S    
P5    Ba1   3.418010 S    
C53   C59   1.430893 A    
C67   C71   1.396909 A    
C54   C72   1.411963 A    
C56   C70   1.412477 A    
C38   F2    1.355402 S    
C20   H36   1.106788 S    
C1    C29   1.520807 S    
C69   H79   1.072463 S    
C27   H51   1.107155 S    
O42   C6    1.406838 S    
P12   O44   1.749919 S    
C43   C47   1.396152 A    
C60   C64   1.429569 A    
C26   H54   1.107522 S    
O9    Ba1   2.786785 S    
C66   C70   1.397110 A    
C25   H57   1.107462 S    
P7    Ba3   3.418010 S    
C52   C56   1.430315 A    
C34   C62   1.395660 A    
C65   C69   1.397530 A    
C24   H88   1.110467 S    
C21   H45   1.104117 S    
P6    O26   1.532869 D    
O12   P15   1.748501 S    
C4    H66   1.108885 S    
O5    Ba2   2.824129 S    
Ba1   Ba2   4.619987 S    
C42   C60   1.410528 A    
C41   H75   1.074713 S    
C36   C68   1.389647 A    
C1    H7    1.110800 S    
P8    O40   1.747210 S    
C7    F7    1.382214 S    
C19   H39   1.107328 S    
O11   P16   1.748636 S    
C28   H60   1.109188 S    
O14   P13   1.543331 D    
C15   C19   1.515096 S    
C5    C9    1.518159 S    
C10   H72   1.111138 S    
C58   C62   1.429465 A    
C2    C30   1.517711 S    
C27   H59   1.107937 S    
O37   C14   1.399254 S    
C11   H17   1.110406 S    
Ba4   O47   2.945120 S    
C44   C58   1.411486 A    
O38   C13   1.398994 S    
O10   P13   1.749502 S    
P12   O36   1.543644 D    
O39   C16   1.398771 S    
P10   O34   1.544851 D    
C2    H8    1.109400 S    
C4    H12   1.107926 S    
P4    O8    1.580792 S    
O2    Ba2   2.855541 S    
C39   F3    1.355469 S    
C41   C59   1.411268 A    
O27   Ba3   2.858867 S    
O28   Ba4   2.858385 S    
C10   H20   1.109212 S    
C3    H11   1.108079 S    
C21   H85   1.110856 S    
O19   C23   1.397442 S    
C18   H34   1.106724 S    
P16   C47   1.847023 S    
C21   C25   1.517613 S    
O23   P16   1.749379 S    
H2    C30   1.109760 S    
C17   H33   1.106915 S    
Ba3   O48   2.945039 S    
C40   F4    1.355418 S    
C41   C45   1.395511 A    
C36   H84   1.081877 S    
O21   P14   1.749737 S    
C19   H35   1.107856 S    
P6    Ba2   3.417783 S    
P2    C50   1.866052 S    
O3    Ba3   2.855066 S    
C26   H50   1.106905 S    
C42   H76   1.073157 S    
P6    O38   1.748964 S    
C11   H23   1.109907 S    
C16   H28   1.104151 S    
C12   H70   1.108513 S    
C10   H22   1.110828 S    
C57   C61   1.429294 A    
C26   H58   1.107236 S    
C1    H9    1.110053 S    
C20   H40   1.108235 S    
C23   H47   1.104625 S    
C16   H32   1.110133 S    
O12   Ba4   2.786972 S    
C35   C63   1.395742 A    
C28   H56   1.110944 S    
O25   Ba1   2.858867 S    
O43   C7    1.406227 S    
C9    H19   1.110399 S    
P9    O33   1.543665 D    
C7    C11   1.519307 S    
P10   O42   1.751683 S    
O8    Ba3   2.824603 S    
C72   H78   1.075278 S    
C38   C50   1.401002 A    
C34   C66   1.389692 A    
C11   H69   1.108476 S    
C4    H6    1.110637 S    
C3    H65   1.109156 S    
Ba1   O45   2.824107 S    
P7    C64   1.860399 S    
O22   C30   1.405114 S    
C31   H63   1.110208 S    
C9    H71   1.107843 S    
Ba4   O48   2.824582 S    
P3    C51   1.866338 S    
C23   C27   1.517527 S    
P1    Ba1   3.415556 S    
O9    P14   1.749200 S    
Ba2   O46   2.824582 S    
C3    C31   1.519322 S    
P3    O7    1.580459 S    
C4    C32   1.519093 S    
O21   C29   1.407545 S    
O29   Ba1   2.786239 S    
C38   C46   1.391222 A    
P10   C65   1.855387 S    
C44   C48   1.395896 A    
O26   Ba2   2.858385 S    
P6    O45   1.585317 S    
C39   C51   1.401037 A    
P9    C66   1.842242 S    
C22   C26   1.517579 S    
C5    H13   1.111715 S    
P8    Ba4   3.417783 S    
C6    H14   1.111632 S    
P8    O47   1.585317 S    
O20   C24   1.398583 S    
C35   H83   1.081692 S    
C1    H67   1.108940 S    
O22   P13   1.745801 S    
C33   C65   1.392792 A    
C25   H53   1.107436 S    
C12   H24   1.109819 S    
H4    C32   1.110018 S    
O17   C21   1.398481 S    
C8    F8    1.382137 S    
H3    C31   1.110118 S    
C14   H30   1.110111 S    
P1    C49   1.866396 S    
C55   C57   1.430262 A    
P2    O6    1.580792 S    
