data_mof_unit_51389.cif
_audit_creation_date              2012-12-10T17:26:13-0500
_audit_creation_method            fapswitch 2.2
_symmetry_space_group_name_H-M    P1
_symmetry_Int_Tables_number       1
_space_group_crystal_system       triclinic
_cell_length_a                    10.184058
_cell_length_b                    10.591335
_cell_length_c                    27.678962
_cell_angle_alpha                 89.762153
_cell_angle_beta                  80.272765
_cell_angle_gamma                 95.419905
_cell_volume                      2928.83626263

loop_
_atom_site_label
_atom_site_type_symbol
_atom_type_description
_atom_site_fract_x
_atom_site_fract_y
_atom_site_fract_z
_atom_type_partial_charge
Br1   Br    Br    0.703660 0.721299 0.621922 -0.558701
Br2   Br    Br    0.300469 0.290499 0.369391 -0.535576
Br3   Br    Br    0.702831 0.722607 0.356163 -0.532332
Br4   Br    Br    0.294791 0.293449 0.653301 -0.535148
Br5   Br    Br    0.219246 0.794300 0.148386 -0.429268
Br6   Br    Br    0.876554 0.364842 0.846687 -0.413186
C1    C     C_R   0.556791 0.734924 0.493923 0.952183
C2    C     C_R   0.422049 0.607061 0.132954 -0.110135
C3    C     C_R   0.499437 0.506476 0.646218 -0.202796
C4    C     C_R   0.504229 0.507331 0.353706 -0.199235
C5    C     C_R   0.426280 0.612438 0.029986 -0.008985
C6    C     C_R   0.616891 0.482344 0.967432 -0.009737
C7    C     C_R   0.607612 0.471727 0.018932 0.078158
C8    C     C_R   0.423169 0.608155 0.978961 0.078970
C9    C     C_R   0.514673 0.539977 0.049996 0.080566
C10   C     C_R   0.520603 0.544964 0.947759 0.080201
C11   C     C_R   0.343605 0.687112 0.061726 -0.250334
C12   C     C_R   0.443457 0.265937 0.502350 0.911844
C13   C     C_R   0.720715 0.433211 0.934882 -0.253342
C14   C     C_R   0.340118 0.685097 0.112137 0.338372
C15   C     C_R   0.723467 0.433285 0.884535 0.340489
C16   C     C_R   0.499501 0.500515 0.593773 0.987407
C17   C     C_R   0.500826 0.500724 0.406257 0.981078
C18   C     C_R   0.323983 0.662953 0.958065 -0.208882
C19   C     C_R   0.686202 0.392109 0.040529 -0.207559
C20   C     C_2   0.588335 0.870851 0.480588 0.014925
C21   C     C_2   0.408979 0.130585 0.499220 0.008777
C22   C     C_2   0.486062 0.930599 0.469111 -0.196760
C23   C     C_R   0.520748 0.543184 0.896520 -0.094136
C24   C     C_2   0.491265 0.067750 0.466903 -0.159600
C25   C     C_2   0.933789 0.526144 0.494446 -0.048586
C26   C     C_2   0.079537 0.501254 0.490994 -0.077535
C27   C     C_R   0.418252 0.594397 0.826952 0.510885
C28   C     C_R   0.588007 0.451896 0.172107 0.526711
C29   C     C_R   0.610187 0.477717 0.814598 0.554448
C30   C     C_R   0.421840 0.598607 0.183861 0.544162
C31   C     C_R   0.413541 0.427691 0.729556 0.148525
C32   C     C_R   0.594532 0.607057 0.273998 0.148365
C33   C     C_R   0.412068 0.421133 0.678756 0.172183
C34   C     C_R   0.509923 0.535056 0.101492 -0.094490
C35   C     C_R   0.592285 0.600336 0.324988 0.173790
C36   C     C_R   0.586444 0.598878 0.664000 0.202295
C37   C     C_R   0.418279 0.422038 0.332155 0.195869
C38   C     C_R   0.586496 0.606039 0.713898 -0.128197
C39   C     C_R   0.420029 0.429503 0.282070 -0.130645
C40   C     C_R   0.501752 0.521756 0.746519 0.186601
C41   C     C_R   0.506673 0.520662 0.253141 0.189390
C42   C     C_3   0.291180 0.066778 0.534618 -0.378399
C43   C     C_3   0.168048 0.042828 0.510246 -0.819407
C44   C     C_3   0.725410 0.944799 0.479564 -0.382719
C45   C     C_R   0.420713 0.600217 0.877118 -0.008103
C46   C     C_3   0.840955 0.867366 0.485024 -0.802718
C47   C     C_3   0.104001 0.647330 0.554090 -0.241633
C48   C     C_3   0.184838 0.679780 0.594580 -0.683111
C49   C     C_3   0.878949 0.336204 0.452812 -0.223700
C50   C     C_3   0.928680 0.368864 0.398597 -0.762971
C51   C     C_3   0.688529 0.705933 0.242126 -0.378980
C52   C     C_3   0.830613 0.666104 0.230860 -0.694357
C53   C     C_3   0.325002 0.333364 0.765212 -0.343058
C54   C     C_3   0.389640 0.209883 0.768130 -0.749506
C55   C     C_R   0.593021 0.457072 0.121505 -0.009224
C56   C     C_R   0.323395 0.659406 0.908120 -0.121093
C57   C     C_R   0.678999 0.385251 0.090832 -0.123640
C58   C     C_R   0.619858 0.483833 0.864761 -0.111396
H1    H     H_    0.122308 0.436419 0.463980 0.182874
H2    H     H_    0.751458 0.330292 0.019580 0.153619
H3    H     H_    0.574868 0.118786 0.442726 0.158831
H4    H     H_    0.389052 0.879740 0.467856 0.191496
H5    H     H_    0.139113 0.133755 0.497051 0.276179
H6    H     H_    0.187392 0.978568 0.478815 0.259631
H7    H     H_    0.083666 0.997953 0.537456 0.251532
H8    H     H_    0.316452 0.976409 0.549646 0.214816
H9    H     H_    0.265688 0.128581 0.566465 0.251003
H10   H     H_    0.823864 0.820216 0.521652 0.282513
H11   H     H_    0.855645 0.797146 0.455393 0.293179
H12   H     H_    0.899342 0.610696 0.512001 0.144786
H13   H     H_    0.934187 0.932006 0.481438 0.237959
H14   H     H_    0.754493 0.996738 0.443796 0.228694
H15   H     H_    0.716822 0.016305 0.508944 0.217975
H16   H     H_    0.185673 0.594841 0.618084 0.281328
H17   H     H_    0.286998 0.722481 0.579929 0.264044
H18   H     H_    0.135278 0.751785 0.618357 0.224948
H19   H     H_    0.097227 0.735875 0.533255 0.170039
H20   H     H_    0.003078 0.612200 0.574215 0.205452
H21   H     H_    0.848852 0.408749 0.382241 0.278868
H22   H     H_    0.018034 0.439190 0.393716 0.265117
H23   H     H_    0.653309 0.677420 0.727704 0.189362
H24   H     H_    0.955858 0.281618 0.378774 0.260146
H25   H     H_    0.952757 0.286080 0.468980 0.161521
H26   H     H_    0.789509 0.267097 0.455266 0.201798
H27   H     H_    0.870712 0.651095 0.265080 0.289753
H28   H     H_    0.832039 0.577120 0.209847 0.273794
H29   H     H_    0.897011 0.741497 0.208417 0.272407
H30   H     H_    0.654613 0.722419 0.206800 0.205165
H31   H     H_    0.689202 0.799201 0.260274 0.255550
H32   H     H_    0.408415 0.165819 0.731607 0.290236
H33   H     H_    0.485939 0.228083 0.781800 0.275495
H34   H     H_    0.354276 0.363596 0.265211 0.189629
H35   H     H_    0.321982 0.142207 0.793872 0.256806
H36   H     H_    0.304785 0.371884 0.802616 0.214273
H37   H     H_    0.225109 0.313536 0.754394 0.267418
H38   H     H_    0.244588 0.702038 0.893978 0.197429
H39   H     H_    0.741564 0.322903 0.105595 0.196119
H40   H     H_    0.281943 0.751662 0.048251 0.174512
H41   H     H_    0.804445 0.396756 0.947553 0.173435
H42   H     H_    0.242085 0.705848 0.979462 0.151805
N1    N     N_R   0.509696 0.530940 0.797383 -0.350810
N2    N     N_R   0.505267 0.523597 0.201719 -0.351016
N3    N     N_2   0.842700 0.448890 0.480020 -0.057111
N4    N     N_2   0.157300 0.551110 0.519980 -0.052952
O1    O     O_R   0.431060 0.692470 0.504020 -0.648044
O2    O     O_2   0.665405 0.376132 0.191808 -0.549179
O3    O     O_2   0.340400 0.664209 0.215693 -0.481117
O4    O     O_2   0.697971 0.417785 0.783001 -0.484003
O5    O     O_R   0.568940 0.307530 0.495980 -0.646775
O6    O     O_R   0.651120 0.659650 0.491200 -0.584451
O7    O     O_R   0.348880 0.340350 0.508800 -0.578859
O8    O     O_R   0.389980 0.516390 0.577660 -0.595245
O9    O     O_R   0.610020 0.483610 0.422340 -0.592770
O10   O     O_R   0.610040 0.483570 0.564830 -0.582394
O11   O     O_R   0.389960 0.516430 0.435170 -0.600319
O12   O     O_2   0.324073 0.649820 0.807738 -0.536473
Zn1   Zn    Zn3+2 0.353060 0.521910 0.508560 0.987145
Zn2   Zn    Zn3+2 0.646940 0.478090 0.491440 0.985822

loop_
_geom_bond_atom_site_label_1
_geom_bond_atom_site_label_2
_ccdc_geom_bond_type
C21   C42   S    
C47   N4    S    
C49   C50   S    
C30   N2    A    
C28   O2    S    
C27   N1    A    
C19   C57   A    
C54   H35   S    
C44   H15   S    
C50   H21   S    
C17   O11   A    
Br5   C14   S    
O9    Zn2   S    
C16   O10   A    
C3    C36   A    
C2    C14   A    
C1    C20   S    
C26   N4    D    
C47   H20   S    
C22   H4    S    
C11   H40   S    
C49   H26   S    
C46   H10   S    
C39   H34   S    
C20   C44   S    
C17   O9    A    
C5    C8    A    
C3    C16   S    
C50   H24   S    
C3    C33   A    
C11   C14   A    
C29   O4    S    
C2    C30   A    
C8    C18   A    
C55   C57   A    
C15   C58   A    
C5    C9    A    
Br3   C35   S    
C6    C10   A    
C44   C46   S    
C29   C58   A    
C38   H23   S    
C52   H27   S    
C24   H3    S    
C31   C40   A    
C46   H11   S    
C23   C58   A    
C53   C54   S    
C43   H5    S    
C49   N3    S    
C21   C24   D    
C53   H36   S    
C7    C19   A    
C45   C56   A    
C36   C38   A    
C42   H8    S    
C30   O3    S    
C44   H14   S    
C38   C40   A    
C48   H16   S    
C39   C41   A    
C19   H2    S    
O1    Zn1   S    
C53   H37   S    
C32   C35   A    
C57   H39   S    
C54   H33   S    
C10   C23   A    
C47   C48   S    
Br6   C15   S    
C28   C55   A    
C34   C55   A    
C1    O6    A    
N4    Zn1   S    
C32   C51   S    
C50   H22   S    
C25   C26   S    
Br4   C33   S    
Br2   C37   S    
C40   N1    S    
C25   N3    D    
C37   C39   A    
C12   O7    A    
C32   C41   A    
C31   C53   S    
C54   H32   S    
C42   C43   S    
C43   H6    S    
C7    C9    A    
C43   H7    S    
C27   O12   S    
C8    C10   A    
C18   H42   S    
C46   H13   S    
C13   H41   S    
C48   H18   S    
C23   C45   A    
C16   O8    A    
C5    C11   A    
C18   C56   A    
O5    Zn2   S    
O6    Zn2   S    
C13   C15   A    
C4    C37   A    
C42   H9    S    
C52   H29   S    
C12   C21   S    
C12   O5    A    
N3    Zn2   S    
C4    C17   S    
C27   C45   A    
C20   C22   D    
C47   H19   S    
C51   H30   S    
C28   N2    A    
C22   C24   S    
O7    Zn1   S    
C31   C33   A    
C25   H12   S    
C6    C13   A    
C1    O1    A    
O8    Zn1   S    
C9    C34   A    
O11   Zn1   S    
C29   N1    A    
Br1   C36   S    
C6    C7    A    
C49   H25   S    
C41   N2    S    
C51   H31   S    
C2    C34   A    
C56   H38   S    
C51   C52   S    
C52   H28   S    
C48   H17   S    
O10   Zn2   S    
C26   H1    S    
C4    C35   A    
