data_mof_unit_45414.cif
_audit_creation_date              2012-12-11T16:51:34-0500
_audit_creation_method            fapswitch 2.2
_symmetry_space_group_name_H-M    P1
_symmetry_Int_Tables_number       1
_space_group_crystal_system       triclinic
_cell_length_a                    24.61851
_cell_length_b                    17.226636
_cell_length_c                    15.659612
_cell_angle_alpha                 89.529352
_cell_angle_beta                  129.431228
_cell_angle_gamma                 90.575159
_cell_volume                      5129.2677364

loop_
_atom_site_label
_atom_site_type_symbol
_atom_type_description
_atom_site_fract_x
_atom_site_fract_y
_atom_site_fract_z
_atom_type_partial_charge
C1    C     C_R   0.833436 0.891072 0.199467 -0.176046
C2    C     C_R   0.167692 0.899558 0.806646 -0.132331
C3    C     C_R   0.333434 0.391079 0.199463 -0.176177
C4    C     C_R   0.667692 0.399560 0.806648 -0.132257
C5    C     C_R   0.888096 0.108094 0.592044 -0.146684
C6    C     C_R   0.096642 0.137979 0.409154 -0.128260
C7    C     C_R   0.388098 0.608100 0.592045 -0.146684
C8    C     C_R   0.596644 0.637976 0.409154 -0.128264
C9    C     C_R   0.821792 0.127744 0.499783 0.073307
C10   C     C_R   0.150172 0.178620 0.502299 0.055367
C11   C     C_R   0.321795 0.627752 0.499783 0.073299
C12   C     C_R   0.650177 0.678614 0.502300 0.055384
C13   C     C_R   0.877719 0.178243 0.199225 0.139591
C14   C     C_R   0.123000 0.174199 0.807419 0.151096
C15   C     C_R   0.377718 0.678242 0.199224 0.139587
C16   C     C_R   0.622998 0.674201 0.807416 0.151120
C17   C     C_R   0.786334 0.829912 0.608657 0.139534
C18   C     C_R   0.158857 0.691556 0.444399 0.128980
C19   C     C_R   0.286325 0.329923 0.608654 0.139550
C20   C     C_R   0.658844 0.191559 0.444367 0.128968
C21   C     C_R   0.763235 0.864048 0.509818 0.066878
C22   C     C_R   0.182770 0.762682 0.498697 0.054705
C23   C     C_R   0.263231 0.364048 0.509812 0.066877
C24   C     C_R   0.682765 0.262673 0.498699 0.054694
C25   C     C_R   0.692822 0.854906 0.414500 -0.194695
C26   C     C_R   0.254174 0.782817 0.565030 -0.137068
C27   C     C_R   0.192819 0.354905 0.414491 -0.194707
C28   C     C_R   0.754175 0.282790 0.565063 -0.137084
C29   C     C_R   0.152376 0.296454 0.411818 -0.224188
C30   C     C_R   0.799983 0.234905 0.569468 -0.244341
C31   C     C_R   0.652381 0.796452 0.411824 -0.224200
C32   C     C_R   0.299984 0.734935 0.569434 -0.244339
C33   C     C_R   0.181369 0.251534 0.506852 0.060787
C34   C     C_R   0.774036 0.168636 0.503569 0.038518
C35   C     C_R   0.681377 0.751525 0.506854 0.060772
C36   C     C_R   0.274042 0.668650 0.503566 0.038508
C37   C     C_R   0.245281 0.273524 0.607071 0.103019
C38   C     C_R   0.704352 0.144902 0.445585 0.143055
C39   C     C_R   0.745292 0.773509 0.607072 0.103064
C40   C     C_R   0.204365 0.644901 0.445616 0.143045
C41   C     C_3   0.753783 0.810184 0.700960 -0.466182
C42   C     C_3   0.149043 0.621934 0.327494 -0.476520
C43   C     C_3   0.253762 0.310214 0.700944 -0.466167
C44   C     C_3   0.649037 0.121960 0.327450 -0.476594
C45   C     C_R   0.087676 0.857816 0.405818 -0.201825
C46   C     C_R   0.886642 0.898044 0.593083 -0.220425
C47   C     C_R   0.587676 0.357816 0.405816 -0.201820
C48   C     C_R   0.386641 0.398043 0.593082 -0.220423
C49   C     C_3   0.797937 0.871700 0.702338 -0.454290
C50   C     C_3   0.098815 0.673255 0.326352 -0.492628
C51   C     C_3   0.297919 0.371724 0.702320 -0.454263
C52   C     C_3   0.598809 0.173282 0.326307 -0.492532
C53   C     C_2   0.192135 0.853118 0.983693 0.515291
C54   C     C_2   0.809093 0.837951 0.026864 0.529454
C55   C     C_2   0.692135 0.353118 0.983693 0.515287
C56   C     C_2   0.309095 0.337948 0.026870 0.529453
C57   C     C_2   0.262193 0.849656 0.041708 -0.341421
C58   C     C_2   0.739012 0.843707 0.964364 -0.282551
C59   C     C_2   0.762193 0.349658 0.041710 -0.341406
C60   C     C_2   0.239012 0.343703 0.964364 -0.282694
C61   C     C_2   0.852022 0.251095 0.137077 -0.241987
C62   C     C_2   0.149299 0.245341 0.872124 -0.265802
C63   C     C_2   0.352022 0.751094 0.137075 -0.241975
C64   C     C_2   0.649298 0.745342 0.872124 -0.265791
C65   C     C_2   0.803759 0.292746 0.130265 -0.024387
C66   C     C_2   0.194330 0.290157 0.873455 -0.055046
C67   C     C_2   0.303759 0.792744 0.130262 -0.024405
C68   C     C_2   0.694328 0.790161 0.873454 -0.054885
C69   C     C_R   0.158207 0.854004 0.590287 0.516434
C70   C     C_R   0.813008 0.893515 0.410176 0.522196
C71   C     C_R   0.658202 0.354001 0.590283 0.516433
C72   C     C_R   0.313008 0.393513 0.410174 0.522204
C73   C     C_R   0.075578 0.894103 0.802165 -0.081544
C74   C     C_R   0.924224 0.891134 0.199617 -0.102172
C75   C     C_R   0.575578 0.394103 0.802164 -0.081550
C76   C     C_R   0.424223 0.391132 0.199617 -0.101972
C77   C     C_R   0.854384 0.870147 0.139087 -0.078738
C78   C     C_R   0.146807 0.879666 0.867982 -0.047667
C79   C     C_R   0.354381 0.370155 0.139083 -0.078595
C80   C     C_R   0.646807 0.379667 0.867983 -0.047696
C81   C     C_R   0.137489 0.814261 0.496921 -0.127900
C82   C     C_R   0.817802 0.883018 0.502702 -0.103128
C83   C     C_R   0.637487 0.314259 0.496918 -0.127891
C84   C     C_R   0.317801 0.383016 0.502699 -0.103139
C85   C     C_R   0.813118 0.107448 0.407497 -0.127861
C86   C     C_R   0.170984 0.136077 0.593180 -0.126636
C87   C     C_R   0.313119 0.607453 0.407497 -0.127855
C88   C     C_R   0.670988 0.636072 0.593181 -0.126645
C89   C     C_R   0.935510 0.136136 0.229704 -0.139500
C90   C     C_R   0.061737 0.135325 0.767423 -0.148106
C91   C     C_R   0.435510 0.636136 0.229704 -0.139512
C92   C     C_R   0.561736 0.635326 0.767423 -0.148148
C93   C     C_R   0.154926 0.134048 0.773488 -0.140864
C94   C     C_R   0.848086 0.138230 0.237591 -0.113358
C95   C     C_R   0.654924 0.634051 0.773483 -0.140744
C96   C     C_R   0.348086 0.638229 0.237589 -0.113356
H1    H     H_    0.780410 0.894484 0.169816 0.156545
H2    H     H_    0.220983 0.908201 0.838067 0.151739
H3    H     H_    0.280407 0.394493 0.169813 0.156573
H4    H     H_    0.720983 0.408203 0.838070 0.151735
H5    H     H_    0.100804 0.283678 0.334589 0.130885
H6    H     H_    0.854527 0.252794 0.617509 0.142443
H7    H     H_    0.600807 0.783678 0.334597 0.130888
H8    H     H_    0.354523 0.752833 0.617452 0.142446
H9    H     H_    0.703473 0.832686 0.676641 0.194290
H10   H     H_    0.159198 0.644080 0.271976 0.191732
H11   H     H_    0.203449 0.332719 0.676610 0.194301
H12   H     H_    0.659206 0.144116 0.271953 0.191738
H13   H     H_    0.784323 0.772841 0.775804 0.221701
H14   H     H_    0.135566 0.559153 0.318695 0.196749
H15   H     H_    0.284298 0.272880 0.775797 0.221586
H16   H     H_    0.635547 0.059181 0.318620 0.196761
H17   H     H_    0.773550 0.930243 0.678662 0.192465
H18   H     H_    0.080741 0.724224 0.270466 0.198522
H19   H     H_    0.273531 0.430266 0.678627 0.192451
H20   H     H_    0.580751 0.224262 0.270441 0.198541
H21   H     H_    0.853964 0.870402 0.778515 0.193416
H22   H     H_    0.056397 0.640111 0.317148 0.188768
H23   H     H_    0.353944 0.370430 0.778504 0.193449
H24   H     H_    0.556379 0.140141 0.317072 0.188793
H25   H     H_    0.787147 0.276584 0.177681 0.151007
H26   H     H_    0.207800 0.276659 0.821588 0.157557
H27   H     H_    0.287146 0.776581 0.177677 0.151002
H28   H     H_    0.707796 0.776664 0.821584 0.157579
H29   H     H_    0.287081 0.877892 0.012278 0.114559
H30   H     H_    0.715043 0.875837 0.991924 0.113045
H31   H     H_    0.787082 0.377896 0.012283 0.114568
H32   H     H_    0.215041 0.375835 0.991918 0.113105
H33   H     H_    0.869547 0.267949 0.091081 0.140541
H34   H     H_    0.135798 0.257998 0.924504 0.146060
H35   H     H_    0.369548 0.767948 0.091081 0.140539
H36   H     H_    0.635799 0.757998 0.924507 0.146043
H37   H     H_    0.063880 0.846904 0.320714 0.127139
H38   H     H_    0.907618 0.903839 0.677889 0.131923
H39   H     H_    0.563881 0.346906 0.320713 0.127165
H40   H     H_    0.407616 0.403838 0.677887 0.131927
H41   H     H_    0.044492 0.894877 0.828948 0.105255
H42   H     H_    0.953447 0.892999 0.169564 0.111747
H43   H     H_    0.544490 0.394875 0.828946 0.105254
H44   H     H_    0.453449 0.392984 0.169569 0.111808
H45   H     H_    0.765348 0.107799 0.322635 0.102857
H46   H     H_    0.216397 0.146573 0.677685 0.092597
H47   H     H_    0.265350 0.607807 0.322635 0.102847
H48   H     H_    0.716402 0.646565 0.677685 0.092600
H49   H     H_    0.965268 0.147609 0.202240 0.090964
H50   H     H_    0.025506 0.149246 0.781867 0.097315
H51   H     H_    0.465270 0.647609 0.202242 0.090967
H52   H     H_    0.525506 0.649245 0.781868 0.097324
H53   H     H_    0.207458 0.143408 0.802312 0.092663
H54   H     H_    0.800401 0.151401 0.224040 0.099866
H55   H     H_    0.707452 0.643415 0.802300 0.092606
H56   H     H_    0.300400 0.651399 0.224036 0.099863
H57   H     H_    0.908500 0.108431 0.676888 0.096212
H58   H     H_    0.074779 0.150362 0.325468 0.088447
H59   H     H_    0.408502 0.608440 0.676888 0.096216
H60   H     H_    0.574782 0.650359 0.325468 0.088448
H61   H     H_    0.671541 0.886161 0.339188 0.181865
H62   H     H_    0.274109 0.837195 0.609761 0.163523
H63   H     H_    0.171539 0.386155 0.339176 0.181870
H64   H     H_    0.774116 0.337159 0.609817 0.163540
N1    N     N_R   0.888400 0.921830 0.294620 -0.034222
N2    N     N_R   0.111600 0.921830 0.705380 -0.045633
N3    N     N_R   0.388400 0.421830 0.294620 -0.034224
N4    N     N_R   0.611600 0.421830 0.705380 -0.045635
N5    N     N_R   0.079940 0.922160 0.443410 -0.068414
N6    N     N_R   0.920060 0.922160 0.556590 -0.067372
N7    N     N_R   0.579940 0.422160 0.443410 -0.068422
N8    N     N_R   0.420060 0.422160 0.556590 -0.067372
N9    N     N_R   0.125650 0.922400 0.556620 -0.084760
N10   N     N_R   0.874350 0.922400 0.443380 -0.089260
N11   N     N_R   0.625650 0.422400 0.556620 -0.084763
N12   N     N_R   0.374350 0.422400 0.443380 -0.089256
N13   N     N_R   0.054230 0.922730 0.705400 -0.049912
N14   N     N_R   0.945770 0.922730 0.294600 -0.040796
N15   N     N_R   0.554230 0.422730 0.705400 -0.049912
N16   N     N_R   0.445770 0.422730 0.294600 -0.040841
N17   N     N_R   0.873790 0.077030 0.443380 -0.042228
N18   N     N_R   0.126210 0.077030 0.556620 -0.040980
N19   N     N_R   0.373790 0.577030 0.443380 -0.042227
N20   N     N_R   0.626210 0.577030 0.556620 -0.040984
N21   N     N_R   0.945200 0.076700 0.294600 -0.041173
N22   N     N_R   0.054800 0.076700 0.705400 -0.041855
N23   N     N_R   0.445200 0.576700 0.294600 -0.041176
N24   N     N_R   0.554800 0.576700 0.705400 -0.041856
N25   N     N_R   0.111030 0.077600 0.705380 -0.041939
N26   N     N_R   0.888970 0.077600 0.294620 -0.043216
N27   N     N_R   0.611030 0.577600 0.705380 -0.041959
N28   N     N_R   0.388970 0.577600 0.294620 -0.043213
N29   N     N_R   0.919490 0.077280 0.556590 -0.037583
N30   N     N_R   0.080510 0.077280 0.443410 -0.039592
N31   N     N_R   0.419490 0.577280 0.556590 -0.037583
N32   N     N_R   0.580510 0.577280 0.443410 -0.039591
Ni1   Ni    Ni4+2 0.882160 0.999430 0.370180 0.240934
Ni2   Ni    Ni4+2 0.117840 0.999430 0.629820 0.222407
Ni3   Ni    Ni4+2 0.382160 0.499430 0.370180 0.240932
Ni4   Ni    Ni4+2 0.617840 0.499430 0.629820 0.222398
Ni5   Ni    Ni4+2 0.012460 0.999430 0.370180 0.201609
Ni6   Ni    Ni4+2 0.987540 0.999430 0.629820 0.191437
Ni7   Ni    Ni4+2 0.512460 0.499430 0.370180 0.201600
Ni8   Ni    Ni4+2 0.487540 0.499430 0.629820 0.191439
O1    O     O_3   0.160766 0.814964 0.020886 -0.618208
C97   C     C_3   0.158708 0.866189 0.088671 0.255545
H65   H     H_    0.123849 0.916340 0.039440 0.078046
H66   H     H_    0.212263 0.888170 0.158533 0.087007
C98   C     C_3   0.129599 0.823180 0.137336 -0.901594
H67   H     H_    0.164120 0.773508 0.188403 0.251586
H68   H     H_    0.127288 0.862985 0.190379 0.207881
H69   H     H_    0.075770 0.801115 0.070007 0.257860
O2    O     O_3   0.838260 0.798371 0.987733 -0.636205
C99   C     C_3   0.868280 0.728396 0.047618 0.248305
H70   H     H_    0.829446 0.693422 0.046468 0.093164
H71   H     H_    0.915427 0.740096 0.134736 0.099440
C100  C     C_3   0.891457 0.680344 0.994863 -0.922482
H72   H     H_    0.929254 0.714098 0.992698 0.264043
H73   H     H_    0.917451 0.626519 0.043756 0.219426
H74   H     H_    0.845159 0.664097 0.909278 0.240665
O3    O     O_3   0.660767 0.314958 0.020885 -0.618206
C101  C     C_3   0.658687 0.366189 0.088642 0.255599
H75   H     H_    0.623814 0.416325 0.039388 0.078046
H76   H     H_    0.712234 0.388191 0.158502 0.087001
C102  C     C_3   0.629582 0.323175 0.137311 -0.901660
H77   H     H_    0.664127 0.273529 0.188422 0.251578
H78   H     H_    0.627238 0.362988 0.190312 0.207884
H79   H     H_    0.575768 0.301073 0.069985 0.257864
O4    O     O_3   0.338277 0.298362 0.987771 -0.636128
C103  C     C_3   0.368168 0.228320 0.047539 0.247862
H80   H     H_    0.329136 0.193257 0.045777 0.093351
H81   H     H_    0.415109 0.239905 0.134855 0.099369
C104  C     C_3   0.391752 0.180474 0.995215 -0.922087
H82   H     H_    0.429846 0.214295 0.993832 0.263929
H83   H     H_    0.417532 0.126532 0.043922 0.219321
H84   H     H_    0.345685 0.164429 0.909368 0.240822
O5    O     O_3   0.215759 0.837230 0.698566 -0.658941
C105  C     C_3   0.209411 0.761195 0.726876 0.253533
H85   H     H_    0.199199 0.716122 0.668002 0.093813
H86   H     H_    0.165970 0.758515 0.731001 0.109343
C106  C     C_3   0.277828 0.739908 0.839293 -0.902272
H87   H     H_    0.291881 0.785161 0.900149 0.252497
H88   H     H_    0.272002 0.683248 0.867154 0.220522
H89   H     H_    0.320711 0.735686 0.834244 0.252077
O6    O     O_3   0.752879 0.889905 0.301221 -0.655139
C107  C     C_3   0.739316 0.810847 0.269248 0.215310
H90   H     H_    0.738102 0.773729 0.326592 0.105115
H91   H     H_    0.780419 0.787481 0.267130 0.094426
C108  C     C_3   0.668122 0.803443 0.154451 -0.927304
H92   H     H_    0.666830 0.839579 0.094208 0.251091
H93   H     H_    0.658250 0.741939 0.127322 0.210137
H94   H     H_    0.625819 0.822773 0.155897 0.255148
O7    O     O_3   0.715742 0.337214 0.698565 -0.658947
C109  C     C_3   0.709373 0.261179 0.726853 0.253519
H95   H     H_    0.699161 0.216110 0.667975 0.093818
H96   H     H_    0.665923 0.258510 0.730956 0.109347
C110  C     C_3   0.777777 0.239875 0.839276 -0.902249
H97   H     H_    0.791825 0.285120 0.900139 0.252505
H98   H     H_    0.771935 0.183213 0.867111 0.220523
H99   H     H_    0.820670 0.235652 0.834250 0.252075
O8    O     O_3   0.252880 0.389903 0.301219 -0.655138
C111  C     C_3   0.239319 0.310845 0.269246 0.215306
H100  H     H_    0.238104 0.273726 0.326590 0.105112
H101  H     H_    0.280422 0.287481 0.267129 0.094426
C112  C     C_3   0.168125 0.303439 0.154448 -0.927316
H102  H     H_    0.166833 0.339576 0.094206 0.251092
H103  H     H_    0.158255 0.241936 0.127320 0.210132
H104  H     H_    0.125821 0.322768 0.155893 0.255150

loop_
_geom_bond_atom_site_label_1
_geom_bond_atom_site_label_2
_ccdc_geom_bond_type
N29   Ni6   S    
C25   C31   A    
C49   H17   S    
C88   H48   S    
C26   C32   A    
C48   C84   A    
C55   C80   S    
C91   N23   A    
N27   Ni4   S    
C92   H52   S    
C1    C77   A    
O1    C97   S    
C96   N28   A    
N26   Ni1   S    
C93   H53   S    
N22   Ni6   S    
C76   C79   A    
C28   H64   S    
N25   Ni2   S    
N21   Ni5   S    
C2    N2    A    
C91   H51   S    
C45   N5    A    
C95   N27   A    
C6    N30   A    
C39   C41   S    
N2    N13   A    
N19   Ni3   S    
C100  H72   S    
C7    C11   A    
C74   H42   S    
C86   H46   S    
O7    C109  S    
C104  H82   S    
C56   C79   S    
C97   H66   S    
C56   O4    S    
C72   N12   A    
C11   C36   S    
N19   N31   A    
C24   C83   S    
C74   N14   A    
C102  H79   S    
C55   C59   D    
C70   O6    S    
C57   H29   S    
C110  H97   S    
N18   N30   A    
C100  H74   S    
C27   C29   A    
C4    N4    A    
C27   H63   S    
C14   C62   S    
C106  H88   S    
C29   C33   A    
C86   N18   A    
C20   C38   A    
N4    N15   A    
C109  H95   S    
O8    C111  S    
C17   C39   A    
N32   Ni7   S    
C18   C40   A    
C14   C90   A    
C69   O5    S    
C19   C37   A    
C9    C85   A    
C46   C82   A    
C101  H76   S    
C89   N21   A    
C54   O2    S    
C49   H21   S    
C90   N22   A    
N28   Ni3   S    
C11   C87   A    
N24   Ni8   S    
C97   C98   S    
C51   H23   S    
C73   C78   A    
C66   H26   S    
C26   H62   S    
C63   H35   S    
C46   N6    A    
C75   C80   A    
C14   C93   A    
N20   Ni4   S    
C3    N3    A    
C54   C77   S    
C47   H39   S    
C44   C52   S    
C109  C110  S    
C40   C42   S    
C32   C36   A    
C3    C79   A    
C72   O8    S    
C50   H22   S    
C108  H92   S    
C73   N13   A    
C7    N31   A    
C19   C51   S    
C105  H86   S    
C57   C67   S    
C1    N1    A    
C70   C82   A    
N3    N16   A    
C41   C49   S    
C94   N26   A    
C44   H16   S    
C38   C44   S    
C88   N20   A    
C71   C83   A    
C23   C27   A    
C44   H12   S    
N5    N9    A    
C63   C67   D    
C107  C108  S    
N17   N29   A    
C97   H65   S    
C30   C34   A    
C75   N15   A    
C22   C81   S    
C64   H36   S    
C36   C40   A    
C76   N16   A    
C69   C81   A    
N31   Ni8   S    
C55   O3    S    
C23   C84   S    
C17   C49   S    
C15   C96   A    
C112  H103  S    
C53   C57   D    
C19   C23   A    
C34   C38   A    
C43   H11   S    
O3    C101  S    
C98   H67   S    
C87   N19   A    
C74   C77   A    
C51   H19   S    
C56   C60   D    
C50   H18   S    
C105  C106  S    
C31   H7    S    
C37   C43   S    
C89   H49   S    
C17   C21   A    
N6    Ni6   S    
C5    C9    A    
C102  H77   S    
C2    C78   A    
N5    Ni5   S    
C46   H38   S    
C47   N7    A    
C107  H91   S    
O2    C99   S    
C48   N8    A    
N3    Ni3   S    
C8    C12   A    
C12   C88   A    
C68   H28   S    
C30   H6    S    
C32   H8    S    
O4    C103  S    
N30   Ni5   S    
C29   H5    S    
C69   N9    A    
C12   C35   S    
C7    H59   S    
C42   H10   S    
C72   C84   A    
C41   H9    S    
C42   C50   S    
C60   C66   S    
C85   H45   S    
C52   H24   S    
C58   C68   S    
C102  H78   S    
C16   C92   A    
C65   H25   S    
C108  H93   S    
N20   N32   A    
C9    C34   S    
C71   N11   A    
C106  H89   S    
C111  C112  S    
C95   H55   S    
C105  H85   S    
C76   H44   S    
C1    H1    S    
C103  C104  S    
C64   C68   D    
C111  H101  S    
C90   H50   S    
C18   C50   S    
C101  C102  S    
C110  H98   S    
C54   C58   D    
C98   H69   S    
C52   H20   S    
C21   C25   A    
C10   C86   A    
C16   C95   A    
C15   C63   S    
N18   Ni2   S    
C13   C89   A    
N13   Ni6   S    
C18   C22   A    
C45   H37   S    
C53   O1    S    
C48   H40   S    
C4    C80   A    
N8    Ni8   S    
C92   N24   A    
C24   C28   A    
C60   H32   S    
N11   Ni4   S    
N2    Ni2   S    
C67   H27   S    
C6    C10   A    
C112  H104  S    
N7    N11   A    
N21   N26   A    
N4    Ni4   S    
C59   H31   S    
C58   H30   S    
N9    Ni2   S    
C61   H33   S    
C104  H84   S    
C99   C100  S    
C16   C64   S    
N17   Ni1   S    
C99   H71   S    
C62   H34   S    
N24   N27   A    
C13   C94   A    
C20   C52   S    
C20   C24   A    
C110  H99   S    
C4    H4    S    
C53   C78   S    
C42   H14   S    
C100  H73   S    
C5    N29   A    
C104  H83   S    
C75   H43   S    
N23   N28   A    
C59   C65   S    
C25   H61   S    
N1    N14   A    
C6    H58   S    
C43   C51   S    
C101  H75   S    
C112  H102  S    
C73   H41   S    
C8    N32   A    
O6    C107  S    
C5    H57   S    
C35   C39   A    
C107  H90   S    
C31   C35   A    
C28   C30   A    
N6    N10   A    
C71   O7    S    
C111  H100  S    
C10   C33   S    
C45   C81   A    
C99   H70   S    
C61   C65   D    
C70   N10   A    
C8    H60   S    
C33   C37   A    
N15   Ni8   S    
N14   Ni5   S    
C62   C66   D    
N1    Ni1   S    
C15   C91   A    
C47   C83   A    
C43   H15   S    
C3    H3    S    
C94   H54   S    
N8    N12   A    
C13   C61   S    
C21   C82   S    
C2    H2    S    
C85   N17   A    
C103  H80   S    
C22   C26   A    
C108  H94   S    
N23   Ni7   S    
N7    Ni7   S    
N12   Ni3   S    
C41   H13   S    
N16   Ni7   S    
C87   H47   S    
C106  H87   S    
C98   H68   S    
C109  H96   S    
N22   N25   A    
C103  H81   S    
N10   Ni1   S    
O5    C105  S    
C93   N25   A    
C96   H56   S    
