data_mof_unit_27684.cif
_audit_creation_date              2012-12-10T17:51:25-0500
_audit_creation_method            fapswitch 2.2
_symmetry_space_group_name_H-M    P1
_symmetry_Int_Tables_number       1
_space_group_crystal_system       triclinic
_cell_length_a                    9.871617
_cell_length_b                    10.728011
_cell_length_c                    16.626995
_cell_angle_alpha                 91.732348
_cell_angle_beta                  85.220491
_cell_angle_gamma                 89.358328
_cell_volume                      1753.75430439

loop_
_atom_site_label
_atom_site_type_symbol
_atom_type_description
_atom_site_fract_x
_atom_site_fract_y
_atom_site_fract_z
_atom_type_partial_charge
C1    C     C_R   0.498881 0.740147 0.494926 0.869606
C2    C     C_R   0.348680 0.574290 0.778783 -0.243994
C3    C     C_R   0.431786 0.674865 0.164195 -0.159442
C4    C     C_R   0.420426 0.621495 0.239194 -0.210037
C5    C     C_R   0.651006 0.539492 0.215595 -0.199102
C6    C     C_R   0.661524 0.591375 0.139630 -0.171846
C7    C     C_R   0.550361 0.655660 0.112719 0.205403
C8    C     C_2   0.443442 0.649586 0.987210 -0.215727
C9    C     C_2   0.551707 0.680575 0.026756 -0.248849
C10   C     C_R   0.528808 0.551220 0.264690 -0.035195
C11   C     C_R   0.240840 0.891664 0.482865 -0.165013
C12   C     C_R   0.481344 0.500969 0.653885 0.840514
C13   C     C_R   0.119666 0.954259 0.508724 -0.142564
C14   C     C_R   0.123215 0.067323 0.551360 -0.157924
C15   C     C_R   0.247760 0.123366 0.560781 -0.157467
C16   C     C_R   0.370821 0.065730 0.527711 0.099879
C17   C     C_R   0.368329 0.941582 0.500131 0.097612
C18   C     C_R   0.493937 0.874057 0.491605 -0.121363
C19   C     C_R   0.617679 0.935807 0.493162 -0.220117
C20   C     C_R   0.618770 0.062715 0.503473 -0.221755
C21   C     C_R   0.496176 0.128560 0.518305 -0.135937
C22   C     C_R   0.843145 0.664239 0.606098 -0.126050
C23   C     C_R   0.498985 0.261045 0.508203 0.884632
C24   C     C_R   0.905637 0.744408 0.658442 -0.213723
C25   C     C_R   0.045752 0.743703 0.658575 -0.201997
C26   C     C_R   0.124114 0.663226 0.606087 -0.169983
C27   C     C_R   0.064267 0.580694 0.552264 0.148260
C28   C     C_R   0.919432 0.580881 0.552248 0.166548
C29   C     C_R   0.936299 0.422282 0.450289 -0.132727
C30   C     C_R   0.079686 0.422322 0.450304 -0.122119
C31   C     C_R   0.518637 0.506985 0.346845 0.864953
C32   C     C_R   0.470282 0.522479 0.741568 -0.117711
C33   C     C_R   0.584678 0.507749 0.786575 0.205173
C34   C     C_R   0.575726 0.552359 0.866830 -0.182112
C35   C     C_R   0.456337 0.611178 0.901758 0.154507
C36   C     C_R   0.341938 0.618287 0.858250 -0.183017
H1    H     H_    0.753662 0.575755 0.100284 0.121069
H2    H     H_    0.714478 0.886374 0.485416 0.169936
H3    H     H_    0.232057 0.806846 0.447215 0.166058
H4    H     H_    0.023020 0.913636 0.497079 0.141442
H5    H     H_    0.029486 0.113607 0.574764 0.137272
H6    H     H_    0.246686 0.211371 0.594366 0.158487
H7    H     H_    0.715897 0.109184 0.498392 0.168487
H8    H     H_    0.888622 0.358892 0.409769 0.144469
H9    H     H_    0.735259 0.670565 0.610066 0.208114
H10   H     H_    0.844748 0.807329 0.699237 0.151013
H11   H     H_    0.327279 0.636888 0.277653 0.154204
H12   H     H_    0.094291 0.806341 0.699253 0.154304
H13   H     H_    0.231009 0.668964 0.609210 0.209750
H14   H     H_    0.140298 0.358884 0.409829 0.155501
H15   H     H_    0.737077 0.488784 0.235411 0.146603
H16   H     H_    0.649389 0.696002 0.993695 0.146120
H17   H     H_    0.247576 0.659045 0.885648 0.133345
H18   H     H_    0.346217 0.727355 0.145356 0.127064
H19   H     H_    0.259610 0.585030 0.745748 0.168729
H20   H     H_    0.345572 0.633685 0.019919 0.149621
H21   H     H_    0.659703 0.536859 0.903164 0.140732
N1    N     N_R   0.857140 0.501200 0.500750 -0.119170
N2    N     N_R   0.142740 0.501280 0.500770 -0.124705
O1    O     O_R   0.385310 0.683220 0.500000 -0.651818
O2    O     O_R   0.614640 0.683250 0.500010 -0.639241
O3    O     O_R   0.371780 0.500010 0.615800 -0.639688
O4    O     O_R   0.601110 0.500030 0.615800 -0.613624
O5    O     O_R   0.385360 0.316750 0.499990 -0.617796
O6    O     O_R   0.614690 0.316780 0.500000 -0.618111
O7    O     O_R   0.398890 0.499970 0.384200 -0.616860
O8    O     O_R   0.628220 0.499990 0.384200 -0.610530
Zn1   Zn    Zn3+2 0.346870 0.499980 0.499990 0.918098
Zn2   Zn    Zn3+2 0.653130 0.500020 0.500010 0.934513
N3    N     N_2   0.704875 0.445193 0.750930 -0.284407
H22   H     H_    0.690037 0.357564 0.726208 0.224681
C37   C     C_3   0.833812 0.462891 0.784970 -0.794861
H23   H     H_    0.917302 0.428146 0.740808 0.245247
H24   H     H_    0.836931 0.409641 0.841042 0.225595
H25   H     H_    0.850618 0.563556 0.797677 0.249042

loop_
_geom_bond_atom_site_label_1
_geom_bond_atom_site_label_2
_ccdc_geom_bond_type
C31   O7    A    
O7    Zn1   S    
C16   C21   A    
C35   C36   A    
C8    H20   S    
C31   O8    A    
C1    C18   S    
O5    Zn1   S    
C18   C19   A    
C3    C7    A    
C2    H19   S    
C5    C6    A    
C3    H18   S    
O2    Zn2   S    
C15   C16   A    
C2    C32   A    
C34   C35   A    
C13   H4    S    
C36   H17   S    
C10   C31   S    
C19   C20   A    
C8    C9    D    
C34   H21   S    
N3    H22   S    
C30   H14   S    
C22   C28   A    
C13   C14   A    
C12   C32   S    
C9    H16   S    
C37   H25   S    
C33   C34   A    
O4    Zn2   S    
C24   C25   A    
C37   H24   S    
C1    O1    A    
C12   O4    A    
C16   C17   A    
C25   C26   A    
O8    Zn2   S    
C8    C35   S    
C29   C30   A    
C19   H2    S    
N2    Zn1   S    
C12   O3    A    
C30   N2    A    
C17   C18   A    
C26   C27   A    
C6    H1    S    
C20   C21   A    
C11   H3    S    
C25   H12   S    
C33   N3    S    
C14   H5    S    
C23   O5    A    
C21   C23   S    
C29   H8    S    
C22   C24   A    
C26   H13   S    
C4    C10   A    
C3    C4    A    
C20   H7    S    
C2    C36   A    
C7    C9    S    
C11   C17   A    
C15   H6    S    
C37   H23   S    
C1    O2    A    
N1    Zn2   S    
C6    C7    A    
C28   N1    A    
O3    Zn1   S    
C24   H10   S    
C32   C33   A    
C23   O6    A    
C5    C10   A    
C27   N2    A    
C11   C13   A    
O6    Zn2   S    
C22   H9    S    
C29   N1    A    
O1    Zn1   S    
C27   C28   A    
C14   C15   A    
C5    H15   S    
N3    C37   S    
C4    H11   S    
