data_mof_unit_59295.cif
_audit_creation_date              2012-12-11T15:13:49-0500
_audit_creation_method            fapswitch 2.2
_symmetry_space_group_name_H-M    P1
_symmetry_Int_Tables_number       1
_space_group_crystal_system       triclinic
_cell_length_a                    6.980422
_cell_length_b                    13.74443
_cell_length_c                    20.047153
_cell_angle_alpha                 104.006012
_cell_angle_beta                  91.007873
_cell_angle_gamma                 90.450875
_cell_volume                      1865.74696801

loop_
_atom_site_label
_atom_site_type_symbol
_atom_type_description
_atom_site_fract_x
_atom_site_fract_y
_atom_site_fract_z
_atom_type_partial_charge
O1    O     O_R   0.506780 0.600060 0.449950 -0.560849
O2    O     O_R   0.179840 0.597110 0.589410 -0.558019
O3    O     O_R   0.004570 0.399940 0.550050 -0.541389
C1    C     C_R   0.349879 0.620459 0.615903 0.760950
O4    O     O_R   0.177380 0.612160 0.452890 -0.537728
O5    O     O_R   0.002100 0.415100 0.412560 -0.539669
C2    C     C_R   0.346005 0.639606 0.437467 0.806984
O6    O     O_R   0.509250 0.584900 0.587440 -0.551148
O7    O     O_3   0.337570 0.435330 0.486930 -0.375335
V1    V     V_3+5 0.064650 0.512000 0.502430 1.402747
O8    O     O_R   0.672090 0.402890 0.410590 -0.555118
C3    C     C_R   0.837859 0.381900 0.382765 0.697039
O9    O     O_R   0.674540 0.387840 0.547110 -0.527299
C4    C     C_R   0.843047 0.362010 0.563676 0.719327
V2    V     V_3+5 0.564040 0.488000 0.497570 1.395239
O10   O     O_3   0.840990 0.564670 0.513070 -0.393713
C5    C     C_R   0.858718 0.119149 0.613663 -0.126207
C6    C     C_R   0.848728 0.291789 0.607603 -0.111451
C7    C     C_R   0.881777 0.318422 0.937958 -0.140377
C8    C     C_R   0.877471 0.395914 0.904684 -0.132111
C9    C     C_R   0.849305 0.375590 0.833631 -0.137466
C10   C     C_R   0.823303 0.276418 0.793337 0.102236
C11   C     C_R   0.820103 0.197998 0.828533 0.069635
C12   C     C_R   0.817145 0.251022 0.719408 -0.000961
C13   C     C_R   0.826673 0.147899 0.684338 0.088506
C14   C     C_R   0.801545 0.073693 0.719978 -0.150567
C15   C     C_R   0.790614 0.098959 0.790890 -0.211532
C16   C     C_R   0.806764 0.322903 0.678853 0.382476
C17   C     C_R   0.879034 0.191067 0.576346 -0.232102
C18   C     C_R   0.853947 0.219505 0.900551 -0.074302
C19   C     C_3   0.719843 0.176707 0.240981 -0.168043
C20   C     C_3   0.871886 0.197119 0.300142 -0.238783
C21   C     C_3   0.839093 0.310757 0.312290 -0.072839
C22   C     C_3   0.683226 0.290817 0.254569 -0.080265
C23   C     C_3   0.837228 0.298750 0.201469 -0.200524
C24   C     C_3   0.992491 0.319814 0.259786 -0.190199
C25   C     C_3   0.025779 0.206457 0.247944 0.541243
C26   C     C_3   0.874519 0.185305 0.188909 -0.086460
H1    H     H_    0.822236 0.341114 0.161053 0.127772
H2    H     H_    0.103786 0.379093 0.266435 0.135320
C27   C     C_3   0.539470 0.744220 0.724047 -0.221664
C28   C     C_3   0.430516 0.845099 0.745996 -0.216817
H3    H     H_    0.487164 0.919906 0.743825 0.138625
H4    H     H_    0.683315 0.730177 0.702342 0.152768
C29   C     C_3   0.360028 0.815370 0.811461 -0.197627
C30   C     C_3   0.473460 0.716310 0.790592 -0.174726
C31   C     C_3   0.293042 0.666240 0.751408 0.413675
C32   C     C_3   0.181817 0.764980 0.771621 0.337310
C33   C     C_3   0.250490 0.793215 0.706161 0.387608
C34   C     C_3   0.359133 0.693392 0.684943 -0.217637
C35   C     C_R   0.359612 0.888227 0.390804 0.401189
C36   C     C_R   0.355509 0.714008 0.396223 -0.294787
C37   C     C_R   0.404844 0.683027 0.064218 0.365667
C38   C     C_R   0.417035 0.607227 0.099603 0.395035
C39   C     C_R   0.411850 0.632225 0.171349 -0.288531
C40   C     C_R   0.365288 0.729223 0.209569 0.095305
C41   C     C_R   0.343955 0.805157 0.172807 -0.018089
C42   C     C_R   0.353880 0.754902 0.283383 -0.018564
C43   C     C_R   0.346095 0.857904 0.318314 -0.115487
C44   C     C_R   0.318666 0.929989 0.280611 -0.123344
C45   C     C_R   0.314520 0.904430 0.209487 -0.157963
C46   C     C_R   0.342976 0.682453 0.323449 0.339087
C47   C     C_R   0.369098 0.816383 0.429576 0.309321
C48   C     C_R   0.363302 0.781457 0.100314 -0.253078
H5    H     H_    0.294712 0.964343 0.183662 0.147481
O11   O     O_R   0.203580 0.914920 0.912610 -0.533682
O12   O     O_R   0.535710 0.887810 0.047120 -0.549284
O13   O     O_R   0.710730 0.084950 0.087430 -0.536733
C49   C     C_R   0.367545 0.860702 0.062809 0.782091
O14   O     O_R   0.533010 0.902850 0.910600 -0.553923
O15   O     O_R   0.708010 0.100090 0.949930 -0.543395
C50   C     C_R   0.364304 0.882903 0.882743 0.745401
O16   O     O_R   0.206300 0.899780 0.050100 -0.542480
O17   O     O_3   0.375170 0.064580 0.013100 -0.373549
V3    V     V_3+5 0.648200 0.988020 0.997570 1.414581
O18   O     O_R   0.038030 0.112330 0.952840 -0.545929
C51   C     C_R   0.867948 0.139602 0.937385 0.674209
O19   O     O_R   0.040730 0.097300 0.089360 -0.536125
C52   C     C_R   0.875298 0.116228 0.117785 0.694901
V4    V     V_3+5 0.148780 0.012220 0.002360 1.445119
O20   O     O_3   0.871930 0.935430 0.986900 -0.380041
H6    H     H_    0.906306 0.167462 0.521758 0.128012
H7    H     H_    0.611850 0.114952 0.230147 0.149696
H8    H     H_    0.536831 0.319708 0.256510 0.118006
O21   O     O_3   0.210242 0.165686 0.249763 -0.571211
C53   C     C_3   0.289070 0.201518 0.317196 -0.286728
H9    H     H_    0.202650 0.177898 0.356623 0.148795
H10   H     H_    0.307044 0.284379 0.331081 0.143859
H11   H     H_    0.431100 0.168779 0.321157 0.153211
H12   H     H_    0.570511 0.685782 0.824656 0.140764
O22   O     O_3   0.231097 0.569059 0.752678 -0.564598
C54   C     C_3   0.203341 0.563168 0.821069 -0.214809
H13   H     H_    0.075597 0.606276 0.842918 0.154151
H14   H     H_    0.331157 0.587998 0.854641 0.170863
H15   H     H_    0.180147 0.483465 0.821081 0.164984
O23   O     O_3   0.994943 0.770321 0.797024 -0.573723
C55   C     C_3   0.921866 0.866284 0.799758 -0.173000
H16   H     H_    0.849914 0.867789 0.750683 0.133877
H17   H     H_    0.030889 0.927830 0.810528 0.133867
H18   H     H_    0.815905 0.883404 0.840874 0.179701
H19   H     H_    0.791726 0.995557 0.692739 0.118128
O24   O     O_3   0.149971 0.848514 0.666046 -0.550619
C56   C     C_3   0.008496 0.789598 0.623730 -0.164166
H20   H     H_    0.952771 0.727063 0.644335 0.115796
H21   H     H_    0.065270 0.760959 0.571403 0.187041
H22   H     H_    0.885629 0.837978 0.618785 0.103273
O25   O     O_3   0.362422 0.848315 0.500567 -0.527734
C57   C     C_3   0.544068 0.838016 0.530154 -0.186033
H23   H     H_    0.666744 0.840866 0.495705 0.092979
H24   H     H_    0.548450 0.767228 0.547322 0.131863
H25   H     H_    0.564862 0.900456 0.576600 0.159333
H26   H     H_    0.298851 0.007232 0.306440 0.180761
O26   O     O_3   0.348039 0.988519 0.424768 -0.534284
C58   C     C_3   0.533557 0.031763 0.431014 -0.233073
H27   H     H_    0.601254 0.023620 0.380121 0.110381
H28   H     H_    0.627266 0.999381 0.465239 0.149511
H29   H     H_    0.522128 0.113224 0.454724 0.161100
O27   O     O_3   0.272980 0.586982 0.292831 -0.552171
C59   C     C_3   0.405646 0.512451 0.299076 -0.277229
H30   H     H_    0.359322 0.474005 0.338825 0.160203
H31   H     H_    0.556649 0.540123 0.309169 0.131875
H32   H     H_    0.402244 0.455643 0.249541 0.131198
O28   O     O_3   0.425326 0.660165 0.993536 -0.559830
C60   C     C_3   0.622262 0.650144 0.978387 -0.213282
H33   H     H_    0.695829 0.597646 0.004435 0.159901
H34   H     H_    0.696908 0.724099 0.992103 0.150586
H35   H     H_    0.636937 0.619125 0.922349 0.136878
H36   H     H_    0.459152 0.575456 0.195359 0.185274
O29   O     O_3   0.456751 0.510249 0.063960 -0.547245
C61   C     C_3   0.296745 0.448137 0.066763 -0.206574
H37   H     H_    0.163706 0.477652 0.047705 0.130920
H38   H     H_    0.276816 0.438224 0.119653 0.131861
H39   H     H_    0.322151 0.372930 0.032742 0.164417
H40   H     H_    0.870766 0.040682 0.587348 0.134914
O30   O     O_3   0.714387 0.413270 0.705198 -0.557688
C62   C     C_3   0.824174 0.497328 0.698683 -0.209873
H41   H     H_    0.758997 0.530698 0.658990 0.168367
H42   H     H_    0.975821 0.479687 0.685755 0.170641
H43   H     H_    0.820356 0.555921 0.747570 0.166819
H44   H     H_    0.907861 0.335485 0.993042 0.098736
H45   H     H_    0.858292 0.439008 0.811930 0.155019
H46   H     H_    0.902180 0.472302 0.933853 0.112805
H47   H     H_    0.765390 0.040090 0.816568 0.097784
H48   H     H_    0.878610 0.154207 0.340445 0.104788

loop_
_geom_bond_atom_site_label_1
_geom_bond_atom_site_label_2
_ccdc_geom_bond_type
C42   C46   A    
C39   C40   A    
C16   O30   S    
C5    C17   A    
C27   C28   S    
C4    C6    S    
C61   H38   S    
C7    C8    A    
O15   C51   A    
C1    O6    A    
C55   H16   S    
O30   C62   S    
C37   C38   A    
C40   C41   A    
O13   V3    S    
C14   C15   A    
C35   O26   S    
C25   O21   S    
C24   C25   S    
C2    C36   S    
O29   C61   S    
C14   H19   S    
O5    C3    A    
C37   C48   A    
C53   H10   S    
C29   C32   S    
C26   C52   S    
V2    O10   S    
C21   C24   S    
C19   H7    S    
C57   H23   S    
C22   C23   S    
O27   C59   S    
C38   C39   A    
C18   C51   S    
O8    V2    S    
O11   C50   A    
C31   C32   S    
C40   C42   A    
C7    H44   S    
C15   H47   S    
O25   C57   S    
C49   O16   A    
O1    V2    S    
C11   C15   A    
O7    V1    S    
O13   C52   A    
C43   C44   A    
O17   V4    S    
O9    C4    A    
C29   C50   S    
C5    H40   S    
C22   H8    S    
C62   H43   S    
C55   H17   S    
C58   H27   S    
C31   C34   S    
C59   H31   S    
C20   H48   S    
O17   V3    S    
C11   C18   A    
C8    H46   S    
O28   C60   S    
C23   C26   S    
C6    C16   A    
C12   C13   A    
C62   H42   S    
C37   O28   S    
C33   O24   S    
O4    C2    A    
O19   C52   A    
V3    O20   S    
O18   V4    S    
C13   C14   A    
O21   C53   S    
C53   H11   S    
C54   H15   S    
C1    C34   S    
C44   C45   A    
O12   C49   A    
C28   C29   S    
C23   H1    S    
C25   C26   S    
C44   H26   S    
C19   C20   S    
C24   H2    S    
C27   C30   S    
O23   C55   S    
C8    C9    A    
C54   H14   S    
C21   C22   S    
C19   C22   S    
C35   C47   A    
C56   H21   S    
C6    C17   A    
C20   C25   S    
O18   C51   A    
O3    C4    A    
C60   H35   S    
C32   C33   S    
O6    V2    S    
O9    V2    S    
C27   H4    S    
C10   C12   A    
C29   C30   S    
C61   H39   S    
O12   V3    S    
C28   H3    S    
C47   O25   S    
O2    V1    S    
C27   C34   S    
O22   C54   S    
C55   H18   S    
O11   V4    S    
C53   H9    S    
C41   C48   A    
C60   H34   S    
O26   C58   S    
C59   H32   S    
C38   O29   S    
C30   C31   S    
C32   O23   S    
O1    C2    A    
C31   O22   S    
C12   C16   A    
V4    O20   S    
C36   C47   A    
O5    V1    S    
C58   H28   S    
C59   H30   S    
C57   H25   S    
C41   C45   A    
C30   H12   S    
C48   C49   S    
C19   C26   S    
C5    C13   A    
C20   C21   S    
C61   H37   S    
C42   C43   A    
C9    H45   S    
C17   H6    S    
O3    V1    S    
C36   C46   A    
O15   V3    S    
V1    O10   S    
O2    C1    A    
C54   H13   S    
O16   V4    S    
C57   H24   S    
C56   H22   S    
O19   V4    S    
O7    V2    S    
O24   C56   S    
C46   O27   S    
C58   H29   S    
C28   C33   S    
C45   H5    S    
O4    V1    S    
C35   C43   A    
C39   H36   S    
O14   V3    S    
C33   C34   S    
C56   H20   S    
C10   C11   A    
C62   H41   S    
O14   C50   A    
C23   C24   S    
C3    C21   S    
C9    C10   A    
C7    C18   A    
O8    C3    A    
C60   H33   S    
