data_mof_unit_6293.cif
_audit_creation_date              2012-12-10T18:59:11-0500
_audit_creation_method            fapswitch 2.2
_symmetry_space_group_name_H-M    P1
_symmetry_Int_Tables_number       1
_space_group_crystal_system       triclinic
_cell_length_a                    9.844257
_cell_length_b                    10.63956
_cell_length_c                    16.651647
_cell_angle_alpha                 89.539136
_cell_angle_beta                  95.859382
_cell_angle_gamma                 90.120595
_cell_volume                      1734.90001039

loop_
_atom_site_label
_atom_site_type_symbol
_atom_type_description
_atom_site_fract_x
_atom_site_fract_y
_atom_site_fract_z
_atom_type_partial_charge
C1    C     C_R   0.499821 0.260526 0.500150 0.897981
C2    C     C_R   0.079703 0.415431 0.546015 -0.047679
C3    C     C_R   0.519642 0.498697 0.653939 0.854685
C4    C     C_R   0.480358 0.501302 0.346061 0.854685
C5    C     C_R   0.535420 0.510922 0.741326 -0.089697
C6    C     C_R   0.464580 0.489077 0.258674 -0.089697
C7    C     C_R   0.440905 0.586395 0.775951 -0.254604
C8    C     C_R   0.559095 0.413604 0.224049 -0.254604
C9    C     C_R   0.449780 0.602844 0.858971 0.206940
C10   C     C_R   0.550221 0.397155 0.141029 0.206940
C11   C     C_R   0.553182 0.539303 0.907893 0.266729
C12   C     C_R   0.500179 0.739474 0.499850 0.897980
C13   C     C_R   0.446818 0.460695 0.092106 0.266729
C14   C     C_R   0.651115 0.468437 0.873760 -0.220130
C15   C     C_R   0.348885 0.531561 0.126240 -0.220130
C16   C     C_R   0.643702 0.452800 0.790358 0.172858
C17   C     C_R   0.356297 0.547198 0.209642 0.172859
C18   C     C_R   0.468457 0.063588 0.570135 0.405407
C19   C     C_R   0.531543 0.936412 0.429865 0.405406
C20   C     C_3   0.653152 0.313752 0.106761 -0.851286
C21   C     C_3   0.346849 0.686247 0.893240 -0.851287
C22   C     C_3   0.747127 0.369493 0.756184 -0.844509
C23   C     C_R   0.469440 0.934214 0.570149 0.423150
C24   C     C_3   0.252872 0.630505 0.243816 -0.844510
C25   C     C_R   0.530560 0.065785 0.429851 0.423150
C26   C     C_R   0.500669 0.871638 0.499985 -0.450236
C27   C     C_R   0.499331 0.128362 0.500015 -0.450236
C28   C     C_R   0.064160 0.584626 0.453989 -0.068727
C29   C     C_R   0.935839 0.415373 0.546010 -0.068728
C30   C     C_R   0.920297 0.584569 0.453985 -0.047680
H1    H     H_    0.639979 0.366507 0.261910 0.191017
H2    H     H_    0.756444 0.356120 0.118016 0.239403
H3    H     H_    0.653735 0.219992 0.136600 0.257285
H4    H     H_    0.370293 0.700974 0.959068 0.248929
H5    H     H_    0.346267 0.780007 0.863401 0.257285
H6    H     H_    0.243557 0.643879 0.881984 0.239403
H7    H     H_    0.813591 0.320691 0.804574 0.233934
H8    H     H_    0.694330 0.296439 0.717194 0.241583
H9    H     H_    0.814186 0.426828 0.720624 0.249313
H10   H     H_    0.186408 0.679306 0.195425 0.233934
H11   H     H_    0.185813 0.573169 0.279375 0.249313
H12   H     H_    0.360022 0.633493 0.738090 0.191017
H13   H     H_    0.305668 0.703559 0.282805 0.241582
H14   H     H_    0.459385 0.213079 0.638418 0.318350
H15   H     H_    0.540612 0.786921 0.361582 0.318349
H16   H     H_    0.468075 0.783822 0.639416 0.319181
H17   H     H_    0.531925 0.216178 0.360584 0.319181
H18   H     H_    0.729300 0.420458 0.913088 0.154669
H19   H     H_    0.270699 0.579539 0.086912 0.154669
H20   H     H_    0.112434 0.652388 0.417283 0.135862
H21   H     H_    0.887566 0.347612 0.582717 0.135862
H22   H     H_    0.859588 0.652182 0.417171 0.148903
H23   H     H_    0.140412 0.347818 0.582829 0.148902
H24   H     H_    0.629708 0.299024 0.040933 0.248929
N1    N     N_2   0.549891 0.531679 0.991531 -0.177309
N2    N     N_2   0.450110 0.468319 0.008469 -0.177309
N3    N     N_R   0.857210 0.499970 0.500020 -0.083344
N4    N     N_R   0.142790 0.500030 0.499980 -0.083345
O1    O     O_R   0.614620 0.316750 0.500010 -0.606672
O2    O     O_3   0.560168 0.877910 0.359424 -0.698727
O3    O     O_3   0.441811 0.873292 0.640560 -0.697456
O4    O     O_3   0.558189 0.126708 0.359440 -0.697456
O5    O     O_R   0.385380 0.683250 0.499990 -0.606672
O6    O     O_R   0.385290 0.316780 0.500000 -0.605359
O7    O     O_R   0.614710 0.683220 0.500000 -0.605358
O8    O     O_R   0.627460 0.498830 0.616130 -0.609625
O9    O     O_R   0.372540 0.501170 0.383870 -0.609624
O10   O     O_R   0.398130 0.498850 0.616130 -0.619803
O11   O     O_R   0.601870 0.501150 0.383870 -0.619802
O12   O     O_3   0.439833 0.122089 0.640576 -0.698728
Zn1   Zn    Zn3+2 0.653130 0.499980 0.500000 0.958989
Zn2   Zn    Zn3+2 0.346870 0.500020 0.500000 0.958988

loop_
_geom_bond_atom_site_label_1
_geom_bond_atom_site_label_2
_ccdc_geom_bond_type
C18   O12   S    
C4    O9    A    
C6    C8    A    
N1    N2    D    
C2    N4    A    
H15   O2    S    
H14   O12   S    
C21   H5    S    
C28   N4    A    
C19   O2    S    
C25   C27   A    
C12   O7    A    
C18   C27   A    
C3    O10   A    
C13   C15   A    
O10   Zn2   S    
C13   N2    S    
C9    C21   S    
C12   O5    A    
H17   O4    S    
C28   C30   A    
C21   H6    S    
N3    Zn1   S    
C24   H11   S    
C9    C11   A    
N4    Zn2   S    
C16   C22   S    
O1    Zn1   S    
C28   H20   S    
C24   H13   S    
C2    C29   A    
C20   H3    S    
C8    C10   A    
C4    O11   A    
C24   H10   S    
C1    O1    A    
C29   N3    A    
O9    Zn2   S    
C5    C7    A    
C25   O4    S    
C15   H19   S    
C20   H2    S    
C19   C25   A    
C11   C14   A    
C14   C16   A    
C23   C26   A    
C17   C24   S    
O11   Zn1   S    
C15   C17   A    
H16   O3    S    
C18   C23   A    
C3    O8    A    
C1    O6    A    
C7    C9    A    
C23   O3    S    
C11   N1    S    
O5    Zn2   S    
C19   C26   A    
C20   H24   S    
C4    C6    S    
C29   H21   S    
C7    H12   S    
C10   C20   S    
C1    C27   S    
C6    C17   A    
C30   H22   S    
C5    C16   A    
C14   H18   S    
C21   H4    S    
O7    Zn1   S    
C22   H7    S    
C22   H9    S    
C10   C13   A    
C8    H1    S    
O8    Zn1   S    
O6    Zn2   S    
C12   C26   S    
C30   N3    A    
C3    C5    S    
C2    H23   S    
C22   H8    S    
