data_mof_unit_48041.cif
_audit_creation_date              2012-12-11T15:49:05-0500
_audit_creation_method            fapswitch 2.2
_symmetry_space_group_name_H-M    P1
_symmetry_Int_Tables_number       1
_space_group_crystal_system       triclinic
_cell_length_a                    21.702262
_cell_length_b                    7.190344
_cell_length_c                    14.970147
_cell_angle_alpha                 90.001747
_cell_angle_beta                  106.983237
_cell_angle_gamma                 90.000208
_cell_volume                      2234.16825726

loop_
_atom_site_label
_atom_site_type_symbol
_atom_type_description
_atom_site_fract_x
_atom_site_fract_y
_atom_site_fract_z
_atom_type_partial_charge
O1    O     O_R   0.335860 0.638190 0.002110 -0.510753
O2    O     O_R   0.664140 0.361810 0.997890 -0.514567
O3    O     O_R   0.164140 0.138190 0.997890 -0.510753
O4    O     O_R   0.835860 0.861810 0.002110 -0.514566
O5    O     O_R   0.217530 0.305920 0.861960 -0.546070
O6    O     O_R   0.782470 0.694080 0.138040 -0.543085
O7    O     O_R   0.282470 0.805920 0.138040 -0.546076
O8    O     O_R   0.717530 0.194080 0.861960 -0.543106
C1    C     C_R   0.206014 0.476544 0.825825 0.732385
C2    C     C_R   0.794064 0.523434 0.173964 0.744626
C3    C     C_R   0.293986 0.976550 0.174175 0.732376
C4    C     C_R   0.705936 0.023429 0.826036 0.744602
O9    O     O_R   0.338690 0.308320 0.993240 -0.546089
O10   O     O_R   0.661310 0.691680 0.006760 -0.546931
O11   O     O_R   0.161310 0.808320 0.006760 -0.546091
O12   O     O_R   0.838690 0.191680 0.993240 -0.546938
O13   O     O_R   0.286170 0.140430 0.130100 -0.542236
O14   O     O_R   0.713830 0.859570 0.869900 -0.542346
O15   O     O_R   0.213830 0.640430 0.869900 -0.542235
O16   O     O_R   0.786170 0.359570 0.130100 -0.542348
C5    C     C_R   0.365148 0.477725 0.998826 0.739598
C6    C     C_R   0.635302 0.522076 0.003300 0.734495
C7    C     C_R   0.134852 0.977724 0.001173 0.739592
C8    C     C_R   0.864698 0.022076 0.996701 0.734487
O17   O     O_3   0.232630 0.472410 0.044750 -0.373243
O18   O     O_3   0.767370 0.527590 0.955250 -0.381205
O19   O     O_3   0.267370 0.972410 0.955250 -0.373237
O20   O     O_3   0.732630 0.027590 0.044750 -0.381190
V1    V     V_3+5 0.253220 0.196620 0.991700 1.487023
V2    V     V_3+5 0.746780 0.803380 0.008300 1.468993
V3    V     V_3+5 0.246780 0.696620 0.008300 1.487010
V4    V     V_3+5 0.753220 0.303380 0.991700 1.468954
C9    C     C_R   0.029765 0.828191 0.999218 -0.300858
C10   C     C_R   0.968912 0.170985 0.994566 -0.304329
C11   C     C_R   0.470235 0.328191 0.000784 -0.300855
C12   C     C_R   0.531089 0.670986 0.005436 -0.304323
H1    H     H_    0.052414 0.693592 0.002672 0.207963
H2    H     H_    0.947095 0.305596 0.995269 0.203637
H3    H     H_    0.447586 0.193592 0.997329 0.207963
H4    H     H_    0.552906 0.805597 0.004733 0.203637
C13   C     C_R   0.963891 0.835138 0.992239 0.479031
C14   C     C_R   0.032714 0.163769 0.990831 0.503209
C15   C     C_R   0.536109 0.335140 0.007764 0.479027
C16   C     C_R   0.467287 0.663771 0.009169 0.503206
C17   C     C_R   0.933194 0.008717 0.994751 -0.206972
C18   C     C_R   0.065340 0.990664 0.998183 -0.206259
C19   C     C_R   0.566806 0.508717 0.005252 -0.206973
C20   C     C_R   0.434660 0.490664 0.001817 -0.206260
C21   C     C_R   0.678863 0.018873 0.724559 -0.122373
C22   C     C_R   0.320608 0.980165 0.276095 -0.116552
C23   C     C_R   0.821137 0.518890 0.275441 -0.122362
C24   C     C_R   0.179391 0.480147 0.723905 -0.116549
C25   C     C_R   0.688070 0.084194 0.571115 -0.241223
C26   C     C_R   0.312650 0.897087 0.428501 -0.252528
C27   C     C_R   0.811932 0.584223 0.428886 -0.241222
C28   C     C_R   0.187347 0.397055 0.571497 -0.252527
C29   C     C_R   0.716900 0.067985 0.667410 0.461374
C30   C     C_R   0.283737 0.915830 0.332249 0.465797
C31   C     C_R   0.783101 0.568021 0.332589 0.461369
C32   C     C_R   0.216260 0.415799 0.667751 0.465799
C33   C     C_R   0.612853 0.988417 0.686395 -0.281983
C34   C     C_R   0.385788 0.021728 0.315384 -0.302670
C35   C     C_R   0.887146 0.488418 0.313604 -0.281990
C36   C     C_R   0.114212 0.521721 0.684616 -0.302675
C37   C     C_R   0.582204 0.008171 0.589398 0.087567
C38   C     C_R   0.417336 0.990929 0.411414 0.095320
C39   C     C_R   0.917796 0.508174 0.410602 0.087564
C40   C     C_R   0.082663 0.490913 0.588587 0.095319
C41   C     C_R   0.620867 0.062651 0.531842 0.024648
C42   C     C_R   0.379382 0.926590 0.468312 0.023202
C43   C     C_R   0.879134 0.562659 0.468159 0.024665
C44   C     C_R   0.120616 0.426571 0.531687 0.023208
C45   C     C_R   0.514353 0.980405 0.548694 0.059604
C46   C     C_R   0.485383 0.017231 0.451749 0.065163
C47   C     C_R   0.985646 0.480401 0.451305 0.059605
C48   C     C_R   0.014616 0.517216 0.548253 0.065163
C49   C     C_R   0.525507 0.077028 0.397969 -0.228802
C50   C     C_R   0.474882 0.913772 0.601859 -0.213458
C51   C     C_R   0.974492 0.577000 0.602037 -0.228802
C52   C     C_R   0.025117 0.413775 0.398136 -0.213458
C53   C     C_R   0.591729 0.098208 0.436553 -0.029051
C54   C     C_R   0.408915 0.888347 0.563336 -0.041408
C55   C     C_R   0.908271 0.598193 0.563452 -0.029040
C56   C     C_R   0.091084 0.388340 0.436660 -0.041407
H5    H     H_    0.410682 0.070316 0.267571 0.108256
H6    H     H_    0.586618 0.959333 0.735723 0.128714
H7    H     H_    0.089320 0.570329 0.732430 0.108261
H8    H     H_    0.913379 0.459318 0.264276 0.128713
H9    H     H_    0.718660 0.115599 0.527525 0.142552
H10   H     H_    0.282682 0.855454 0.471463 0.138785
H11   H     H_    0.781343 0.615631 0.472478 0.142538
H12   H     H_    0.217314 0.355418 0.528534 0.138783
H13   H     H_    0.507040 0.109055 0.324776 0.112988
H14   H     H_    0.494190 0.874623 0.674073 0.131742
H15   H     H_    0.992958 0.609000 0.675234 0.112982
H16   H     H_    0.005810 0.374642 0.325918 0.131740
O21   O     O_3   0.930605 0.669343 0.983766 -0.551248
C57   C     C_3   0.901313 0.636000 0.887762 -0.166427
H17   H     H_    0.937316 0.633316 0.847982 0.109019
H18   H     H_    0.863766 0.741784 0.856962 0.168812
H19   H     H_    0.877066 0.498756 0.879404 0.144496
O22   O     O_3   0.062657 0.329028 0.981717 -0.538214
C58   C     C_3   0.050545 0.366030 0.885475 -0.219725
H20   H     H_    0.998116 0.367009 0.847837 0.109319
H21   H     H_    0.075185 0.263382 0.852071 0.126937
H22   H     H_    0.070019 0.505470 0.877516 0.134318
O23   O     O_3   0.569395 0.169346 0.016241 -0.551250
C59   C     C_3   0.598688 0.136026 0.112246 -0.166417
H23   H     H_    0.562685 0.133355 0.152027 0.109016
H24   H     H_    0.636236 0.241815 0.143043 0.168809
H25   H     H_    0.622935 0.998782 0.120607 0.144511
O24   O     O_3   0.437343 0.829031 0.018283 -0.538213
C60   C     C_3   0.449456 0.866051 0.114524 -0.219725
H26   H     H_    0.501886 0.867040 0.152161 0.109324
H27   H     H_    0.424818 0.763409 0.147930 0.126936
H28   H     H_    0.429982 0.005491 0.122482 0.134319
C61   C     C_1   0.628594 0.166339 0.376979 0.249540
N1    N     N_1   0.658569 0.221486 0.330194 -0.359786
C62   C     C_1   0.373144 0.814936 0.623416 0.271249
N2    N     N_1   0.344683 0.756080 0.671528 -0.317763
C63   C     C_1   0.871406 0.666309 0.623031 0.249559
N3    N     N_1   0.841431 0.721441 0.669820 -0.359784
C64   C     C_1   0.126854 0.314943 0.376575 0.271261
N4    N     N_1   0.155315 0.256099 0.328459 -0.317758
O25   O     O_3   0.218408 0.884404 0.292641 -0.550384
C65   C     C_3   0.204278 0.695540 0.302967 -0.169370
H29   H     H_    0.204719 0.664845 0.375878 0.130350
H30   H     H_    0.237750 0.600738 0.280865 0.137953
H31   H     H_    0.154925 0.666440 0.257273 0.173822
O26   O     O_3   0.782912 0.086681 0.706060 -0.553832
C66   C     C_3   0.801312 0.271668 0.695738 -0.216250
H32   H     H_    0.772481 0.373124 0.723106 0.142771
H33   H     H_    0.797935 0.303347 0.621820 0.144335
H34   H     H_    0.852513 0.289079 0.736951 0.148415
O27   O     O_3   0.281589 0.384369 0.707360 -0.550385
C67   C     C_3   0.295721 0.195517 0.697008 -0.169365
H35   H     H_    0.295297 0.164871 0.624096 0.130355
H36   H     H_    0.262239 0.100690 0.719074 0.137941
H37   H     H_    0.345068 0.166401 0.742718 0.173826
O28   O     O_3   0.717090 0.586732 0.293932 -0.553841
C68   C     C_3   0.698682 0.771677 0.304328 -0.216238
H38   H     H_    0.727540 0.873217 0.277070 0.142768
H39   H     H_    0.702009 0.803183 0.378243 0.144342
H40   H     H_    0.647497 0.789145 0.263065 0.148406

loop_
_geom_bond_atom_site_label_1
_geom_bond_atom_site_label_2
_ccdc_geom_bond_type
O17   V3    S    
O1    C5    A    
C65   H29   S    
C27   C31   A    
C35   H8    S    
O19   V1    S    
O13   V1    S    
C45   C46   A    
O3    C7    A    
C10   C14   A    
C48   C51   A    
C52   C56   A    
C66   H34   S    
O15   V3    S    
O21   C57   S    
C21   C29   A    
O27   C67   S    
C56   C64   S    
O7    C3    A    
C64   N4    T    
C8    C17   S    
C36   C40   A    
O9    V1    S    
C26   H10   S    
C68   H39   S    
O16   V4    S    
O4    C8    A    
C2    C23   S    
C38   C46   A    
C53   C61   S    
O1    V3    S    
C37   C45   A    
C59   H23   S    
C12   C19   A    
O2    V4    S    
C14   C18   A    
O3    V1    S    
C27   H11   S    
C24   C32   A    
C1    O15   A    
C2    O16   A    
C28   C44   A    
C46   C49   A    
O2    C6    A    
O23   C59   S    
O14   V2    S    
C52   H16   S    
C11   C15   A    
C47   C52   A    
C36   H7    S    
O5    V1    S    
C40   C44   A    
C5    C20   S    
O11   C7    A    
C6    C19   S    
C25   C41   A    
O12   C8    A    
C7    C18   S    
C9    C18   A    
C1    C24   S    
C54   C62   S    
O10   V2    S    
C67   H37   S    
C11   C20   A    
C14   O22   S    
O24   C60   S    
C4    C21   S    
C43   C55   A    
C34   H5    S    
C35   C39   A    
C21   C33   A    
C34   C38   A    
O9    C5    A    
O8    V4    S    
C29   O26   S    
C12   H4    S    
O7    V3    S    
O28   C68   S    
C67   H36   S    
C24   C36   A    
C68   H40   S    
C25   C29   A    
O18   V4    S    
C65   H31   S    
C45   C50   A    
C9    H1    S    
C28   C32   A    
C22   C30   A    
C51   H15   S    
C11   H3    S    
C47   C48   A    
O5    C1    A    
C50   C54   A    
C26   C42   A    
C49   C53   A    
O8    C4    A    
C23   C35   A    
C58   H21   S    
C10   C17   A    
C15   O23   S    
C40   C48   A    
C55   C63   S    
C32   O27   S    
C63   N3    T    
C44   C56   A    
C16   O24   S    
O6    V2    S    
C57   H18   S    
C25   H9    S    
O25   C65   S    
C22   C34   A    
C13   O21   S    
C12   C16   A    
C23   C31   A    
C66   H32   S    
C60   H26   S    
C26   C30   A    
C3    O13   A    
C65   H30   S    
C10   H2    S    
C67   H35   S    
C66   H33   S    
O6    C2    A    
C62   N2    T    
O11   V3    S    
O12   V4    S    
C57   H19   S    
C59   H25   S    
C9    C13   A    
C60   H28   S    
O20   V2    S    
O26   C66   S    
C3    C22   S    
C61   N1    T    
C51   C55   A    
O10   C6    A    
C38   C42   A    
C31   O28   S    
C50   H14   S    
C37   C41   A    
C49   H13   S    
C59   H24   S    
C58   H22   S    
C39   C43   A    
O22   C58   S    
C42   C54   A    
O4    V2    S    
C41   C53   A    
C33   H6    S    
C33   C37   A    
C28   H12   S    
C39   C47   A    
C30   O25   S    
C57   H17   S    
C4    O14   A    
C58   H20   S    
C13   C17   A    
C68   H38   S    
C15   C19   A    
C27   C43   A    
C16   C20   A    
C60   H27   S    
