data_mof_unit_57847.cif
_audit_creation_date              2012-12-10T17:18:32-0500
_audit_creation_method            fapswitch 2.2
_symmetry_space_group_name_H-M    P1
_symmetry_Int_Tables_number       1
_space_group_crystal_system       triclinic
_cell_length_a                    25.85955
_cell_length_b                    25.859913
_cell_length_c                    25.859744
_cell_angle_alpha                 90.000274
_cell_angle_beta                  89.99783
_cell_angle_gamma                 89.999898
_cell_volume                      17293.0757374

loop_
_atom_site_label
_atom_site_type_symbol
_atom_type_description
_atom_site_fract_x
_atom_site_fract_y
_atom_site_fract_z
_atom_type_partial_charge
C1    C     C_R   0.750000 0.610139 0.750000 0.788197
C2    C     C_R   0.250000 0.389861 0.250000 0.788163
C3    C     C_R   0.750000 0.610139 0.250000 0.788219
C4    C     C_R   0.250000 0.389861 0.750000 0.788223
C5    C     C_R   0.250000 0.610138 0.250000 0.788162
C6    C     C_R   0.750000 0.389861 0.750000 0.788193
C7    C     C_R   0.250000 0.610139 0.750000 0.788227
C8    C     C_R   0.750000 0.389861 0.250000 0.788219
C9    C     C_R   0.610139 0.250004 0.249996 0.788203
C10   C     C_R   0.389861 0.749999 0.750001 0.788204
C11   C     C_R   0.610139 0.749996 0.249996 0.788200
C12   C     C_R   0.389861 0.250001 0.750000 0.788199
C13   C     C_R   0.610139 0.750001 0.749999 0.788209
C14   C     C_R   0.389861 0.249997 0.250003 0.788229
C15   C     C_R   0.610139 0.249999 0.749999 0.788205
C16   C     C_R   0.389861 0.750003 0.250003 0.788226
C17   C     C_R   0.249998 0.749999 0.389861 0.788181
C18   C     C_R   0.750000 0.249999 0.610139 0.788209
C19   C     C_R   0.750001 0.749999 0.389861 0.788210
C20   C     C_R   0.250003 0.249998 0.610139 0.788212
C21   C     C_R   0.750000 0.250001 0.389861 0.788210
C22   C     C_R   0.250003 0.750002 0.610139 0.788209
C23   C     C_R   0.249999 0.250001 0.389861 0.788180
C24   C     C_R   0.749999 0.750001 0.610139 0.788204
C25   C     C_R   0.250000 0.110139 0.750000 0.788196
C26   C     C_R   0.750000 0.889861 0.250000 0.788194
C27   C     C_R   0.750000 0.110139 0.750000 0.788218
C28   C     C_R   0.250000 0.889861 0.250000 0.788223
C29   C     C_R   0.750000 0.110139 0.250000 0.788194
C30   C     C_R   0.250000 0.889861 0.750000 0.788200
C31   C     C_R   0.250000 0.110139 0.250000 0.788223
C32   C     C_R   0.750000 0.889861 0.750000 0.788222
C33   C     C_R   0.110139 0.250001 0.749999 0.788203
C34   C     C_R   0.889861 0.749996 0.250004 0.788203
C35   C     C_R   0.110139 0.249997 0.249997 0.788226
C36   C     C_R   0.889861 0.750001 0.750000 0.788206
C37   C     C_R   0.110139 0.750003 0.249997 0.788230
C38   C     C_R   0.889861 0.249999 0.750000 0.788208
C39   C     C_R   0.110139 0.749999 0.749999 0.788200
C40   C     C_R   0.889861 0.250005 0.250004 0.788199
C41   C     C_R   0.249997 0.249998 0.889861 0.788213
C42   C     C_R   0.749999 0.749999 0.110139 0.788211
C43   C     C_R   0.249997 0.750003 0.889861 0.788208
C44   C     C_R   0.749999 0.250001 0.110139 0.788209
C45   C     C_R   0.750001 0.750001 0.889861 0.788205
C46   C     C_R   0.250002 0.250001 0.110139 0.788180
C47   C     C_R   0.750001 0.249999 0.889861 0.788208
C48   C     C_R   0.250002 0.749998 0.110139 0.788180
C49   C     C_R   0.553906 0.682350 0.817470 -0.137012
C50   C     C_R   0.446087 0.317767 0.182651 -0.137007
C51   C     C_R   0.817629 0.682504 0.446092 -0.137016
C52   C     C_R   0.182153 0.317271 0.553914 -0.136994
C53   C     C_R   0.446087 0.682244 0.182639 -0.137006
C54   C     C_R   0.553906 0.317805 0.817314 -0.137013
C55   C     C_R   0.182179 0.682704 0.553914 -0.136993
C56   C     C_R   0.817655 0.317468 0.446092 -0.137016
C57   C     C_R   0.553901 0.317768 0.182638 -0.137028
C58   C     C_R   0.446092 0.682347 0.817471 -0.137013
C59   C     C_R   0.817654 0.317467 0.553905 -0.137012
C60   C     C_R   0.182167 0.682710 0.446101 -0.137036
C61   C     C_R   0.446092 0.317809 0.817314 -0.137015
C62   C     C_R   0.553902 0.682242 0.182627 -0.137027
C63   C     C_R   0.182143 0.317265 0.446101 -0.137037
C64   C     C_R   0.817627 0.682505 0.553905 -0.137012
C65   C     C_R   0.682549 0.553906 0.182331 -0.137031
C66   C     C_R   0.317388 0.446094 0.817732 -0.137004
C67   C     C_R   0.817456 0.446093 0.682330 -0.137020
C68   C     C_R   0.184233 0.553909 0.319316 -0.137048
C69   C     C_R   0.184233 0.446092 0.319315 -0.137049
C70   C     C_R   0.817456 0.553906 0.682330 -0.137019
C71   C     C_R   0.317389 0.553907 0.817731 -0.137001
C72   C     C_R   0.682549 0.446093 0.182331 -0.137032
C73   C     C_R   0.053906 0.182345 0.817465 -0.137015
C74   C     C_R   0.946090 0.817714 0.182600 -0.137007
C75   C     C_R   0.817655 0.182530 0.946093 -0.137016
C76   C     C_R   0.182174 0.817296 0.053913 -0.137002
C77   C     C_R   0.946090 0.182264 0.182621 -0.137007
C78   C     C_R   0.053906 0.817560 0.817561 -0.137016
C79   C     C_R   0.182153 0.182726 0.053911 -0.137003
C80   C     C_R   0.817627 0.817498 0.946093 -0.137014
C81   C     C_R   0.053905 0.817719 0.182594 -0.137029
C82   C     C_R   0.946091 0.182343 0.817466 -0.137017
C83   C     C_R   0.817626 0.817495 0.053906 -0.137009
C84   C     C_R   0.182152 0.182723 0.946098 -0.137018
C85   C     C_R   0.946091 0.817561 0.817563 -0.137017
C86   C     C_R   0.053905 0.182258 0.182616 -0.137030
C87   C     C_R   0.182173 0.817300 0.946099 -0.137020
C88   C     C_R   0.817654 0.182533 0.053906 -0.137009
C89   C     C_R   0.317852 0.317264 0.946085 -0.136992
C90   C     C_R   0.682372 0.682503 0.053908 -0.137016
C91   C     C_R   0.182576 0.053906 0.182304 -0.137017
C92   C     C_R   0.817502 0.946093 0.817618 -0.137016
C93   C     C_R   0.317847 0.682723 0.053898 -0.137039
C94   C     C_R   0.682344 0.317465 0.946094 -0.137010
C95   C     C_R   0.182555 0.946093 0.817681 -0.137018
C96   C     C_R   0.682498 0.053907 0.317625 -0.137019
C97   C     C_R   0.682374 0.682505 0.946095 -0.137011
C98   C     C_R   0.317863 0.317261 0.053899 -0.137039
C99   C     C_R   0.682499 0.946094 0.317625 -0.137019
C100  C     C_R   0.182555 0.053907 0.817681 -0.137020
C101  C     C_R   0.682342 0.317468 0.053907 -0.137017
C102  C     C_R   0.317833 0.682717 0.946084 -0.136991
C103  C     C_R   0.817502 0.053907 0.817619 -0.137017
C104  C     C_R   0.182576 0.946093 0.182303 -0.137016
C105  C     C_R   0.317443 0.053906 0.682318 -0.137021
C106  C     C_R   0.817502 0.946093 0.182376 -0.137019
C107  C     C_R   0.053908 0.682437 0.682438 -0.137015
C108  C     C_R   0.946098 0.317751 0.317380 -0.137029
C109  C     C_R   0.682499 0.946093 0.682381 -0.137016
C110  C     C_R   0.317423 0.053907 0.317697 -0.137016
C111  C     C_R   0.946093 0.317655 0.682535 -0.137013
C112  C     C_R   0.053913 0.682271 0.317388 -0.137005
C113  C     C_R   0.817502 0.053906 0.182376 -0.137019
C114  C     C_R   0.317444 0.946093 0.682318 -0.137019
C115  C     C_R   0.946098 0.682269 0.317400 -0.137027
C116  C     C_R   0.053908 0.317658 0.682535 -0.137016
C117  C     C_R   0.317423 0.946094 0.317697 -0.137017
C118  C     C_R   0.682499 0.053906 0.682380 -0.137017
C119  C     C_R   0.053913 0.317749 0.317368 -0.137006
C120  C     C_R   0.946094 0.682441 0.682438 -0.137013
C121  C     C_R   0.553910 0.182247 0.317362 -0.137009
C122  C     C_R   0.446094 0.817649 0.682530 -0.137014
C123  C     C_R   0.317842 0.182719 0.446089 -0.137005
C124  C     C_R   0.682373 0.817498 0.553908 -0.137014
C125  C     C_R   0.446094 0.182194 0.682686 -0.137016
C126  C     C_R   0.553910 0.817743 0.317372 -0.137007
C127  C     C_R   0.682344 0.182531 0.553908 -0.137012
C128  C     C_R   0.317815 0.817307 0.446089 -0.137004
C129  C     C_R   0.553909 0.817651 0.682528 -0.137016
C130  C     C_R   0.446095 0.182242 0.317366 -0.137030
C131  C     C_R   0.317816 0.817309 0.553902 -0.137016
C132  C     C_R   0.682345 0.182533 0.446095 -0.137010
C133  C     C_R   0.446095 0.817749 0.317376 -0.137029
C134  C     C_R   0.553909 0.182193 0.682684 -0.137018
C135  C     C_R   0.682374 0.817496 0.446095 -0.137010
C136  C     C_R   0.317843 0.182718 0.553902 -0.137016
C137  C     C_R   0.182610 0.553906 0.682270 -0.137002
C138  C     C_R   0.817451 0.446093 0.317669 -0.137031
C139  C     C_R   0.315761 0.446091 0.180680 -0.137048
C140  C     C_R   0.682544 0.553908 0.817670 -0.137019
C141  C     C_R   0.682545 0.446094 0.817671 -0.137021
C142  C     C_R   0.315762 0.553907 0.180681 -0.137050
C143  C     C_R   0.817452 0.553907 0.317668 -0.137031
C144  C     C_R   0.182610 0.446093 0.682270 -0.137001
C145  C     C_R   0.526885 0.649322 0.850408 -0.130765
C146  C     C_R   0.473104 0.350858 0.149772 -0.130658
C147  C     C_R   0.850643 0.649555 0.473112 -0.130757
C148  C     C_R   0.149024 0.350106 0.526897 -0.130669
C149  C     C_R   0.473105 0.649159 0.149755 -0.130661
C150  C     C_R   0.526884 0.350907 0.850179 -0.130768
C151  C     C_R   0.149062 0.649856 0.526896 -0.130679
C152  C     C_R   0.850683 0.350405 0.473112 -0.130765
C153  C     C_R   0.526876 0.350855 0.149763 -0.130865
C154  C     C_R   0.473113 0.649321 0.850408 -0.130786
C155  C     C_R   0.850683 0.350405 0.526883 -0.130789
C156  C     C_R   0.149052 0.649862 0.473126 -0.131004
C157  C     C_R   0.473113 0.350909 0.850179 -0.130784
C158  C     C_R   0.526877 0.649162 0.149746 -0.130865
C159  C     C_R   0.149015 0.350100 0.473127 -0.131011
C160  C     C_R   0.850642 0.649554 0.526883 -0.130798
C161  C     C_R   0.649621 0.526885 0.149295 -0.130761
C162  C     C_R   0.350287 0.473116 0.850798 -0.130813
C163  C     C_R   0.850389 0.473114 0.649296 -0.130776
C164  C     C_R   0.152090 0.526885 0.353128 -0.130821
C165  C     C_R   0.152090 0.473116 0.353128 -0.130819
C166  C     C_R   0.850389 0.526884 0.649296 -0.130762
C167  C     C_R   0.350287 0.526886 0.850797 -0.130785
C168  C     C_R   0.649621 0.473114 0.149295 -0.130756
C169  C     C_R   0.026884 0.149315 0.850401 -0.130794
C170  C     C_R   0.973110 0.850772 0.149690 -0.130779
C171  C     C_R   0.850682 0.149593 0.973113 -0.130777
C172  C     C_R   0.149067 0.850155 0.026895 -0.130770
C173  C     C_R   0.973110 0.149196 0.149721 -0.130781
C174  C     C_R   0.026883 0.850545 0.850543 -0.130793
C175  C     C_R   0.149035 0.149878 0.026893 -0.130776
C176  C     C_R   0.850641 0.850448 0.973114 -0.130788
C177  C     C_R   0.026881 0.850774 0.149688 -0.130779
C178  C     C_R   0.973113 0.149316 0.850402 -0.130759
C179  C     C_R   0.850641 0.850447 0.026885 -0.130765
C180  C     C_R   0.149035 0.149876 0.973122 -0.130776
C181  C     C_R   0.973112 0.850544 0.850545 -0.130757
C182  C     C_R   0.026881 0.149193 0.149719 -0.130778
C183  C     C_R   0.149067 0.850159 0.973124 -0.130782
C184  C     C_R   0.850682 0.149594 0.026885 -0.130773
C185  C     C_R   0.350986 0.350097 0.973102 -0.130655
C186  C     C_R   0.649357 0.649554 0.026887 -0.130763
C187  C     C_R   0.149661 0.026885 0.149255 -0.130771
C188  C     C_R   0.850457 0.973115 0.850628 -0.130764
C189  C     C_R   0.350969 0.649883 0.026871 -0.131008
C190  C     C_R   0.649313 0.350401 0.973116 -0.130775
C191  C     C_R   0.149629 0.973115 0.850722 -0.130757
C192  C     C_R   0.649546 0.026886 0.350639 -0.130773
C193  C     C_R   0.649358 0.649554 0.973116 -0.130789
C194  C     C_R   0.350994 0.350092 0.026873 -0.131020
C195  C     C_R   0.649546 0.973116 0.350639 -0.130777
C196  C     C_R   0.149629 0.026885 0.850723 -0.130771
C197  C     C_R   0.649312 0.350402 0.026887 -0.130773
C198  C     C_R   0.350959 0.649877 0.973101 -0.130670
C199  C     C_R   0.850456 0.026885 0.850628 -0.130776
C200  C     C_R   0.149661 0.973114 0.149254 -0.130771
C201  C     C_R   0.350368 0.026884 0.649275 -0.130783
C202  C     C_R   0.850456 0.973114 0.149362 -0.130773
C203  C     C_R   0.026887 0.649454 0.649457 -0.130780
C204  C     C_R   0.973124 0.350829 0.350264 -0.130865
C205  C     C_R   0.649546 0.973114 0.649370 -0.130763
C206  C     C_R   0.350338 0.026886 0.350746 -0.130771
C207  C     C_R   0.973115 0.350685 0.649600 -0.130764
C208  C     C_R   0.026896 0.649198 0.350284 -0.130660
C209  C     C_R   0.850455 0.026884 0.149362 -0.130774
C210  C     C_R   0.350369 0.973114 0.649276 -0.130757
C211  C     C_R   0.973124 0.649201 0.350293 -0.130865
C212  C     C_R   0.026887 0.350687 0.649600 -0.130781
C213  C     C_R   0.350338 0.973115 0.350746 -0.130774
C214  C     C_R   0.649547 0.026885 0.649369 -0.130789
C215  C     C_R   0.026896 0.350832 0.350255 -0.130659
C216  C     C_R   0.973115 0.649456 0.649456 -0.130765
C217  C     C_R   0.526890 0.149171 0.350253 -0.130779
C218  C     C_R   0.473116 0.850676 0.649590 -0.130796
C219  C     C_R   0.350957 0.149869 0.473108 -0.130782
C220  C     C_R   0.649359 0.850449 0.526887 -0.130778
C221  C     C_R   0.473116 0.149093 0.649820 -0.130795
C222  C     C_R   0.526890 0.850814 0.350268 -0.130780
C223  C     C_R   0.649316 0.149595 0.526887 -0.130763
C224  C     C_R   0.350917 0.850171 0.473108 -0.130772
C225  C     C_R   0.526887 0.850676 0.649589 -0.130760
C226  C     C_R   0.473119 0.149169 0.350255 -0.130776
C227  C     C_R   0.350917 0.850173 0.526879 -0.130777
C228  C     C_R   0.649316 0.149595 0.473116 -0.130780
C229  C     C_R   0.473118 0.850817 0.350270 -0.130777
C230  C     C_R   0.526888 0.149093 0.649819 -0.130760
C231  C     C_R   0.649360 0.850448 0.473116 -0.130770
C232  C     C_R   0.350958 0.149867 0.526879 -0.130763
C233  C     C_R   0.149709 0.526885 0.649206 -0.130784
C234  C     C_R   0.850381 0.473115 0.350703 -0.130758
C235  C     C_R   0.347900 0.473114 0.146864 -0.130827
C236  C     C_R   0.649613 0.526886 0.850706 -0.130763
C237  C     C_R   0.649614 0.473116 0.850707 -0.130787
C238  C     C_R   0.347901 0.526883 0.146865 -0.130820
C239  C     C_R   0.850381 0.526885 0.350703 -0.130758
C240  C     C_R   0.149710 0.473114 0.649206 -0.130801
C241  C     C_R   0.472706 0.716263 0.783643 0.072437
C242  C     C_R   0.527290 0.283796 0.216412 0.072432
C243  C     C_R   0.783724 0.716344 0.527292 0.072448
C244  C     C_R   0.216160 0.283540 0.472710 0.072519
C245  C     C_R   0.527291 0.716209 0.216406 0.072431
C246  C     C_R   0.472706 0.283817 0.783563 0.072439
C247  C     C_R   0.216173 0.716447 0.472710 0.072518
C248  C     C_R   0.783738 0.283642 0.527292 0.072442
C249  C     C_R   0.472704 0.283794 0.216415 0.072386
C250  C     C_R   0.527293 0.716264 0.783644 0.072437
C251  C     C_R   0.783737 0.283642 0.472706 0.072431
C252  C     C_R   0.216178 0.716446 0.527297 0.072442
C253  C     C_R   0.527292 0.283816 0.783564 0.072439
C254  C     C_R   0.472705 0.716211 0.216409 0.072385
C255  C     C_R   0.216165 0.283540 0.527297 0.072438
C256  C     C_R   0.783724 0.716343 0.472706 0.072429
C257  C     C_R   0.716367 0.472707 0.216255 0.072442
C258  C     C_R   0.283602 0.527293 0.783777 0.072433
C259  C     C_R   0.783636 0.527292 0.716254 0.072435
C260  C     C_R   0.217234 0.472707 0.284598 0.072458
C261  C     C_R   0.217234 0.527293 0.284598 0.072461
C262  C     C_R   0.783636 0.472707 0.716254 0.072440
C263  C     C_R   0.283601 0.472707 0.783777 0.072440
C264  C     C_R   0.716367 0.527293 0.216255 0.072443
C265  C     C_R   0.972706 0.216261 0.783641 0.072432
C266  C     C_R   0.027292 0.783772 0.216392 0.072431
C267  C     C_R   0.783738 0.216358 0.027293 0.072437
C268  C     C_R   0.216170 0.783555 0.972710 0.072430
C269  C     C_R   0.027292 0.216217 0.216403 0.072432
C270  C     C_R   0.972706 0.783690 0.783691 0.072432
C271  C     C_R   0.216160 0.216457 0.972709 0.072427
C272  C     C_R   0.783724 0.783656 0.027293 0.072435
C273  C     C_R   0.972706 0.783769 0.216393 0.072455
C274  C     C_R   0.027292 0.216262 0.783641 0.072448
C275  C     C_R   0.783723 0.783657 0.972706 0.072436
C276  C     C_R   0.216162 0.216458 0.027295 0.072440
C277  C     C_R   0.027292 0.783689 0.783691 0.072448
C278  C     C_R   0.972706 0.216220 0.216404 0.072457
C279  C     C_R   0.216173 0.783553 0.027296 0.072442
C280  C     C_R   0.783738 0.216357 0.972706 0.072431
C281  C     C_R   0.283843 0.283538 0.027289 0.072518
C282  C     C_R   0.716276 0.716344 0.972707 0.072443
C283  C     C_R   0.216381 0.972707 0.216241 0.072435
C284  C     C_R   0.783660 0.027293 0.783719 0.072439
C285  C     C_R   0.283829 0.716453 0.972702 0.072440
C286  C     C_R   0.716261 0.283642 0.027294 0.072429
C287  C     C_R   0.216370 0.027293 0.783752 0.072432
C288  C     C_R   0.716341 0.972708 0.283723 0.072445
C289  C     C_R   0.716277 0.716343 0.027294 0.072429
C290  C     C_R   0.283838 0.283538 0.972703 0.072432
C291  C     C_R   0.716341 0.027293 0.283722 0.072443
C292  C     C_R   0.216370 0.972708 0.783752 0.072428
C293  C     C_R   0.716261 0.283641 0.972707 0.072437
C294  C     C_R   0.283834 0.716453 0.027289 0.072516
C295  C     C_R   0.783660 0.972707 0.783719 0.072434
C296  C     C_R   0.216380 0.027293 0.216241 0.072434
C297  C     C_R   0.283630 0.972707 0.716248 0.072432
C298  C     C_R   0.783660 0.027292 0.216278 0.072443
C299  C     C_R   0.972707 0.716311 0.716308 0.072438
C300  C     C_R   0.027296 0.283785 0.283594 0.072387
C301  C     C_R   0.716341 0.027293 0.716280 0.072446
C302  C     C_R   0.283619 0.972707 0.283759 0.072437
C303  C     C_R   0.027294 0.283739 0.716360 0.072437
C304  C     C_R   0.972710 0.716224 0.283607 0.072431
C305  C     C_R   0.783660 0.972707 0.216278 0.072442
C306  C     C_R   0.283630 0.027292 0.716248 0.072441
C307  C     C_R   0.027296 0.716225 0.283605 0.072385
C308  C     C_R   0.972707 0.283738 0.716359 0.072438
C309  C     C_R   0.283619 0.027293 0.283759 0.072436
C310  C     C_R   0.716341 0.972707 0.716281 0.072439
C311  C     C_R   0.972710 0.283787 0.283597 0.072432
C312  C     C_R   0.027294 0.716310 0.716310 0.072437
C313  C     C_R   0.472708 0.216208 0.283588 0.072431
C314  C     C_R   0.527294 0.783736 0.716357 0.072431
C315  C     C_R   0.283837 0.216453 0.527291 0.072421
C316  C     C_R   0.716276 0.783657 0.472708 0.072435
C317  C     C_R   0.527294 0.216183 0.716437 0.072434
C318  C     C_R   0.472708 0.783787 0.283593 0.072430
C319  C     C_R   0.716261 0.216358 0.472708 0.072434
C320  C     C_R   0.283823 0.783560 0.527291 0.072428
C321  C     C_R   0.472708 0.783735 0.716356 0.072447
C322  C     C_R   0.527294 0.216211 0.283587 0.072456
C323  C     C_R   0.283821 0.783559 0.472705 0.072438
C324  C     C_R   0.716262 0.216358 0.527294 0.072426
C325  C     C_R   0.527294 0.783784 0.283592 0.072455
C326  C     C_R   0.472708 0.216183 0.716436 0.072449
C327  C     C_R   0.716277 0.783657 0.527294 0.072431
C328  C     C_R   0.283835 0.216455 0.472705 0.072439
C329  C     C_R   0.216398 0.472707 0.716223 0.072434
C330  C     C_R   0.783634 0.527293 0.283745 0.072441
C331  C     C_R   0.282763 0.527292 0.215401 0.072459
C332  C     C_R   0.716364 0.472708 0.783746 0.072446
C333  C     C_R   0.716364 0.527293 0.783746 0.072440
C334  C     C_R   0.282763 0.472707 0.215401 0.072461
C335  C     C_R   0.783634 0.472707 0.283745 0.072441
C336  C     C_R   0.216398 0.527293 0.716223 0.072428
C337  C     C_R   0.445941 0.749998 0.750000 -0.143789
C338  C     C_R   0.554058 0.250004 0.249997 -0.143788
C339  C     C_R   0.750000 0.750002 0.554059 -0.143791
C340  C     C_R   0.249999 0.249999 0.445942 -0.143795
C341  C     C_R   0.554059 0.749996 0.249997 -0.143787
C342  C     C_R   0.445941 0.250002 0.750000 -0.143789
C343  C     C_R   0.249998 0.750001 0.445942 -0.143796
C344  C     C_R   0.750000 0.249998 0.554059 -0.143792
C345  C     C_R   0.445941 0.249998 0.250001 -0.143792
C346  C     C_R   0.554059 0.750002 0.750000 -0.143790
C347  C     C_R   0.749999 0.250001 0.445941 -0.143792
C348  C     C_R   0.250003 0.750000 0.554059 -0.143801
C349  C     C_R   0.554059 0.249998 0.750000 -0.143790
C350  C     C_R   0.445940 0.750003 0.250001 -0.143791
C351  C     C_R   0.250003 0.249999 0.554059 -0.143802
C352  C     C_R   0.750000 0.749999 0.445941 -0.143792
C353  C     C_R   0.750000 0.445941 0.250000 -0.143797
C354  C     C_R   0.250000 0.554059 0.750000 -0.143803
C355  C     C_R   0.750000 0.554059 0.750000 -0.143792
C356  C     C_R   0.249999 0.445950 0.250000 -0.143839
C357  C     C_R   0.250000 0.554050 0.250000 -0.143840
C358  C     C_R   0.750000 0.445941 0.750000 -0.143792
C359  C     C_R   0.250000 0.445941 0.750000 -0.143802
C360  C     C_R   0.750000 0.554059 0.250000 -0.143797
C361  C     C_R   0.945941 0.249998 0.750000 -0.143790
C362  C     C_R   0.054059 0.750002 0.249999 -0.143792
C363  C     C_R   0.750000 0.250002 0.054059 -0.143792
C364  C     C_R   0.249997 0.750001 0.945941 -0.143802
C365  C     C_R   0.054059 0.249998 0.249999 -0.143791
C366  C     C_R   0.945941 0.750002 0.750000 -0.143789
C367  C     C_R   0.249997 0.250000 0.945941 -0.143802
C368  C     C_R   0.750000 0.749998 0.054059 -0.143792
C369  C     C_R   0.945942 0.749996 0.250003 -0.143788
C370  C     C_R   0.054059 0.250002 0.750000 -0.143789
C371  C     C_R   0.750000 0.750002 0.945941 -0.143792
C372  C     C_R   0.250002 0.249999 0.054058 -0.143796
C373  C     C_R   0.054058 0.749998 0.750000 -0.143788
C374  C     C_R   0.945942 0.250004 0.250003 -0.143787
C375  C     C_R   0.250001 0.750001 0.054058 -0.143796
C376  C     C_R   0.750000 0.249998 0.945941 -0.143792
C377  C     C_R   0.250000 0.945941 0.250000 -0.143798
C378  C     C_R   0.750000 0.054059 0.750000 -0.143798
C379  C     C_R   0.250000 0.054059 0.750000 -0.143789
C380  C     C_R   0.750000 0.945941 0.250000 -0.143793
C381  C     C_R   0.750000 0.054059 0.250000 -0.143793
C382  C     C_R   0.250000 0.945941 0.750000 -0.143790
C383  C     C_R   0.750000 0.945941 0.750000 -0.143799
C384  C     C_R   0.250000 0.054059 0.250000 -0.143798
O1    O     O_3   0.750000 0.750000 0.750000 -0.495164
O2    O     O_3   0.250000 0.250000 0.250000 -0.495159
O3    O     O_3   0.750000 0.750000 0.250000 -0.495163
O4    O     O_3   0.250000 0.250000 0.750000 -0.495164
O5    O     O_3   0.250000 0.750000 0.250000 -0.495159
O6    O     O_3   0.750000 0.250000 0.750000 -0.495164
O7    O     O_3   0.250000 0.750000 0.750000 -0.495164
O8    O     O_3   0.750000 0.250000 0.250000 -0.495162
O9    O     O_R   0.719640 0.634190 0.719640 -0.633021
O10   O     O_R   0.280360 0.365810 0.280360 -0.633025
O11   O     O_R   0.719640 0.634190 0.280360 -0.633028
O12   O     O_R   0.280360 0.365810 0.719640 -0.633022
O13   O     O_R   0.280360 0.634190 0.280360 -0.633025
O14   O     O_R   0.719640 0.365810 0.719640 -0.633024
O15   O     O_R   0.280360 0.634190 0.719640 -0.633019
O16   O     O_R   0.719640 0.365810 0.280360 -0.633029
O17   O     O_R   0.634190 0.280360 0.280360 -0.633024
O18   O     O_R   0.365810 0.719640 0.719640 -0.633028
O19   O     O_R   0.634190 0.719640 0.280360 -0.633023
O20   O     O_R   0.365810 0.280360 0.719640 -0.633029
O21   O     O_R   0.634190 0.719640 0.719640 -0.633018
O22   O     O_R   0.365810 0.280360 0.280360 -0.632973
O23   O     O_R   0.634190 0.280360 0.719640 -0.633019
O24   O     O_R   0.365810 0.719640 0.280360 -0.632972
O25   O     O_R   0.280360 0.719640 0.365810 -0.633075
O26   O     O_R   0.719640 0.280360 0.634190 -0.633015
O27   O     O_R   0.719640 0.719640 0.365810 -0.633022
O28   O     O_R   0.280360 0.280360 0.634190 -0.633024
O29   O     O_R   0.719640 0.280360 0.365810 -0.633022
O30   O     O_R   0.280360 0.719640 0.634190 -0.633030
O31   O     O_R   0.280360 0.280360 0.365810 -0.633076
O32   O     O_R   0.719640 0.719640 0.634190 -0.633020
O33   O     O_R   0.219640 0.134190 0.719640 -0.633015
O34   O     O_R   0.780360 0.865810 0.280360 -0.633020
O35   O     O_R   0.719640 0.134190 0.780360 -0.633029
O36   O     O_R   0.280360 0.865810 0.219640 -0.633021
O37   O     O_R   0.780360 0.134190 0.280360 -0.633019
O38   O     O_R   0.219640 0.865810 0.719640 -0.633013
O39   O     O_R   0.280360 0.134190 0.219640 -0.633022
O40   O     O_R   0.719640 0.865810 0.780360 -0.633026
O41   O     O_R   0.219640 0.865810 0.280360 -0.633021
O42   O     O_R   0.780360 0.134190 0.719640 -0.633023
O43   O     O_R   0.719640 0.865810 0.219640 -0.633021
O44   O     O_R   0.280360 0.134190 0.780360 -0.633020
O45   O     O_R   0.780360 0.865810 0.719640 -0.633021
O46   O     O_R   0.219640 0.134190 0.280360 -0.633020
O47   O     O_R   0.280360 0.865810 0.780360 -0.633017
O48   O     O_R   0.719640 0.134190 0.219640 -0.633021
O49   O     O_R   0.134190 0.280360 0.780360 -0.633030
O50   O     O_R   0.865810 0.719640 0.219640 -0.633023
O51   O     O_R   0.134190 0.219640 0.280360 -0.633037
O52   O     O_R   0.865810 0.780360 0.719640 -0.633026
O53   O     O_R   0.134190 0.719640 0.219640 -0.632973
O54   O     O_R   0.865810 0.280360 0.780360 -0.633019
O55   O     O_R   0.134190 0.780360 0.719640 -0.633022
O56   O     O_R   0.865810 0.219640 0.280360 -0.633020
O57   O     O_R   0.865810 0.719640 0.780360 -0.633018
O58   O     O_R   0.134190 0.280360 0.219640 -0.632973
O59   O     O_R   0.865810 0.780360 0.280360 -0.633020
O60   O     O_R   0.134190 0.219640 0.719640 -0.633023
O61   O     O_R   0.865810 0.280360 0.219640 -0.633023
O62   O     O_R   0.134190 0.719640 0.780360 -0.633028
O63   O     O_R   0.865810 0.219640 0.719640 -0.633027
O64   O     O_R   0.134190 0.780360 0.280360 -0.633037
O65   O     O_R   0.280360 0.219640 0.865810 -0.633014
O66   O     O_R   0.719640 0.780360 0.134190 -0.633017
O67   O     O_R   0.219640 0.719640 0.865810 -0.633032
O68   O     O_R   0.780360 0.280360 0.134190 -0.633022
O69   O     O_R   0.719640 0.780360 0.865810 -0.633023
O70   O     O_R   0.280360 0.219640 0.134190 -0.633010
O71   O     O_R   0.780360 0.280360 0.865810 -0.633021
O72   O     O_R   0.219640 0.719640 0.134190 -0.633077
O73   O     O_R   0.719640 0.219640 0.134190 -0.633017
O74   O     O_R   0.280360 0.780360 0.865810 -0.633019
O75   O     O_R   0.780360 0.719640 0.134190 -0.633024
O76   O     O_R   0.219640 0.280360 0.865810 -0.633031
O77   O     O_R   0.280360 0.780360 0.134190 -0.633011
O78   O     O_R   0.719640 0.219640 0.865810 -0.633018
O79   O     O_R   0.219640 0.280360 0.134190 -0.633076
O80   O     O_R   0.780360 0.719640 0.865810 -0.633023
O81   O     O_R   0.219640 0.634190 0.219640 -0.633024
O82   O     O_R   0.780360 0.365810 0.780360 -0.633018
O83   O     O_R   0.219640 0.634190 0.780360 -0.633014
O84   O     O_R   0.780360 0.365810 0.219640 -0.633027
O85   O     O_R   0.780360 0.634190 0.780360 -0.633016
O86   O     O_R   0.219640 0.365810 0.219640 -0.633025
O87   O     O_R   0.780360 0.634190 0.219640 -0.633029
O88   O     O_R   0.219640 0.365810 0.780360 -0.633017
O89   O     O_R   0.634190 0.780360 0.780360 -0.633026
O90   O     O_R   0.365810 0.219640 0.219640 -0.633038
O91   O     O_R   0.634190 0.219640 0.780360 -0.633027
O92   O     O_R   0.365810 0.780360 0.219640 -0.633038
O93   O     O_R   0.634190 0.219640 0.219640 -0.633021
O94   O     O_R   0.365810 0.780360 0.780360 -0.633022
O95   O     O_R   0.634190 0.780360 0.219640 -0.633019
O96   O     O_R   0.365810 0.219640 0.780360 -0.633023
O97   O     O_R   0.780360 0.219640 0.365810 -0.633017
O98   O     O_R   0.219640 0.780360 0.634190 -0.633022
O99   O     O_R   0.219640 0.219640 0.365810 -0.633011
O100  O     O_R   0.780360 0.780360 0.634190 -0.633026
O101  O     O_R   0.219640 0.780360 0.365810 -0.633013
O102  O     O_R   0.780360 0.219640 0.634190 -0.633025
O103  O     O_R   0.780360 0.780360 0.365810 -0.633018
O104  O     O_R   0.219640 0.219640 0.634190 -0.633020
Zn1   Zn    Zn3+2 0.706630 0.793370 0.793370 0.966902
Zn2   Zn    Zn3+2 0.293370 0.206630 0.206630 0.966903
Zn3   Zn    Zn3+2 0.793370 0.793370 0.293370 0.966901
Zn4   Zn    Zn3+2 0.206630 0.206630 0.706630 0.966900
Zn5   Zn    Zn3+2 0.293370 0.793370 0.206630 0.966902
Zn6   Zn    Zn3+2 0.706630 0.206630 0.793370 0.966901
Zn7   Zn    Zn3+2 0.206630 0.793370 0.706630 0.966900
Zn8   Zn    Zn3+2 0.793370 0.206630 0.293370 0.966902
Zn9   Zn    Zn3+2 0.706630 0.206630 0.206630 0.966901
Zn10  Zn    Zn3+2 0.293370 0.793370 0.793370 0.966900
Zn11  Zn    Zn3+2 0.793370 0.206630 0.706630 0.966902
Zn12  Zn    Zn3+2 0.206630 0.793370 0.293370 0.966903
Zn13  Zn    Zn3+2 0.293370 0.206630 0.793370 0.966900
Zn14  Zn    Zn3+2 0.706630 0.793370 0.206630 0.966901
Zn15  Zn    Zn3+2 0.206630 0.206630 0.293370 0.966902
Zn16  Zn    Zn3+2 0.793370 0.793370 0.706630 0.966901
Zn17  Zn    Zn3+2 0.793370 0.706630 0.206630 0.966900
Zn18  Zn    Zn3+2 0.206630 0.293370 0.793370 0.966901
Zn19  Zn    Zn3+2 0.793370 0.293370 0.793370 0.966900
Zn20  Zn    Zn3+2 0.206630 0.706630 0.206630 0.966888
Zn21  Zn    Zn3+2 0.206630 0.293370 0.206630 0.966887
Zn22  Zn    Zn3+2 0.793370 0.706630 0.793370 0.966900
Zn23  Zn    Zn3+2 0.206630 0.706630 0.793370 0.966901
Zn24  Zn    Zn3+2 0.793370 0.293370 0.206630 0.966899
Zn25  Zn    Zn3+2 0.706630 0.293370 0.293370 0.966899
Zn26  Zn    Zn3+2 0.293370 0.706630 0.706630 0.966901
Zn27  Zn    Zn3+2 0.293370 0.293370 0.293370 0.966887
Zn28  Zn    Zn3+2 0.706630 0.706630 0.706630 0.966900
Zn29  Zn    Zn3+2 0.293370 0.293370 0.706630 0.966901
Zn30  Zn    Zn3+2 0.706630 0.706630 0.293370 0.966899
Zn31  Zn    Zn3+2 0.706630 0.293370 0.706630 0.966900
Zn32  Zn    Zn3+2 0.293370 0.706630 0.293370 0.966888
H1    H     H_    0.595723 0.680984 0.818836 0.108255
H2    H     H_    0.404270 0.319134 0.181290 0.108422
H3    H     H_    0.818996 0.681137 0.404276 0.108250
H4    H     H_    0.180789 0.318638 0.595731 0.108234
H5    H     H_    0.404271 0.680877 0.181278 0.108422
H6    H     H_    0.595723 0.319172 0.818680 0.108253
H7    H     H_    0.180816 0.681335 0.595730 0.108224
H8    H     H_    0.819023 0.318835 0.404276 0.108255
H9    H     H_    0.595718 0.319135 0.181267 0.108248
H10   H     H_    0.404275 0.680979 0.818838 0.108235
H11   H     H_    0.819020 0.318833 0.595721 0.108249
H12   H     H_    0.180795 0.681346 0.404285 0.108070
H13   H     H_    0.404275 0.319178 0.818680 0.108235
H14   H     H_    0.595718 0.680875 0.181256 0.108252
H15   H     H_    0.180771 0.318630 0.404285 0.108074
H16   H     H_    0.818993 0.681139 0.595721 0.108239
H17   H     H_    0.681183 0.595722 0.180964 0.108238
H18   H     H_    0.318754 0.404278 0.819099 0.108254
H19   H     H_    0.818822 0.404277 0.680963 0.108252
H20   H     H_    0.182872 0.595723 0.320695 0.108347
H21   H     H_    0.182871 0.404278 0.320694 0.108347
H22   H     H_    0.818823 0.595722 0.680964 0.108259
H23   H     H_    0.318755 0.595723 0.819098 0.108269
H24   H     H_    0.681183 0.404277 0.180964 0.108239
H25   H     H_    0.095723 0.180978 0.818830 0.108232
H26   H     H_    0.904273 0.819080 0.181236 0.108259
H27   H     H_    0.819023 0.181163 0.904277 0.108250
H28   H     H_    0.180806 0.818660 0.095729 0.108258
H29   H     H_    0.904273 0.180899 0.181257 0.108257
H30   H     H_    0.095722 0.818926 0.818927 0.108234
H31   H     H_    0.180786 0.181361 0.095728 0.108261
H32   H     H_    0.818995 0.818865 0.904277 0.108240
H33   H     H_    0.095721 0.819087 0.181226 0.108225
H34   H     H_    0.904275 0.180977 0.818834 0.108241
H35   H     H_    0.818992 0.818861 0.095722 0.108261
H36   H     H_    0.180784 0.181356 0.904282 0.108242
H37   H     H_    0.904274 0.818927 0.818931 0.108244
H38   H     H_    0.095721 0.180890 0.181248 0.108222
H39   H     H_    0.180806 0.818668 0.904283 0.108230
H40   H     H_    0.819020 0.181168 0.095722 0.108266
H41   H     H_    0.319216 0.318631 0.904269 0.108252
H42   H     H_    0.681005 0.681137 0.095724 0.108254
H43   H     H_    0.181210 0.095722 0.180937 0.108263
H44   H     H_    0.818869 0.904278 0.818984 0.108257
H45   H     H_    0.319220 0.681359 0.095714 0.108073
H46   H     H_    0.680978 0.318830 0.904278 0.108268
H47   H     H_    0.181189 0.904278 0.819048 0.108280
H48   H     H_    0.681132 0.095723 0.318991 0.108240
H49   H     H_    0.681008 0.681139 0.904278 0.108250
H50   H     H_    0.319235 0.318626 0.095714 0.108076
H51   H     H_    0.681133 0.904278 0.318992 0.108238
H52   H     H_    0.181189 0.095722 0.819048 0.108273
H53   H     H_    0.680974 0.318835 0.095724 0.108256
H54   H     H_    0.319197 0.681349 0.904268 0.108235
H55   H     H_    0.818868 0.095722 0.818985 0.108250
H56   H     H_    0.181210 0.904277 0.180936 0.108263
H57   H     H_    0.318810 0.095722 0.680951 0.108256
H58   H     H_    0.818869 0.904277 0.181009 0.108241
H59   H     H_    0.095725 0.681069 0.681071 0.108236
H60   H     H_    0.904282 0.319118 0.318752 0.108248
H61   H     H_    0.681132 0.904277 0.681015 0.108246
H62   H     H_    0.318789 0.095723 0.319064 0.108260
H63   H     H_    0.904277 0.319021 0.681169 0.108252
H64   H     H_    0.095730 0.680905 0.318748 0.108423
H65   H     H_    0.818868 0.095722 0.181009 0.108242
H66   H     H_    0.318810 0.904277 0.680952 0.108269
H67   H     H_    0.904282 0.680903 0.318771 0.108252
H68   H     H_    0.095725 0.319026 0.681168 0.108234
H69   H     H_    0.318789 0.904278 0.319064 0.108258
H70   H     H_    0.681133 0.095722 0.681014 0.108233
H71   H     H_    0.095730 0.319116 0.318728 0.108421
H72   H     H_    0.904277 0.681076 0.681071 0.108255
H73   H     H_    0.595727 0.180882 0.318725 0.108257
H74   H     H_    0.404277 0.819016 0.681164 0.108236
H75   H     H_    0.319209 0.181354 0.404272 0.108263
H76   H     H_    0.681006 0.818865 0.595724 0.108250
H77   H     H_    0.404278 0.180826 0.681322 0.108234
H78   H     H_    0.595726 0.819108 0.318737 0.108260
H79   H     H_    0.680977 0.181165 0.595724 0.108268
H80   H     H_    0.319182 0.818673 0.404273 0.108261
H81   H     H_    0.595725 0.819018 0.681161 0.108244
H82   H     H_    0.404279 0.180873 0.318734 0.108223
H83   H     H_    0.319184 0.818676 0.595718 0.108241
H84   H     H_    0.680979 0.181167 0.404279 0.108267
H85   H     H_    0.404279 0.819118 0.318744 0.108226
H86   H     H_    0.595725 0.180825 0.681317 0.108242
H87   H     H_    0.681009 0.818862 0.404278 0.108266
H88   H     H_    0.319210 0.181351 0.595718 0.108260
H89   H     H_    0.181244 0.595722 0.680903 0.108277
H90   H     H_    0.818818 0.404278 0.319035 0.108241
H91   H     H_    0.317122 0.404276 0.179301 0.108347
H92   H     H_    0.681178 0.595723 0.819037 0.108248
H93   H     H_    0.681179 0.404279 0.819039 0.108235
H94   H     H_    0.317123 0.595722 0.179302 0.108346
H95   H     H_    0.818818 0.595723 0.319035 0.108240
H96   H     H_    0.181244 0.404277 0.680903 0.108271
H97   H     H_    0.547779 0.876362 0.623969 0.116872
H98   H     H_    0.452229 0.123444 0.375838 0.116836
H99   H     H_    0.623683 0.876076 0.452225 0.116920
H100  H     H_    0.376712 0.124315 0.547768 0.116931
H101  H     H_    0.452228 0.876538 0.375857 0.116843
H102  H     H_    0.547780 0.123352 0.624254 0.116865
H103  H     H_    0.376661 0.875736 0.547768 0.116878
H104  H     H_    0.623628 0.123978 0.452225 0.116928
H105  H     H_    0.547783 0.123450 0.375835 0.116869
H106  H     H_    0.452225 0.876363 0.623973 0.116839
H107  H     H_    0.623626 0.123978 0.547780 0.116942
H108  H     H_    0.376661 0.875733 0.452215 0.116898
H109  H     H_    0.452225 0.123350 0.624258 0.116833
H110  H     H_    0.547783 0.876532 0.375854 0.116877
H111  H     H_    0.376711 0.124317 0.452214 0.116905
H112  H     H_    0.623682 0.876078 0.547779 0.116889
H113  H     H_    0.875994 0.547776 0.376396 0.116863
H114  H     H_    0.124120 0.452223 0.623490 0.116934
H115  H     H_    0.624001 0.452225 0.876402 0.116829
H116  H     H_    0.372916 0.547773 0.120584 0.117015
H117  H     H_    0.372914 0.452223 0.120583 0.117018
H118  H     H_    0.624000 0.547778 0.876400 0.116866
H119  H     H_    0.124119 0.547777 0.623491 0.116954
H120  H     H_    0.875993 0.452224 0.376396 0.116866
H121  H     H_    0.047778 0.376378 0.623985 0.116835
H122  H     H_    0.952234 0.623482 0.375882 0.116936
H123  H     H_    0.623623 0.376016 0.952224 0.116930
H124  H     H_    0.376742 0.624349 0.047755 0.116388
H125  H     H_    0.952234 0.376555 0.375847 0.116928
H126  H     H_    0.047778 0.623797 0.623807 0.116841
H127  H     H_    0.376772 0.375621 0.047758 0.116396
H128  H     H_    0.623680 0.623927 0.952225 0.116877
H129  H     H_    0.047793 0.623471 0.375860 0.117385
H130  H     H_    0.952224 0.376374 0.623983 0.116884
H131  H     H_    0.623678 0.623927 0.047779 0.116912
H132  H     H_    0.376750 0.375636 0.952208 0.116863
H133  H     H_    0.952224 0.623802 0.623805 0.116890
H134  H     H_    0.047793 0.376566 0.375824 0.117378
H135  H     H_    0.376716 0.624329 0.952206 0.116809
H136  H     H_    0.623622 0.376018 0.047778 0.116920
H137  H     H_    0.123280 0.124324 0.952233 0.116881
H138  H     H_    0.876318 0.876075 0.047776 0.116908
H139  H     H_    0.375938 0.047777 0.376452 0.116913
H140  H     H_    0.623916 0.952223 0.623694 0.116868
H141  H     H_    0.123320 0.875714 0.047789 0.116885
H142  H     H_    0.876370 0.123973 0.952222 0.116892
H143  H     H_    0.375977 0.952222 0.623576 0.116933
H144  H     H_    0.876085 0.047776 0.123685 0.116848
H145  H     H_    0.876318 0.876077 0.952222 0.116860
H146  H     H_    0.123280 0.124328 0.047786 0.116897
H147  H     H_    0.876086 0.952223 0.123685 0.116844
H148  H     H_    0.375975 0.047776 0.623575 0.116895
H149  H     H_    0.876369 0.123976 0.047776 0.116918
H150  H     H_    0.123321 0.875720 0.952235 0.116848
H151  H     H_    0.623918 0.047775 0.623692 0.116831
H152  H     H_    0.375938 0.952224 0.376451 0.116907
H153  H     H_    0.124020 0.047777 0.876421 0.116949
H154  H     H_    0.623916 0.952225 0.376317 0.116836
H155  H     H_    0.047774 0.876200 0.876193 0.116835
H156  H     H_    0.952217 0.123480 0.124133 0.116867
H157  H     H_    0.876088 0.952223 0.876302 0.116903
H158  H     H_    0.124060 0.047776 0.123550 0.116921
H159  H     H_    0.952221 0.123627 0.876020 0.116865
H160  H     H_    0.047772 0.876484 0.124090 0.116838
H161  H     H_    0.623916 0.047777 0.376317 0.116841
H162  H     H_    0.124019 0.952223 0.876420 0.116971
H163  H     H_    0.952217 0.876480 0.124094 0.116875
H164  H     H_    0.047775 0.123626 0.876017 0.116830
H165  H     H_    0.124060 0.952223 0.123550 0.116920
H166  H     H_    0.876087 0.047776 0.876303 0.116882
H167  H     H_    0.047771 0.123474 0.124130 0.116831
H168  H     H_    0.952220 0.876198 0.876197 0.116871
H169  H     H_    0.547766 0.376587 0.124187 0.116930
H170  H     H_    0.452222 0.623632 0.876026 0.116838
H171  H     H_    0.123239 0.375632 0.452242 0.116388
H172  H     H_    0.876320 0.623927 0.547774 0.116847
H173  H     H_    0.452221 0.376654 0.875741 0.116835
H174  H     H_    0.547767 0.623433 0.124166 0.116938
H175  H     H_    0.876370 0.376023 0.547774 0.116880
H176  H     H_    0.123285 0.624322 0.452241 0.116377
H177  H     H_    0.547776 0.623636 0.876027 0.116891
H178  H     H_    0.452207 0.376599 0.124211 0.117381
H179  H     H_    0.123310 0.624303 0.547790 0.116780
H180  H     H_    0.876372 0.376022 0.452220 0.116910
H181  H     H_    0.452208 0.623422 0.124189 0.117385
H182  H     H_    0.547776 0.376649 0.875742 0.116884
H183  H     H_    0.876323 0.623927 0.452220 0.116900
H184  H     H_    0.123262 0.375650 0.547791 0.116813
H185  H     H_    0.375875 0.547778 0.876514 0.116925
H186  H     H_    0.624009 0.452223 0.123602 0.116860
H187  H     H_    0.127072 0.452225 0.379405 0.117019
H188  H     H_    0.876005 0.547776 0.623604 0.116901
H189  H     H_    0.876004 0.452222 0.623603 0.116879
H190  H     H_    0.127072 0.547776 0.379406 0.117016
H191  H     H_    0.624009 0.547776 0.123602 0.116854
H192  H     H_    0.375874 0.452224 0.876516 0.116885

loop_
_geom_bond_atom_site_label_1
_geom_bond_atom_site_label_2
_ccdc_geom_bond_type
C317  C326  A    
O39   Zn2   S    
C124  C220  A    
C227  H103  S    
C113  C298  A    
O64   Zn12  S    
C209  H144  S    
O6    Zn6   S    
C288  C380  A    
C186  C193  A    
C188  H157  S    
C199  H166  S    
C119  C300  A    
C128  C224  A    
C43   O74   A    
C16   O24   A    
C247  C252  A    
C71   C258  A    
C27   O42   A    
C272  C368  A    
C79   C276  A    
C221  H109  S    
C222  H110  S    
O91   Zn6   S    
C330  C360  A    
C47   C376  S    
C26   O43   A    
C113  H65   S    
O5    Zn12  S    
C1    O85   A    
C317  C349  A    
C34   O50   A    
C85   C270  A    
C170  H163  S    
C15   O91   A    
C194  H127  S    
C99   C195  A    
O73   Zn9   S    
C235  H117  S    
C42   O66   A    
C312  C373  A    
C97   C193  A    
C178  H159  S    
C84   C180  A    
O25   Zn32  S    
C191  C196  A    
C237  H115  S    
C176  C179  A    
O29   Zn25  S    
C222  C229  A    
C147  H183  S    
C7    O83   A    
C302  C377  A    
C240  H114  S    
C180  H137  S    
C22   O98   A    
C5    O81   A    
C219  C232  A    
C10   C337  S    
C38   O54   A    
C217  C226  A    
O76   Zn18  S    
C300  C365  A    
O24   Zn32  S    
C38   C361  S    
C99   H51   S    
C130  C313  A    
C131  C320  A    
C197  H136  S    
C132  C319  A    
C63   H15   S    
O85   Zn22  S    
C111  C308  A    
C51   C256  A    
C9    O17   A    
C203  C216  A    
C54   H6    S    
C173  H156  S    
O8    Zn24  S    
O46   Zn15  S    
C216  H133  S    
C100  C196  A    
C283  C377  A    
C219  H111  S    
C295  C383  A    
O43   Zn14  S    
C320  C323  A    
C271  C367  A    
C28   O41   A    
C37   O64   A    
O90   Zn2   S    
C38   O63   A    
C41   C367  S    
C276  C372  A    
C22   C348  S    
C62   C245  A    
C129  H81   S    
C62   H14   S    
C108  C311  A    
O38   Zn7   S    
C129  C314  A    
O2    Zn2   S    
C145  H177  S    
C41   O76   A    
C31   O46   A    
C83   H35   S    
C3    C360  S    
O84   Zn24  S    
C133  H85   S    
C50   H2    S    
C57   C242  A    
C213  H152  S    
C13   C346  S    
O51   Zn15  S    
C100  C287  A    
C82   C178  A    
C289  C368  A    
O19   Zn30  S    
O77   Zn5   S    
C314  C346  A    
C112  C208  A    
C284  C295  A    
C48   O72   A    
C69   C260  A    
C49   C250  A    
C316  C352  A    
C77   C173  A    
C70   C259  A    
C205  C214  A    
C253  C349  A    
O12   Zn29  S    
C260  C356  A    
C334  C356  A    
C311  C374  A    
C169  H164  S    
C65   C264  A    
O14   Zn31  S    
C187  H158  S    
C66   C263  A    
O82   Zn19  S    
C192  H161  S    
O7    Zn10  S    
C177  H160  S    
C37   O53   A    
C29   O37   A    
C66   H18   S    
C12   O96   A    
O7    Zn26  S    
C204  C215  A    
C179  H138  S    
C242  C249  A    
C112  H64   S    
C40   O61   A    
C127  H79   S    
C86   C182  A    
C70   H22   S    
O53   Zn20  S    
C59   H11   S    
C48   O77   A    
C65   H17   S    
C254  C350  A    
C55   C151  A    
C184  H149  S    
C246  C253  A    
C301  C378  A    
C6    O14   A    
C310  C383  A    
C116  C303  A    
C187  C200  A    
C117  C302  A    
O63   Zn11  S    
C140  C333  A    
C287  C379  A    
O30   Zn26  S    
C200  H165  S    
O72   Zn20  S    
C42   O75   A    
O33   Zn4   S    
C79   H31   S    
C272  C275  A    
C329  C336  A    
O7    Zn7   S    
C82   C265  A    
C83   C272  A    
O6    Zn11  S    
C2    C356  S    
O2    Zn21  S    
C234  H120  S    
C78   H30   S    
O1    Zn22  S    
C130  C226  A    
O88   Zn18  S    
C65   C161  A    
O97   Zn8   S    
C28   C377  S    
C22   O30   A    
C40   O56   A    
C39   C373  S    
C190  H123  S    
O59   Zn3   S    
C190  C197  A    
C123  H75   S    
O48   Zn9   S    
C134  H86   S    
C89   H41   S    
O5    Zn32  S    
C8    C353  S    
C14   C345  S    
C150  C157  A    
C45   C371  S    
C85   H37   S    
C300  C311  A    
C63   C159  A    
C152  H180  S    
C274  C370  A    
C30   C382  S    
C156  H176  S    
C98   C281  A    
O4    Zn18  S    
C8    O16   A    
C64   C243  A    
C99   C288  A    
C247  C343  A    
C293  C376  A    
C92   C295  A    
C66   C162  A    
C270  C277  A    
C52   H4    S    
C52   C255  A    
C112  C307  A    
C215  H134  S    
C87   C183  A    
C44   O73   A    
C101  C197  A    
C88   C184  A    
C55   H7    S    
C266  C273  A    
C296  C384  A    
C56   C251  A    
C162  H192  S    
C267  C280  A    
C87   H39   S    
C236  C237  A    
C28   O36   A    
C21   C347  S    
C76   C172  A    
C251  C347  A    
C277  C373  A    
O102  Zn11  S    
C314  C321  A    
C298  C381  A    
O55   Zn7   S    
C282  C371  A    
C36   O52   A    
C221  C230  A    
C15   C349  S    
C114  C297  A    
C176  H145  S    
C24   O32   A    
C285  C364  A    
C115  C304  A    
C49   H1    S    
C48   C375  S    
C58   C154  A    
C149  C158  A    
C283  C296  A    
O60   Zn4   S    
C46   C372  S    
O3    Zn30  S    
C107  H59   S    
C203  H126  S    
C72   C257  A    
C52   C148  A    
C71   C167  A    
C53   C149  A    
C290  C367  A    
C72   C168  A    
C95   C292  A    
C315  C351  A    
C147  C160  A    
C134  C317  A    
C228  H104  S    
C133  C229  A    
C304  C307  A    
C136  C315  A    
C271  C276  A    
C261  C357  A    
C230  H102  S    
C232  H100  S    
C332  C333  A    
C110  C206  A    
O70   Zn2   S    
C257  C353  A    
O57   Zn22  S    
C268  C364  A    
C137  H89   S    
C189  H124  S    
C111  H63   S    
C61   C246  A    
C24   O100  A    
C305  C380  A    
C19   O103  A    
C39   O55   A    
C19   C352  S    
C84   H36   S    
C143  C239  A    
C91   H43   S    
C77   C278  A    
C285  C294  A    
C69   H21   S    
O54   Zn19  S    
C58   H10   S    
O21   Zn28  S    
C107  C203  A    
C20   O104  A    
C7    C354  S    
C322  C338  A    
C19   O27   A    
C105  C201  A    
C72   H24   S    
C275  C371  A    
C73   C274  A    
C17   O25   A    
C1    C355  S    
C62   C158  A    
C109  C205  A    
O16   Zn25  S    
C163  H189  S    
C33   C370  S    
C328  C340  A    
O35   Zn6   S    
C294  C375  A    
C41   O65   A    
C301  C310  A    
C330  C335  A    
C218  H106  S    
C267  C363  A    
C324  C344  A    
C235  C238  A    
O18   Zn26  S    
C248  C344  A    
O34   Zn3   S    
C202  C209  A    
C3    O87   A    
C326  C342  A    
C4    C359  S    
C111  C207  A    
C103  C284  A    
C331  C357  A    
C76   H28   S    
O71   Zn19  S    
C278  C374  A    
C91   C187  A    
C224  H108  S    
C191  H162  S    
C231  H99   S    
O98   Zn7   S    
C84   C271  A    
C236  H118  S    
C89   C185  A    
C335  C353  A    
O8    Zn8   S    
C306  C379  A    
C185  H132  S    
C159  H171  S    
C260  C261  A    
C132  H84   S    
C9    O93   A    
C92   C188  A    
C266  C362  A    
C80   H32   S    
C303  C308  A    
C125  C221  A    
C239  H113  S    
C315  C328  A    
C323  C343  A    
C35   C365  S    
C115  C211  A    
C75   C280  A    
C238  H116  S    
C96   C192  A    
C154  H170  S    
C192  C195  A    
O79   Zn21  S    
C81   C177  A    
C97   H49   S    
C172  C183  A    
C50   C146  A    
C81   C266  A    
C171  H142  S    
C31   C384  S    
C128  H80   S    
C307  C362  A    
C63   C244  A    
C302  C309  A    
C26   C380  S    
C71   H23   S    
O61   Zn24  S    
C101  H53   S    
C134  C230  A    
C46   O79   A    
C331  C334  A    
C69   C165  A    
C44   O68   A    
C103  H55   S    
C298  C305  A    
C104  H56   S    
C67   C163  A    
O96   Zn13  S    
C329  C359  A    
C30   O38   A    
C60   C247  A    
O66   Zn14  S    
C129  C225  A    
C39   O62   A    
C55   C252  A    
C263  C359  A    
O41   Zn12  S    
C137  C233  A    
O56   Zn8   S    
C223  H107  S    
O40   Zn1   S    
C113  C209  A    
C303  C370  A    
C138  C335  A    
C114  H66   S    
C175  H146  S    
C81   H33   S    
C286  C363  A    
C4    O12   A    
C241  C337  A    
C201  C210  A    
C5    O13   A    
C172  H141  S    
O80   Zn22  S    
C313  C322  A    
O1    Zn28  S    
C11   O19   A    
O2    Zn27  S    
O94   Zn10  S    
C94   C190  A    
O93   Zn9   S    
O8    Zn9   S    
C164  C165  A    
C20   C351  S    
C166  H188  S    
C202  H147  S    
C2    O86   A    
O67   Zn23  S    
C132  C228  A    
C279  C375  A    
C155  H175  S    
O4    Zn13  S    
C193  H128  S    
C233  H119  S    
C25   O44   A    
O74   Zn10  S    
C98   C194  A    
C74   H26   S    
C123  C328  A    
C160  H172  S    
C269  C365  A    
O26   Zn31  S    
C20   O28   A    
C17   C343  S    
O27   Zn30  S    
C21   O29   A    
C185  C194  A    
C258  C263  A    
C102  H54   S    
C121  C322  A    
C109  C310  A    
C23   O99   A    
C106  C202  A    
C90   H42   S    
C6    O82   A    
C299  C366  A    
C57   H9    S    
O20   Zn29  S    
C56   C152  A    
C21   O97   A    
C16   C350  S    
C220  C231  A    
O23   Zn31  S    
C105  C306  A    
C143  H95   S    
C12   O20   A    
C68   C164  A    
C13   O21   A    
C37   C362  S    
C244  C340  A    
C168  H186  S    
C196  H153  S    
O86   Zn21  S    
C167  H185  S    
C14   O22   A    
C198  H135  S    
O15   Zn26  S    
C121  C217  A    
C64   H16   S    
C327  C339  A    
C43   C364  S    
O95   Zn14  S    
C153  H169  S    
C280  C376  A    
C102  C285  A    
C10   O94   A    
C170  C177  A    
C141  H93   S    
C208  H129  S    
C135  C231  A    
O42   Zn11  S    
C163  C166  A    
C86   C269  A    
C54   C150  A    
O89   Zn1   S    
O101  Zn12  S    
C161  H191  S    
C85   C181  A    
O3    Zn3   S    
O17   Zn25  S    
C123  C219  A    
C80   C275  A    
C243  C256  A    
C118  C301  A    
C23   O31   A    
C148  C159  A    
C288  C291  A    
C120  C299  A    
C318  C325  A    
C309  C384  A    
C61   C157  A    
C108  H60   S    
C135  H87   S    
C214  H151  S    
C171  C184  A    
C13   O89   A    
C268  C279  A    
C152  C155  A    
C95   H47   S    
C256  C352  A    
C15   O23   A    
C220  H112  S    
O99   Zn15  S    
C49   C145  A    
O78   Zn6   S    
C151  C156  A    
C158  H174  S    
O5    Zn20  S    
C175  C180  A    
O52   Zn16  S    
C206  C213  A    
C116  H68   S    
C96   H48   S    
C93   C189  A    
O62   Zn23  S    
O13   Zn32  S    
C138  C234  A    
C120  C216  A    
C45   O69   A    
C120  H72   S    
C224  C227  A    
C249  C345  A    
C94   C293  A    
C211  H122  S    
C43   O67   A    
C270  C366  A    
C42   C368  S    
C319  C324  A    
O31   Zn27  S    
C124  H76   S    
C76   C279  A    
C27   O35   A    
C109  H61   S    
C292  C382  A    
C241  C250  A    
C78   C277  A    
C25   O33   A    
C86   H38   S    
C182  H167  S    
C201  H148  S    
C73   H25   S    
O2    Zn15  S    
C88   C267  A    
O100  Zn16  S    
C139  C334  A    
C83   C179  A    
C90   C186  A    
C245  C254  A    
C74   C273  A    
C18   O26   A    
C128  C323  A    
C282  C289  A    
C102  C198  A    
C104  C283  A    
C91   C296  A    
C105  H57   S    
O69   Zn1   S    
C124  C327  A    
C114  C210  A    
C146  C153  A    
C57   C153  A    
O44   Zn13  S    
C264  C360  A    
C208  C211  A    
C101  C286  A    
C217  H105  S    
C35   O51   A    
C5    C357  S    
C142  H94   S    
C23   C340  S    
C229  H101  S    
C131  C227  A    
C135  C316  A    
C269  C278  A    
C131  H83   S    
O11   Zn30  S    
O1    Zn1   S    
O36   Zn5   S    
C130  H82   S    
C90   C289  A    
C145  C154  A    
C82   H34   S    
C144  H96   S    
C75   H27   S    
C18   C344  S    
C281  C290  A    
C115  H67   S    
O4    Zn29  S    
C189  C198  A    
C148  H184  S    
O47   Zn10  S    
C204  H125  S    
C122  H74   S    
C119  C215  A    
O6    Zn31  S    
C116  C212  A    
C121  H73   S    
C257  C264  A    
C30   O47   A    
C40   C374  S    
C255  C351  A    
C96   C291  A    
O32   Zn28  S    
C259  C262  A    
C225  H97   S    
C142  C331  A    
C143  C330  A    
C60   C156  A    
C273  C369  A    
C151  H179  S    
C127  C223  A    
C25   C379  S    
C195  H154  S    
C144  C240  A    
C313  C345  A    
C10   O18   A    
C206  H139  S    
C59   C248  A    
C233  C240  A    
C31   O39   A    
C133  C318  A    
C45   O80   A    
C53   H5    S    
C70   C166  A    
C36   C366  S    
C286  C293  A    
C284  C378  A    
C3    O11   A    
O49   Zn18  S    
C265  C361  A    
C56   H8    S    
O104  Zn4   S    
C207  H130  S    
C1    O9    A    
C126  C325  A    
C44   C363  S    
C291  C381  A    
C94   H46   S    
C33   O49   A    
C100  H52   S    
O75   Zn17  S    
C61   H13   S    
C75   C171  A    
C210  H143  S    
C181  H168  S    
C244  C255  A    
C319  C347  A    
C93   C294  A    
C142  C238  A    
C140  C236  A    
C141  C332  A    
C60   H12   S    
C32   O45   A    
C218  C225  A    
C47   O78   A    
C248  C251  A    
C12   C342  S    
C174  H155  S    
C262  C358  A    
C106  H58   S    
C245  C341  A    
C98   H50   S    
C64   C160  A    
C157  H173  S    
O6    Zn19  S    
C11   C341  S    
C35   O58   A    
C165  H187  S    
C174  C181  A    
C68   C261  A    
C164  H190  S    
C16   O92   A    
C33   O60   A    
C6    C358  S    
C332  C358  A    
C34   O59   A    
C32   O40   A    
C77   H29   S    
C79   C175  A    
C212  H121  S    
C87   C268  A    
C119  H71   S    
C80   C176  A    
O58   Zn21  S    
C118  C214  A    
C104  C200  A    
C281  C372  A    
O65   Zn13  S    
C59   C155  A    
C223  C228  A    
C14   O90   A    
C122  C321  A    
C188  C199  A    
C8    O84   A    
C183  H150  S    
C162  C167  A    
C110  C309  A    
C68   H20   S    
C2    O10   A    
C186  H131  S    
C58   C241  A    
C117  C213  A    
C252  C348  A    
C4    O88   A    
O3    Zn14  S    
C29   C381  S    
O22   Zn27  S    
C150  H182  S    
O4    Zn4   S    
C89   C290  A    
C106  C305  A    
C321  C337  A    
C226  H98   S    
C51   C147  A    
C107  C312  A    
O5    Zn5   S    
C7    O15   A    
C246  C342  A    
C103  C199  A    
C127  C324  A    
C34   C369  S    
C258  C354  A    
C50   C249  A    
C88   H40   S    
O45   Zn16  S    
C67   H19   S    
C24   C339  S    
C308  C361  A    
C318  C350  A    
C18   O102  A    
C207  C212  A    
C54   C253  A    
O92   Zn5   S    
C140  H92   S    
C320  C348  A    
C11   O95   A    
C144  C329  A    
C297  C306  A    
C67   C262  A    
C325  C341  A    
C32   C383  S    
C138  H90   S    
C36   O57   A    
O9    Zn28  S    
O10   Zn27  S    
O37   Zn8   S    
C141  C237  A    
C95   C191  A    
C122  C218  A    
C336  C354  A    
C287  C292  A    
C297  C382  A    
C146  H178  S    
O83   Zn23  S    
C137  C336  A    
C51   H3    S    
C173  C182  A    
C126  C222  A    
C250  C346  A    
C243  C339  A    
C110  H62   S    
C92   H44   S    
O68   Zn24  S    
C149  H181  S    
C136  H88   S    
C9    C338  S    
C242  C338  A    
C108  C204  A    
C97   C282  A    
C139  C235  A    
C205  H140  S    
C47   O71   A    
C73   C169  A    
O50   Zn17  S    
C125  H77   S    
C299  C312  A    
C118  H70   S    
C27   C378  S    
C125  C326  A    
C333  C355  A    
C117  H69   S    
C234  C239  A    
C74   C170  A    
C161  C168  A    
C46   O70   A    
C169  C178  A    
O81   Zn20  S    
O28   Zn29  S    
C259  C355  A    
C265  C274  A    
C139  H91   S    
C53   C254  A    
O8    Zn25  S    
C78   C174  A    
C17   O101  A    
O87   Zn17  S    
O103  Zn3   S    
C126  H78   S    
O7    Zn23  S    
C316  C327  A    
C93   H45   S    
C29   O48   A    
C26   O34   A    
O3    Zn17  S    
C304  C369  A    
C136  C232  A    
O1    Zn16  S    
