data_mof_unit_39667.cif
_audit_creation_date              2012-12-10T17:14:25-0500
_audit_creation_method            fapswitch 2.2
_symmetry_space_group_name_H-M    P1
_symmetry_Int_Tables_number       1
_space_group_crystal_system       triclinic
_cell_length_a                    15.748368
_cell_length_b                    14.772649
_cell_length_c                    10.146227
_cell_angle_alpha                 90.00079
_cell_angle_beta                  83.359392
_cell_angle_gamma                 89.998684
_cell_volume                      2344.63386001

loop_
_atom_site_label
_atom_site_type_symbol
_atom_type_description
_atom_site_fract_x
_atom_site_fract_y
_atom_site_fract_z
_atom_type_partial_charge
C1    C     C_R   0.385786 0.118430 0.554811 0.947382
C2    C     C_2   0.508724 0.984497 0.070669 -0.146758
C3    C     C_2   0.991255 0.484535 0.929322 -0.146662
C4    C     C_2   0.008703 0.484477 0.070650 -0.147053
C5    C     C_2   0.332530 0.801878 0.579993 -0.369976
C6    C     C_2   0.685140 0.178835 0.411256 -0.382815
C7    C     C_2   0.667453 0.801857 0.420012 -0.370019
C8    C     C_2   0.314842 0.178818 0.588758 -0.382848
C9    C     C_2   0.832533 0.301872 0.579990 -0.369979
C10   C     C_2   0.185141 0.678835 0.411254 -0.382844
C11   C     C_2   0.167450 0.301852 0.420018 -0.369992
C12   C     C_R   0.610595 0.877625 0.447011 0.938251
C13   C     C_2   0.814844 0.678820 0.588754 -0.382826
C14   C     C_2   0.303898 0.760243 0.477550 -0.158254
C15   C     C_2   0.738975 0.192754 0.501180 -0.143190
C16   C     C_2   0.696080 0.760220 0.522457 -0.158139
C17   C     C_2   0.261003 0.192730 0.498838 -0.143158
C18   C     C_2   0.803900 0.260239 0.477548 -0.158155
C19   C     C_2   0.238964 0.692769 0.501188 -0.143180
C20   C     C_2   0.196075 0.260216 0.522466 -0.158272
C21   C     C_2   0.761015 0.692742 0.498824 -0.143204
C22   C     C_R   0.369400 0.035067 0.145126 0.268146
C23   C     C_R   0.614209 0.118434 0.445192 0.947395
C24   C     C_R   0.294849 0.987422 0.191170 -0.162164
C25   C     C_R   0.214570 0.023674 0.175749 -0.180330
C26   C     C_R   0.208330 0.108162 0.115540 -0.123993
C27   C     C_R   0.282361 0.156636 0.070928 -0.172390
C28   C     C_R   0.362700 0.120607 0.086327 -0.174547
C29   C     C_R   0.630614 0.034999 0.854890 0.268239
C30   C     C_R   0.705121 0.987165 0.809255 -0.162329
C31   C     C_R   0.785417 0.023336 0.824741 -0.180082
C32   C     C_R   0.791721 0.107932 0.884584 -0.123936
C33   C     C_R   0.717736 0.156587 0.928779 -0.172652
C34   C     C_R   0.389400 0.877632 0.552991 0.938222
C35   C     C_R   0.637377 0.120636 0.913329 -0.174397
C36   C     C_R   0.869405 0.535074 0.145155 0.268241
C37   C     C_R   0.794873 0.487279 0.190824 -0.162326
C38   C     C_R   0.714590 0.523595 0.175531 -0.179952
C39   C     C_R   0.708326 0.608302 0.115852 -0.124036
C40   C     C_R   0.782342 0.656897 0.071593 -0.172676
C41   C     C_R   0.862689 0.620791 0.086836 -0.174183
C42   C     C_R   0.130589 0.535102 0.854879 0.268043
C43   C     C_R   0.205171 0.487605 0.808549 -0.162044
C44   C     C_R   0.285428 0.523913 0.823946 -0.180518
C45   C     C_R   0.885787 0.618431 0.554810 0.947388
C46   C     C_R   0.291620 0.608303 0.884439 -0.124071
C47   C     C_R   0.217561 0.656629 0.929347 -0.172223
C48   C     C_R   0.137243 0.620557 0.913948 -0.174638
C49   C     C_R   0.110595 0.377624 0.447012 0.938218
C50   C     C_R   0.114209 0.618434 0.445192 0.947391
C51   C     C_R   0.889400 0.377631 0.552991 0.938245
C52   C     C_2   0.491281 0.984489 0.929334 -0.146921
H1    H     H_    0.731268 0.159626 0.597641 0.206990
H2    H     H_    0.313038 0.781107 0.681856 0.155188
H3    H     H_    0.307014 0.212437 0.684781 0.147227
H4    H     H_    0.686940 0.781077 0.318149 0.155113
H5    H     H_    0.192976 0.712442 0.315224 0.147191
H6    H     H_    0.813048 0.281093 0.681851 0.155127
H7    H     H_    0.807006 0.712430 0.684784 0.147277
H8    H     H_    0.186934 0.281067 0.318156 0.155172
H9    H     H_    0.572797 0.968923 0.093248 0.170375
H10   H     H_    0.427207 0.968922 0.906761 0.170400
H11   H     H_    0.072772 0.468865 0.093205 0.170406
H12   H     H_    0.323139 0.780757 0.375461 0.179368
H13   H     H_    0.927177 0.468993 0.906736 0.170340
H14   H     H_    0.298943 0.922116 0.238230 0.136821
H15   H     H_    0.157197 0.986402 0.210899 0.140632
H16   H     H_    0.146157 0.136263 0.104074 0.132343
H17   H     H_    0.277473 0.222366 0.025273 0.134254
H18   H     H_    0.419639 0.159313 0.053533 0.126334
H19   H     H_    0.700974 0.921775 0.762467 0.136595
H20   H     H_    0.842755 0.985919 0.789920 0.140586
H21   H     H_    0.853909 0.135969 0.896100 0.132340
H22   H     H_    0.722677 0.222396 0.974147 0.134267
H23   H     H_    0.268717 0.159604 0.402374 0.207020
H24   H     H_    0.580475 0.159471 0.945806 0.126275
H25   H     H_    0.798992 0.421826 0.237515 0.136518
H26   H     H_    0.657230 0.486221 0.210399 0.140574
H27   H     H_    0.646147 0.636472 0.104517 0.132323
H28   H     H_    0.777432 0.722796 0.026358 0.134219
H29   H     H_    0.919616 0.659592 0.054339 0.126186
H30   H     H_    0.201121 0.422369 0.761286 0.137000
H31   H     H_    0.342823 0.486759 0.788559 0.140699
H32   H     H_    0.353776 0.636444 0.895897 0.132359
H33   H     H_    0.222411 0.722283 0.975230 0.134223
H34   H     H_    0.676841 0.780742 0.624545 0.179378
H35   H     H_    0.080284 0.659165 0.946957 0.126348
H36   H     H_    0.231242 0.659659 0.597662 0.207036
H37   H     H_    0.823132 0.280763 0.375460 0.179380
H38   H     H_    0.768738 0.659627 0.402353 0.207063
H39   H     H_    0.176842 0.280746 0.624554 0.179374
H40   H     H_    0.692964 0.212458 0.315237 0.147235
N1    N     N_2   0.549450 0.000000 0.831550 -0.139151
N2    N     N_2   0.450550 0.000000 0.168450 -0.139159
N3    N     N_2   0.049450 0.500000 0.831550 -0.139154
N4    N     N_2   0.950550 0.500000 0.168450 -0.139154
O1    O     O_R   0.398960 0.091100 0.433300 -0.608706
O2    O     O_R   0.569290 0.908910 0.353790 -0.621994
O3    O     O_R   0.569290 0.091090 0.353790 -0.612185
O4    O     O_R   0.430710 0.908910 0.646210 -0.621974
O5    O     O_R   0.930710 0.591090 0.646210 -0.612182
O6    O     O_R   0.069290 0.408910 0.353790 -0.621948
O7    O     O_R   0.069290 0.591090 0.353790 -0.612226
O8    O     O_R   0.930710 0.408910 0.646210 -0.621982
O9    O     O_R   0.601040 0.908900 0.566700 -0.621769
O10   O     O_R   0.601040 0.091100 0.566700 -0.608710
O11   O     O_R   0.398960 0.908900 0.433300 -0.621906
O12   O     O_R   0.898960 0.591100 0.433300 -0.608701
O13   O     O_R   0.101040 0.408900 0.566700 -0.621984
O14   O     O_R   0.101040 0.591100 0.566700 -0.608705
O15   O     O_R   0.898960 0.408900 0.433300 -0.621760
O16   O     O_R   0.430710 0.091090 0.646210 -0.612218
Zn1   Zn    Zn3+2 0.478810 0.000000 0.357840 0.935134
Zn2   Zn    Zn3+2 0.521190 0.000000 0.642160 0.935166
Zn3   Zn    Zn3+2 0.978810 0.500000 0.357840 0.935168
Zn4   Zn    Zn3+2 0.021190 0.500000 0.642160 0.935115

loop_
_geom_bond_atom_site_label_1
_geom_bond_atom_site_label_2
_ccdc_geom_bond_type
C15   C18   S    
C23   O3    A    
C16   C21   S    
C1    C8    S    
C25   H15   S    
C12   O9    A    
C44   H31   S    
O16   Zn2   S    
C30   H19   S    
C4    H11   S    
C26   C27   A    
C29   C30   A    
O10   Zn2   S    
C34   O11   A    
C47   H33   S    
O12   Zn3   S    
C36   C37   A    
C1    O16   A    
O8    Zn4   S    
C30   C31   A    
C15   H1    S    
C50   O14   A    
C17   C20   S    
C9    H6    S    
C36   N4    S    
O11   Zn1   S    
O6    Zn3   S    
O13   Zn4   S    
C6    C15   D    
C4    N4    D    
C47   C48   A    
C9    C51   S    
C34   O4    A    
C40   H28   S    
N4    Zn3   S    
N3    Zn4   S    
C12   O2    A    
C27   H17   S    
C2    H9    S    
C24   H14   S    
C14   H12   S    
C50   O7    A    
C22   C28   A    
C16   H34   S    
C22   N2    S    
C36   C41   A    
C3    H13   S    
C7    H4    S    
C8    H3    S    
C29   N1    S    
N2    Zn1   S    
C44   C46   A    
C21   H38   S    
C7    C12   S    
C11   C20   D    
C20   H39   S    
C35   H24   S    
C42   N3    S    
O9    Zn2   S    
C2    N2    D    
C10   H5    S    
O4    Zn2   S    
C24   C25   A    
C19   H36   S    
C1    O1    A    
C49   O6    A    
C45   O5    A    
O2    Zn1   S    
C38   H26   S    
C51   O8    A    
C23   O10   A    
C37   H25   S    
C39   H27   S    
O7    Zn3   S    
C43   C44   A    
C37   C38   A    
C11   C49   S    
C5    H2    S    
C31   C32   A    
C10   C19   D    
C41   H29   S    
C5    C34   S    
C48   H35   S    
C13   C21   D    
C52   N1    D    
C42   C48   A    
C5    C14   D    
C2    C52   S    
C46   H32   S    
C40   C41   A    
C7    C16   D    
C22   C24   A    
C42   C43   A    
O1    Zn1   S    
C3    C4    S    
C10   C50   S    
O14   Zn4   S    
C32   H21   S    
C49   O13   A    
O5    Zn4   S    
C46   C47   A    
C31   H20   S    
C51   O15   A    
C18   H37   S    
C14   C19   S    
C28   H18   S    
O3    Zn1   S    
C3    N3    D    
C45   O12   A    
C13   H7    S    
C29   C35   A    
C8    C17   D    
C26   H16   S    
C32   C33   A    
C25   C26   A    
C52   H10   S    
C13   C45   S    
C38   C39   A    
C9    C18   D    
C6    H40   S    
C6    C23   S    
C33   C35   A    
N1    Zn2   S    
C39   C40   A    
C33   H22   S    
C27   C28   A    
C17   H23   S    
C43   H30   S    
O15   Zn3   S    
C11   H8    S    
