data_mof_unit_36239.cif
_audit_creation_date              2013-03-05T15:50:58-0500
_audit_creation_method            fapswitch 2.2
_symmetry_space_group_name_H-M    P1
_symmetry_Int_Tables_number       1
_space_group_crystal_system       triclinic
_cell_length_a                    11.693052
_cell_length_b                    10.855954
_cell_length_c                    9.655386
_cell_angle_alpha                 91.292962
_cell_angle_beta                  90.811285
_cell_angle_gamma                 93.795227
_cell_volume                      1222.4975441

loop_
_atom_site_label
_atom_site_type_symbol
_atom_site_description
_atom_site_fract_x
_atom_site_fract_y
_atom_site_fract_z
_atom_type_partial_charge
O1    O     O_R   0.499990 0.319640 0.618810 -0.586617
O2    O     O_R   0.500000 0.319660 0.381240 -0.545840
C1    C     C_R   0.506327 0.263611 0.498592 0.789664
O3    O     O_R   0.337190 0.500000 0.618790 -0.578667
O4    O     O_R   0.337200 0.500030 0.381210 -0.524172
C2    C     C_R   0.284227 0.499048 0.499304 0.829981
Cu1   Cu    Cu3+1 0.499990 0.499990 0.640660 0.966381
Cu2   Cu    Cu3+1 0.500010 0.500010 0.359340 1.063710
O5    O     O_R   0.500000 0.680340 0.618760 -0.621621
O6    O     O_R   0.500010 0.680360 0.381190 -0.526801
O7    O     O_R   0.662800 0.499970 0.618790 -0.606200
O8    O     O_R   0.662810 0.500000 0.381210 -0.567923
C3    C     C_R   0.500565 0.738127 0.503034 0.841413
C4    C     C_R   0.715623 0.498689 0.500947 0.830410
C5    C     C_1   0.162307 0.497562 0.498756 -0.087167
C6    C     C_1   0.059696 0.496386 0.500790 0.107474
C7    C     C_1   0.939793 0.495859 0.503251 0.125552
C8    C     C_1   0.837278 0.496746 0.503111 -0.069901
H1    H     H_    0.419337 0.101097 0.306300 0.213332
C9    C     C_R   0.651123 0.144201 0.698147 -0.145222
H2    H     H_    0.679387 0.239148 0.679343 0.148490
C10   C     C_R   0.692858 0.091227 0.816822 -0.097512
H3    H     H_    0.748959 0.145478 0.888356 0.160979
C11   C     C_R   0.657819 0.970298 0.846387 -0.071238
H4    H     H_    0.683891 0.931196 0.943109 0.188769
C12   C     C_R   0.588598 0.899413 0.751937 -0.157918
H5    H     H_    0.555950 0.812122 0.788370 0.171537
C13   C     C_R   0.555463 0.946724 0.622839 0.108474
C14   C     C_R   0.575576 0.075073 0.605250 0.099771
C15   C     C_R   0.518452 0.131193 0.496239 -0.120834
C16   C     C_R   0.461677 0.059164 0.391743 -0.152815
H6    H     H_    0.413347 0.878820 0.313266 0.189736
C17   C     C_R   0.456482 0.931998 0.397295 -0.106512
C18   C     C_R   0.502339 0.873631 0.511125 -0.086993
C19   C     C_R   0.689274 0.626253 0.142540 0.251078
C20   C     C_R   0.792184 0.644929 0.068762 0.165439
C21   C     C_R   0.785091 0.652179 0.924742 0.183411
C22   C     C_R   0.679210 0.625779 0.860360 -0.287692
H7    H     H_    0.669134 0.658641 0.758201 0.242088
C23   C     C_R   0.589437 0.560787 0.927672 0.102076
C24   C     C_R   0.591730 0.560447 0.076216 -0.000054
N1    N     N_R   0.501070 0.501210 0.147910 -0.239159
C25   C     C_R   0.412361 0.443924 0.069419 0.417360
H8    H     H_    0.343263 0.396677 0.864223 0.173843
C26   C     C_R   0.413620 0.443742 0.922291 -0.064440
N2    N     N_R   0.501110 0.501290 0.852040 -0.200254
N3    N     N_R   0.882500 0.693042 0.844046 0.163837
O9    O     O_R   0.984744 0.662546 0.878170 -0.277070
O10   O     O_R   0.868122 0.748417 0.727502 -0.338175
N4    N     N_R   0.314796 0.384929 0.133760 0.132962
O11   O     O_R   0.325017 0.282776 0.198845 -0.364195
O12   O     O_R   0.212759 0.416316 0.100099 -0.323022
N5    N     N_R   0.672025 0.724403 0.239239 0.159063
O13   O     O_R   0.740079 0.743071 0.346621 -0.313792
O14   O     O_R   0.616217 0.816294 0.195834 -0.392413
N6    N     N_R   0.894365 0.693040 0.140255 0.205121
O15   O     O_R   0.941685 0.627660 0.233488 -0.319445
O16   O     O_R   0.936109 0.805013 0.118903 -0.258288

loop_
_geom_bond_atom_site_label_1
_geom_bond_atom_site_label_2
_geom_bond_distance
_ccdc_geom_bond_type
O4    Cu2   1.918405 S    
N4    O12   1.301194 A    
C11   H4    1.082697 S    
C16   C17   1.380113 A    
C25   N4    1.427906 S    
C21   C22   1.387302 A    
C20   N6    1.433400 S    
C19   N5    1.427099 S    
C24   N1    1.402550 A    
C4    C8    1.423933 S    
C12   C13   1.417460 A    
C19   C20   1.412464 A    
C9    C10   1.390291 A    
Cu2   O8    1.912337 S    
H1    C16   1.080810 S    
H6    C17   1.083822 S    
N5    O14   1.301505 A    
C7    C8    1.199375 T    
C13   C18   1.433918 A    
C3    C18   1.470089 S    
N3    O10   1.301709 A    
O1    Cu1   1.964466 S    
N5    O13   1.301957 A    
N6    O15   1.298851 A    
Cu1   O7    1.918404 S    
C25   C26   1.420822 A    
C11   C12   1.394250 A    
C12   H5    1.066974 S    
C14   C15   1.409989 A    
C20   C21   1.396168 A    
O3    Cu1   1.912340 S    
O4    C2    1.305227 A    
C1    C15   1.453513 S    
Cu2   O6    1.964466 S    
C13   C14   1.412090 A    
C22   C23   1.401458 A    
O8    C4    1.303780 A    
N4    O11   1.298405 A    
O2    C1    1.301645 A    
C9    C14   1.416862 A    
N6    O16   1.301529 A    
C15   C16   1.395290 A    
C19   C24   1.439507 A    
O7    C4    1.302555 A    
C10   C11   1.386294 A    
C21   N3    1.440502 S    
N1    C25   1.381347 A    
C23   N2    1.373393 A    
C5    C6    1.199502 T    
Cu1   N2    2.040537 S    
Cu1   Cu2   2.716261 S    
C17   C18   1.398812 A    
C9    H2    1.081512 S    
O3    C2    1.301157 A    
Cu1   O5    1.973987 S    
O5    C3    1.293608 A    
C10   H3    1.082542 S    
C23   C24   1.434211 A    
C2    C5    1.424575 S    
C26   N2    1.360559 A    
O2    Cu2   1.973987 S    
H8    C26   1.081946 S    
N3    O9    1.301404 A    
Cu2   N1    2.041982 S    
C6    C7    1.402199 S    
O1    C1    1.303585 A    
O6    C3    1.320345 A    
C22   H7    1.064074 S    
