data_mof_unit_34856.cif
_audit_creation_date              2012-12-11T14:08:30-0500
_audit_creation_method            fapswitch 2.2
_symmetry_space_group_name_H-M    P1
_symmetry_Int_Tables_number       1
_space_group_crystal_system       triclinic
_cell_length_a                    10.923902
_cell_length_b                    10.950852
_cell_length_c                    18.67703
_cell_angle_alpha                 90.518977
_cell_angle_beta                  90.036502
_cell_angle_gamma                 60.402157
_cell_volume                      1942.61983384

loop_
_atom_site_label
_atom_site_type_symbol
_atom_type_description
_atom_site_fract_x
_atom_site_fract_y
_atom_site_fract_z
_atom_type_partial_charge
C1    C     C_R   0.236595 0.645612 0.608819 0.545425
C2    C     C_2   0.782527 0.154507 0.706921 -0.179797
C3    C     C_2   0.181285 0.663065 0.681447 -0.122267
C4    C     C_R   0.654110 0.622854 0.601084 0.540738
C5    C     C_2   0.194729 0.662387 0.839412 -0.120754
C6    C     C_2   0.191229 0.561767 0.799558 -0.178461
C7    C     C_2   0.219850 0.549489 0.722500 -0.177468
C8    C     C_2   0.649698 0.646260 0.317226 -0.092275
C9    C     C_2   0.633416 0.665541 0.159482 -0.107564
C10   C     C_2   0.706631 0.546006 0.195199 -0.162275
C11   C     C_2   0.687740 0.537123 0.271708 -0.147848
C12   C     C_3   0.668843 0.554613 0.800522 -0.254095
C13   C     C_2   0.632945 0.196856 0.318524 -0.101476
C14   C     C_2   0.637207 0.202657 0.163942 -0.109626
C15   C     C_2   0.522467 0.231130 0.201068 -0.166160
C16   C     C_R   0.628329 0.227587 0.601907 0.547566
C17   C     C_2   0.517052 0.258220 0.277058 -0.151847
C18   C     C_2   0.121954 0.680289 0.344953 -0.109580
C19   C     C_2   0.114023 0.691466 0.190703 -0.086560
C20   C     C_2   0.042390 0.803934 0.234270 -0.146934
C21   C     C_2   0.074250 0.799634 0.309662 -0.166860
C22   C     C_R   0.703417 0.101905 0.897489 0.545710
C23   C     C_3   0.700250 0.675492 0.812148 0.054985
C24   C     C_R   0.724241 0.688732 0.888154 0.543699
C25   C     C_R   0.119291 0.706152 0.907493 0.548938
C26   C     C_R   0.673123 0.114427 0.101268 0.554960
C27   C     C_R   0.692277 0.688706 0.094687 0.555552
C28   C     C_R   0.215540 0.651081 0.404543 0.555448
C29   C     C_R   0.086864 0.713404 0.115278 0.553199
C30   C     C_R   0.641317 0.620959 0.392630 0.550871
C31   C     C_R   0.614277 0.233238 0.393431 0.550933
C32   C     C_3   0.575414 0.813755 0.782279 -0.231947
C33   C     C_3   0.555889 0.797018 0.702175 -0.242702
C34   C     C_3   0.670115 0.648993 0.676327 0.059088
C35   C     C_3   0.836161 0.644413 0.770213 -0.220157
C36   C     C_3   0.816720 0.633152 0.689675 -0.247848
C37   C     C_3   0.654161 0.536775 0.720177 -0.213827
C38   C     C_2   0.675969 0.155679 0.670391 -0.122598
C39   C     C_2   0.689305 0.166157 0.827687 -0.121611
C40   C     C_2   0.801092 0.121958 0.783801 -0.176821
Cr1   Cr    Cr6+3 0.393010 0.398050 0.501480 1.015432
Cr2   Cr    Cr6+3 0.398820 0.707980 0.501630 1.018916
Cr3   Cr    Cr6+3 0.708140 0.393940 0.496850 1.012860
Cr4   Cr    Cr6+3 0.937950 0.938450 0.008940 1.016808
Cr5   Cr    Cr6+3 0.626180 0.937030 0.994750 1.015953
Cr6   Cr    Cr6+3 0.937790 0.625760 0.001410 1.016334
H1    H     H_    0.596357 0.902769 0.789961 0.142270
H2    H     H_    0.233032 0.728371 0.816671 0.102763
H3    H     H_    0.476340 0.840434 0.811502 0.123894
H4    H     H_    0.125469 0.768330 0.704353 0.104324
H5    H     H_    0.792937 0.454263 0.169712 0.151609
H6    H     H_    0.718904 0.432991 0.291908 0.153300
H7    H     H_    0.541770 0.754431 0.183491 0.111511
H8    H     H_    0.617243 0.751757 0.299044 0.095628
H9    H     H_    0.438113 0.218111 0.178139 0.156189
H10   H     H_    0.717363 0.223130 0.186315 0.096618
H11   H     H_    0.738230 0.131112 0.297078 0.083052
H12   H     H_    0.736611 0.429575 0.703800 0.142639
H13   H     H_    0.448603 0.811532 0.693701 0.145430
H14   H     H_    0.077065 0.889670 0.332742 0.153875
H15   H     H_    0.188366 0.587484 0.209924 0.085759
H16   H     H_    0.110404 0.594061 0.323196 0.107339
H17   H     H_    0.862888 0.728855 0.780560 0.125992
H18   H     H_    0.755161 0.454917 0.822505 0.135940
H19   H     H_    0.550043 0.544828 0.709552 0.124893
H20   H     H_    0.583442 0.231803 0.807343 0.108051
H21   H     H_    0.412736 0.323707 0.299894 0.157841
H22   H     H_    0.969534 0.906669 0.212789 0.152326
H23   H     H_    0.926603 0.543605 0.788243 0.136263
H24   H     H_    0.563556 0.879622 0.671423 0.115554
H25   H     H_    0.826678 0.716453 0.660916 0.115908
H26   H     H_    0.569757 0.577923 0.828737 0.113962
H27   H     H_    0.901701 0.529838 0.669470 0.139266
H28   H     H_    0.907442 0.057474 0.803695 0.152151
H29   H     H_    0.854661 0.181799 0.681094 0.145782
H30   H     H_    0.609759 0.120163 0.695864 0.103195
H31   H     H_    0.160401 0.490394 0.822764 0.147910
H32   H     H_    0.273351 0.444298 0.699451 0.157564
O1    O     O_R   0.507110 0.256280 0.580300 -0.520942
O2    O     O_R   0.837080 0.593860 0.915300 -0.529339
O3    O     O_R   0.064770 0.636080 0.932550 -0.500274
O4    O     O_R   0.280830 0.527190 0.577940 -0.500114
O5    O     O_R   0.068250 0.829200 0.092940 -0.514591
O6    O     O_R   0.799650 0.057040 0.080330 -0.509440
O7    O     O_R   0.586130 0.079760 0.077080 -0.511140
O8    O     O_R   0.627700 0.809630 0.066580 -0.495757
O9    O     O_R   0.816140 0.597180 0.075920 -0.511228
O10   O     O_R   0.045360 0.639170 0.081440 -0.494510
O11   O     O_3   0.833980 0.833750 0.001700 -0.250039
O12   O     O_R   0.524640 0.695370 0.425100 -0.491313
O13   O     O_R   0.261360 0.738990 0.584270 -0.521101
O14   O     O_R   0.532590 0.694780 0.574370 -0.508566
O15   O     O_R   0.744470 0.503750 0.577000 -0.529419
O16   O     O_R   0.698520 0.277230 0.571620 -0.498634
O17   O     O_R   0.498530 0.256920 0.419280 -0.513007
O18   O     O_R   0.272880 0.527780 0.428680 -0.508093
O19   O     O_R   0.252780 0.739630 0.423250 -0.508824
O20   O     O_R   0.735890 0.504390 0.415980 -0.513869
O21   O     O_R   0.690560 0.277820 0.422350 -0.503225
O22   O     O_3   0.499990 0.499990 0.499980 -0.250270
O23   O     O_R   0.089190 0.825870 0.932320 -0.519039
O24   O     O_R   0.819070 0.053960 0.931440 -0.496391
O25   O     O_R   0.607070 0.076440 0.916460 -0.522689
O26   O     O_R   0.647110 0.806550 0.917690 -0.511038

loop_
_geom_bond_atom_site_label_1
_geom_bond_atom_site_label_2
_ccdc_geom_bond_type
C28   O19   A    
C14   H10   S    
C18   C21   D    
C35   C36   S    
Cr3   O20   S    
C30   O12   A    
Cr4   O5    S    
C39   H20   S    
Cr6   O11   S    
C38   H30   S    
C12   C23   S    
Cr3   O21   S    
C29   O5    A    
C3    C7    D    
C8    C11   D    
C5    C6    D    
C12   H18   S    
Cr1   O18   S    
C13   H11   S    
Cr1   O4    S    
C34   C37   S    
Cr3   O16   S    
Cr2   O13   S    
C12   C37   S    
C29   O10   A    
C11   H6    S    
Cr5   O25   S    
C24   O2    A    
C19   C20   D    
C37   H19   S    
C1    C3    S    
C23   C24   S    
C31   O21   A    
Cr5   O11   S    
C9    C10   D    
Cr2   O14   S    
C37   H12   S    
C36   H25   S    
C12   H26   S    
C33   H13   S    
C25   O3    A    
C10   H5    S    
C3    H4    S    
C13   C31   S    
Cr6   O10   S    
C5    H2    S    
C4    C34   S    
C17   H21   S    
C18   C28   S    
Cr3   O22   S    
C21   H14   S    
C10   C11   S    
Cr2   O19   S    
C8    H8    S    
C39   C40   D    
Cr4   O24   S    
C18   H16   S    
C6    H31   S    
C1    O4    A    
C22   O25   A    
C24   O26   A    
C15   H9    S    
C27   O8    A    
Cr5   O7    S    
Cr5   O26   S    
Cr2   O22   S    
Cr6   O3    S    
C2    C38   D    
C33   C34   S    
Cr1   O22   S    
C14   C26   S    
C27   O9    A    
C33   H24   S    
C7    H32   S    
C5    C25   S    
C23   C35   S    
C32   H1    S    
C9    H7    S    
C19   C29   S    
C9    C27   S    
Cr6   O9    S    
C15   C17   S    
C26   O6    A    
C20   H22   S    
Cr4   O6    S    
Cr1   O1    S    
Cr4   O23   S    
C6    C7    S    
C30   O20   A    
C16   O16   A    
C22   O24   A    
C13   C17   D    
C28   O18   A    
C16   O1    A    
C8    C30   S    
C23   C32   S    
Cr5   O8    S    
C32   C33   S    
Cr6   O2    S    
C25   O23   A    
Cr1   O17   S    
C19   H15   S    
C26   O7    A    
C31   O17   A    
C22   C39   S    
Cr3   O15   S    
C40   H28   S    
C34   C36   S    
C32   H3    S    
C36   H27   S    
C2    H29   S    
C4    O15   A    
C2    C40   S    
C20   C21   S    
C35   H23   S    
C1    O13   A    
C14   C15   D    
C35   H17   S    
Cr2   O12   S    
Cr4   O11   S    
C16   C38   S    
C4    O14   A    
