data_mof_unit_63821.cif
_audit_creation_date              2012-12-10T17:46:14-0500
_audit_creation_method            fapswitch 2.2
_symmetry_space_group_name_H-M    P1
_symmetry_Int_Tables_number       1
_space_group_crystal_system       triclinic
_cell_length_a                    14.128285
_cell_length_b                    10.698885
_cell_length_c                    9.9921
_cell_angle_alpha                 90.873102
_cell_angle_beta                  90.355134
_cell_angle_gamma                 94.076326
_cell_volume                      1506.33887641

loop_
_atom_site_label
_atom_site_type_symbol
_atom_type_description
_atom_site_fract_x
_atom_site_fract_y
_atom_site_fract_z
_atom_type_partial_charge
Br1   Br    Br    0.279787 0.090323 0.793031 -0.470785
Br2   Br    Br    0.645545 0.693451 0.833349 -0.505657
Br3   Br    Br    0.688048 0.241216 0.710185 -0.520770
Br4   Br    Br    0.410451 0.858469 0.225213 -0.535422
Br5   Br    Br    0.314169 0.274693 0.283558 -0.471047
C1    C     C_R   0.508817 0.261224 0.499426 0.962555
C2    C     C_R   0.487395 0.062231 0.382458 -0.205767
C3    C     C_R   0.466700 0.935214 0.385187 0.269649
C4    C     C_R   0.329558 0.501901 0.499965 0.922032
C5    C     C_R   0.477504 0.872191 0.506062 -0.167248
C6    C     C_R   0.385740 0.300727 0.122754 0.249710
C7    C     C_R   0.350843 0.201265 0.039214 -0.246907
C8    C     C_R   0.347272 0.214744 0.903403 0.231645
C9    C     C_R   0.386883 0.322601 0.848294 -0.147737
C10   C     C_R   0.443079 0.411672 0.923844 0.007311
C11   C     C_R   0.442329 0.407863 0.068482 0.047347
C12   C     C_1   0.772177 0.502779 0.500712 -0.127113
C13   C     C_R   0.561616 0.578429 0.072349 0.150417
C14   C     C_R   0.559411 0.579825 0.929257 0.293946
C15   C     C_R   0.490385 0.738901 0.501422 0.891705
C16   C     C_R   0.670601 0.501754 0.500269 0.918254
C17   C     C_1   0.228057 0.503152 0.499719 -0.112581
C18   C     C_1   0.142762 0.503699 0.499759 0.047201
C19   C     C_1   0.042822 0.503909 0.500008 0.051040
C20   C     C_1   0.957487 0.503806 0.500304 0.046024
C21   C     C_1   0.857523 0.503387 0.500627 0.031564
C22   C     C_3   0.602451 0.134368 0.986962 -0.414000
C23   C     C_R   0.581591 0.120516 0.732667 0.259087
C24   C     C_3   0.689843 0.073764 0.038186 -0.738020
C25   C     C_3   0.640223 0.657769 0.143425 -0.334967
C26   C     C_3   0.734770 0.596433 0.135833 -0.799583
C27   C     C_R   0.563964 0.069987 0.860318 0.167580
C28   C     C_R   0.506544 0.958779 0.870226 -0.161858
C29   C     C_R   0.474195 0.893518 0.755354 -0.065305
C30   C     C_R   0.495032 0.941405 0.627091 0.047449
C31   C     C_R   0.533849 0.064644 0.618665 0.003845
C32   C     C_R   0.518549 0.127991 0.498188 -0.133828
H1    H     H_    0.474359 0.109989 0.290259 0.195828
H2    H     H_    0.547062 0.128655 0.065427 0.201677
H3    H     H_    0.726833 0.498774 0.172299 0.264937
H4    H     H_    0.761474 0.594125 0.031853 0.290799
H5    H     H_    0.788579 0.650657 0.199018 0.246995
H6    H     H_    0.647897 0.752921 0.100776 0.208170
H7    H     H_    0.625111 0.674999 0.248458 0.259999
H8    H     H_    0.373395 0.331584 0.744736 0.232278
H9    H     H_    0.489821 0.919803 0.967013 0.200111
H10   H     H_    0.429613 0.808331 0.768752 0.188085
H11   H     H_    0.314662 0.117294 0.079401 0.240515
H12   H     H_    0.671498 0.974128 0.062254 0.253519
H13   H     H_    0.746645 0.079198 0.961724 0.293038
H14   H     H_    0.716848 0.123576 0.130545 0.244597
H15   H     H_    0.620383 0.235759 0.971103 0.236779
N1    N     N_R   0.499190 0.498800 0.142780 -0.116741
N2    N     N_R   0.499160 0.498720 0.857170 -0.128409
O1    O     O_R   0.500000 0.316780 0.614690 -0.618397
O2    O     O_R   0.499990 0.316750 0.385360 -0.601437
O3    O     O_R   0.373720 0.500010 0.614690 -0.637667
O4    O     O_R   0.373710 0.499990 0.385360 -0.534003
O5    O     O_R   0.500010 0.683250 0.614640 -0.595976
O6    O     O_R   0.500000 0.683220 0.385310 -0.598568
O7    O     O_R   0.626290 0.500010 0.614640 -0.517492
O8    O     O_R   0.626280 0.499990 0.385310 -0.636753
Zn1   Zn    Zn3+2 0.500010 0.500020 0.653130 0.998884
Zn2   Zn    Zn3+2 0.499990 0.499980 0.346870 0.989465

loop_
_geom_bond_atom_site_label_1
_geom_bond_atom_site_label_2
_ccdc_geom_bond_type
C6    C7    A    
O2    Zn2   S    
Br5   C6    S    
C5    C30   A    
C13   C25   S    
C26   H5    S    
C15   O6    A    
C6    C11   A    
C16   O7    A    
C30   C31   A    
O6    Zn2   S    
C1    O1    A    
C7    H11   S    
C27   C28   A    
C28   C29   A    
C20   C21   S    
C1    C32   S    
C2    C3    A    
C24   H12   S    
C8    C9    A    
C26   H3    S    
C15   O5    A    
C28   H9    S    
C25   H7    S    
C16   O8    A    
C5    C15   S    
C29   C30   A    
C12   C21   T    
C14   N2    A    
C11   N1    A    
C31   C32   A    
C2    H1    S    
O3    Zn1   S    
C9    H8    S    
C4    O3    A    
C24   H13   S    
O4    Zn2   S    
C25   C26   S    
C4    C17   S    
N1    Zn2   S    
C25   H6    S    
C22   C24   S    
N2    Zn1   S    
C22   C27   S    
C18   C19   S    
C10   C11   A    
C10   N2    A    
C23   C27   A    
Br1   C8    S    
C19   C20   T    
C23   C31   A    
C3    C5    A    
C4    O4    A    
C24   H14   S    
C1    O2    A    
Br4   C3    S    
O7    Zn1   S    
C13   C14   A    
C9    C10   A    
Br3   C23   S    
O8    Zn2   S    
C29   H10   S    
C26   H4    S    
C13   N1    A    
C7    C8    A    
Br2   C14   S    
C17   C18   T    
O5    Zn1   S    
C22   H15   S    
C12   C16   S    
C22   H2    S    
C2    C32   A    
O1    Zn1   S    
