data_mof_unit_14525.cif
_audit_creation_date              2012-12-10T18:47:04-0500
_audit_creation_method            fapswitch 2.2
_symmetry_space_group_name_H-M    P1
_symmetry_Int_Tables_number       1
_space_group_crystal_system       triclinic
_cell_length_a                    10.611486
_cell_length_b                    10.100884
_cell_length_c                    14.867985
_cell_angle_alpha                 91.033039
_cell_angle_beta                  93.43078
_cell_angle_gamma                 89.178546
_cell_volume                      1590.37580102

loop_
_atom_site_label
_atom_site_type_symbol
_atom_type_description
_atom_site_fract_x
_atom_site_fract_y
_atom_site_fract_z
_atom_type_partial_charge
C1    C     C_R   0.260974 0.500962 0.500119 0.824455
C2    C     C_R   0.739032 0.499358 0.498344 0.821164
C3    C     C_R   0.253970 0.447062 0.029998 0.092428
C4    C     C_R   0.705151 0.365307 0.966572 0.063113
C5    C     C_R   0.070410 0.410245 0.552174 -0.199020
C6    C     C_R   0.929915 0.594578 0.448199 -0.187977
C7    C     C_R   0.941465 0.408205 0.550481 -0.213816
C8    C     C_R   0.059378 0.596676 0.449829 -0.197324
C9    C     C_R   0.871953 0.499313 0.497980 0.002956
C10   C     C_R   0.128367 0.503077 0.500857 0.012488
C11   C     C_R   0.588328 0.068797 0.550236 0.189782
C12   C     C_R   0.423895 0.928390 0.438683 0.171257
C13   C     C_R   0.414976 0.071448 0.444743 0.162532
C14   C     C_R   0.571957 0.930496 0.561558 0.130333
C15   C     C_R   0.493505 0.498493 0.327489 0.865449
C16   C     C_R   0.511759 0.500562 0.673261 0.884081
C17   C     C_R   0.621397 0.467089 0.825262 0.093968
C18   C     C_R   0.366899 0.477931 0.182531 0.073987
C19   C     C_R   0.510678 0.498990 0.770779 -0.101495
C20   C     C_R   0.485644 0.489725 0.230961 -0.133320
C21   C     C_R   0.390253 0.501069 0.806384 -0.000224
C22   C     C_R   0.599679 0.464314 0.191029 0.011531
C23   C     C_R   0.377810 0.472183 0.897830 0.070744
C24   C     C_R   0.597799 0.428200 0.100156 0.071628
C25   C     C_R   0.488388 0.445653 0.952482 -0.058636
C26   C     C_R   0.483412 0.442770 0.046784 -0.070947
C27   C     C_R   0.605820 0.425771 0.913863 0.038594
C28   C     C_R   0.365922 0.457081 0.087264 0.056423
C29   C     C_R   0.259140 0.461350 0.936565 0.056489
C30   C     C_R   0.705223 0.374013 0.060089 0.073731
H1    H     H_    0.124678 0.340765 0.594044 0.139823
H2    H     H_    0.875238 0.665875 0.407977 0.142806
H3    H     H_    0.896925 0.338136 0.591578 0.157589
H4    H     H_    0.105352 0.669193 0.410679 0.136077
N1    N     N_R   0.500000 0.857200 0.500000 -0.138328
N2    N     N_R   0.500000 0.142800 0.500000 -0.135359
O1    O     O_R   0.316770 0.614620 0.499990 -0.638389
O2    O     O_R   0.683230 0.385380 0.500010 -0.628733
O3    O     O_R   0.683230 0.614620 0.500010 -0.634758
O4    O     O_R   0.316770 0.385380 0.499990 -0.622843
O5    O     O_R   0.499980 0.614680 0.367850 -0.614192
O6    O     O_R   0.500020 0.385320 0.632150 -0.604858
O7    O     O_R   0.500020 0.614680 0.632150 -0.617068
O8    O     O_R   0.499980 0.385320 0.367850 -0.643874
Zn1   Zn    Zn3+2 0.500000 0.653120 0.500000 0.907572
Zn2   Zn    Zn3+2 0.500000 0.346880 0.500000 0.920290
C31   C     C_3   0.757471 0.489485 0.798434 -0.411409
C32   C     C_3   0.779363 0.604121 0.737966 -0.945423
H5    H     H_    0.742931 0.580114 0.669054 0.264581
H6    H     H_    0.736768 0.695098 0.766211 0.274357
H7    H     H_    0.882432 0.620098 0.734992 0.259128
H8    H     H_    0.816899 0.515568 0.860123 0.234212
H9    H     H_    0.799802 0.398610 0.770599 0.223135
C33   C     C_3   0.245488 0.488530 0.233575 -0.345500
C34   C     C_3   0.166881 0.613610 0.211282 -0.863248
H10   H     H_    0.192322 0.694279 0.259705 0.236098
H11   H     H_    0.181097 0.650088 0.142769 0.266385
H12   H     H_    0.065152 0.592970 0.216885 0.248975
H13   H     H_    0.189110 0.397764 0.221325 0.214949
H14   H     H_    0.263348 0.488831 0.307642 0.169894
N3    N     N_3   0.281355 0.537234 0.749548 -0.483921
H15   H     H_    0.294480 0.631105 0.723463 0.203771
H16   H     H_    0.270238 0.468235 0.696637 0.185843
N4    N     N_3   0.717911 0.480991 0.242376 -0.486570
H17   H     H_    0.724106 0.413862 0.295204 0.194030
H18   H     H_    0.721614 0.577378 0.269182 0.186164
N5    N     N_3   0.141521 0.456398 0.883486 -0.489838
H19   H     H_    0.119319 0.549563 0.857079 0.214955
H20   H     H_    0.146468 0.383691 0.832838 0.205913
N6    N     N_3   0.811023 0.317643 0.111559 -0.480840
H21   H     H_    0.868241 0.393251 0.139004 0.214333
H22   H     H_    0.778954 0.258335 0.162146 0.201251
N7    N     N_3   0.134753 0.415952 0.064607 -0.462170
H23   H     H_    0.104901 0.325236 0.036503 0.193663
H24   H     H_    0.068089 0.488691 0.044911 0.202872
N8    N     N_3   0.802327 0.289525 0.925094 -0.481991
H25   H     H_    0.798627 0.191846 0.946790 0.204679
H26   H     H_    0.890220 0.327692 0.946908 0.194799
C35   C     C_3   0.717937 0.120621 0.577093 -0.376973
C36   C     C_3   0.723730 0.191153 0.668317 -0.830084
H27   H     H_    0.704263 0.296853 0.657892 0.282961
H28   H     H_    0.654935 0.151524 0.713975 0.264243
H29   H     H_    0.820004 0.180401 0.701221 0.219469
H30   H     H_    0.788333 0.038007 0.579935 0.161648
H31   H     H_    0.754384 0.178674 0.522826 0.224340
C37   C     C_3   0.354540 0.856881 0.360902 -0.365206
C38   C     C_3   0.430132 0.860555 0.276230 -0.842940
H32   H     H_    0.431170 0.962074 0.249186 0.233185
H33   H     H_    0.529598 0.828650 0.291265 0.274886
H34   H     H_    0.387333 0.793969 0.223067 0.258654
H35   H     H_    0.334226 0.755367 0.378565 0.255878
H36   H     H_    0.258788 0.897596 0.345318 0.171575
C39   C     C_3   0.311073 0.143017 0.389360 -0.356202
C40   C     C_3   0.184910 0.135708 0.433646 -0.869311
H37   H     H_    0.197249 0.162267 0.506268 0.273717
H38   H     H_    0.115703 0.205363 0.400349 0.253354
H39   H     H_    0.145483 0.034722 0.428075 0.235508
H40   H     H_    0.333667 0.246266 0.379483 0.259121
H41   H     H_    0.300370 0.104930 0.319172 0.178098
C41   C     C_3   0.621789 0.868946 0.647569 -0.372546
C42   C     C_3   0.519619 0.873478 0.716236 -0.808829
H42   H     H_    0.504452 0.977003 0.739980 0.236371
H43   H     H_    0.428176 0.836626 0.686134 0.272085
H44   H     H_    0.548661 0.812641 0.775461 0.243992
H45   H     H_    0.654303 0.769378 0.630901 0.257230
H46   H     H_    0.706169 0.917549 0.679603 0.192567

loop_
_geom_bond_atom_site_label_1
_geom_bond_atom_site_label_2
_ccdc_geom_bond_type
C6    H2    S    
C34   H10   S    
C39   C40   S    
C7    H3    S    
N7    H23   S    
C38   H32   S    
C6    C9    A    
C33   H14   S    
O4    Zn2   S    
C41   H45   S    
C42   H42   S    
C23   C29   A    
C11   N2    A    
C19   C21   A    
C24   C26   A    
C15   O8    A    
C37   H35   S    
C35   H30   S    
C11   C14   A    
N3    H16   S    
O6    Zn2   S    
C3    C29   A    
C1    O4    A    
C29   N5    S    
C2    O3    A    
C32   H7    S    
N2    Zn2   S    
N6    H21   S    
C39   H41   S    
C21   N3    S    
C1    O1    A    
O3    Zn1   S    
C32   H6    S    
C42   H43   S    
N7    H24   S    
C40   H37   S    
C36   H29   S    
C30   N6    S    
O8    Zn2   S    
C33   H13   S    
C15   C20   S    
O2    Zn2   S    
N5    H19   S    
C17   C27   A    
C18   C28   A    
N8    H25   S    
C15   O5    A    
C13   N2    A    
C36   H28   S    
C14   N1    A    
C5    C7    A    
C37   C38   S    
C6    C8    A    
C40   H39   S    
C25   C26   A    
C13   C39   S    
N5    H20   S    
N4    H18   S    
C2    O2    A    
C31   C32   S    
C8    H4    S    
C12   N1    A    
C40   H38   S    
O7    Zn1   S    
C16   O7    A    
C11   C35   S    
C32   H5    S    
C20   C22   A    
C42   H44   S    
C34   H11   S    
C22   C24   A    
C38   H34   S    
O1    Zn1   S    
N1    Zn1   S    
C16   O6    A    
C35   H31   S    
C4    C27   A    
C7    C9    A    
C33   C34   S    
C3    C28   A    
C41   H46   S    
C1    C10   S    
C17   C31   S    
N8    H26   S    
C36   H27   S    
C14   C41   S    
C31   H8    S    
C25   C27   A    
C26   C28   A    
C12   C37   S    
N4    H17   S    
C21   C23   A    
C5    C10   A    
C37   H36   S    
C16   C19   S    
C31   H9    S    
C41   C42   S    
C17   C19   A    
C18   C20   A    
C23   C25   A    
N3    H15   S    
C3    N7    S    
C24   C30   A    
C4    N8    S    
C18   C33   S    
C22   N4    S    
C35   C36   S    
C12   C13   A    
C8    C10   A    
C34   H12   S    
C38   H33   S    
O5    Zn1   S    
N6    H22   S    
C2    C9    S    
C39   H40   S    
C4    C30   A    
C5    H1    S    
