data_mof_unit_8949.cif
_audit_creation_date              2013-03-05T16:14:04-0500
_audit_creation_method            fapswitch 2.2
_symmetry_space_group_name_H-M    P1
_symmetry_Int_Tables_number       1
_space_group_crystal_system       triclinic
_cell_length_a                    9.902636
_cell_length_b                    10.739474
_cell_length_c                    16.955475
_cell_angle_alpha                 87.946501
_cell_angle_beta                  94.456508
_cell_angle_gamma                 89.814379
_cell_volume                      1796.56040637

loop_
_atom_site_label
_atom_site_type_symbol
_atom_site_description
_atom_site_fract_x
_atom_site_fract_y
_atom_site_fract_z
_atom_type_partial_charge
O1    O     O_R   0.614620 0.316750 0.500010 -0.632496
O2    O     O_R   0.385380 0.683250 0.499990 -0.635089
O3    O     O_R   0.385290 0.316780 0.500000 -0.547412
O4    O     O_R   0.614710 0.683220 0.500000 -0.535634
C1    C     C_R   0.499308 0.260185 0.496832 0.900822
C2    C     C_R   0.500886 0.739283 0.505436 0.915728
O5    O     O_R   0.627460 0.498830 0.616130 -0.528787
O6    O     O_R   0.372540 0.501170 0.383870 -0.532672
O7    O     O_R   0.398130 0.498850 0.616130 -0.597006
O8    O     O_R   0.601870 0.501150 0.383870 -0.606444
C3    C     C_R   0.517708 0.497220 0.652325 0.959458
C4    C     C_R   0.482021 0.501148 0.346650 0.963076
Zn1   Zn    Zn3+2 0.653130 0.499980 0.500000 1.088856
Zn2   Zn    Zn3+2 0.346870 0.500020 0.500000 1.081314
C5    C     C_R   0.529191 0.497167 0.736988 -0.224453
C6    C     C_R   0.472132 0.509073 0.260054 -0.291502
C7    C     C_R   0.472830 0.596486 0.773329 -0.323118
C8    C     C_R   0.591166 0.495013 0.222292 -0.288689
C9    C     C_R   0.484188 0.601840 0.855023 0.521644
C10   C     C_R   0.593739 0.519991 0.142087 0.487040
C11   C     C_R   0.545713 0.500638 0.900951 0.035357
C12   C     C_R   0.471132 0.548532 0.096215 0.027012
C13   C     C_R   0.606693 0.401873 0.863808 0.148020
C14   C     C_R   0.349668 0.561804 0.132980 0.143664
C15   C     C_R   0.596361 0.399513 0.781049 0.433773
C16   C     C_R   0.349259 0.537536 0.214927 0.383006
N1    N     N_2   0.550639 0.494474 0.984201 -0.036459
N2    N     N_2   0.466217 0.561454 0.013138 -0.031581
H1    H     H_    0.684316 0.465926 0.255234 0.251667
H2    H     H_    0.422175 0.671630 0.738056 0.197905
C17   C     C_R   0.376004 0.061571 0.482959 0.363387
C18   C     C_R   0.623397 0.937002 0.527021 0.345976
C19   C     C_R   0.378940 0.934573 0.494647 -0.298135
C20   C     C_R   0.620671 0.064453 0.515800 -0.307254
H3    H     H_    0.285086 0.884791 0.485881 0.194256
H4    H     H_    0.714220 0.114614 0.525739 0.195586
C21   C     C_R   0.501660 0.871665 0.512016 -0.199617
C22   C     C_R   0.498306 0.127148 0.495610 -0.200350
C23   C     C_R   0.065581 0.564541 0.442282 0.401743
C24   C     C_R   0.934930 0.437997 0.559036 0.415704
C25   C     C_R   0.921071 0.561664 0.440802 0.174777
C26   C     C_R   0.079578 0.439727 0.559666 0.188461
N3    N     N_R   0.857210 0.499970 0.500020 -0.195692
N4    N     N_R   0.142790 0.500030 0.499980 -0.197376
O9    O     O_3   0.716603 0.511482 0.108940 -0.564990
C27   C     C_3   0.769129 0.632584 0.099712 -0.115864
H5    H     H_    0.786413 0.677674 0.157656 0.202533
H6    H     H_    0.701829 0.692138 0.058364 0.127576
H7    H     H_    0.868264 0.625658 0.073899 0.238670
O10   O     O_3   0.430339 0.703769 0.889436 -0.551813
C28   C     C_3   0.524629 0.801811 0.887955 -0.204208
H8    H     H_    0.624167 0.773693 0.918644 0.151760
H9    H     H_    0.485255 0.880950 0.919868 0.214418
H10   H     H_    0.537945 0.835502 0.826226 0.161102
N5    N     N_R   0.676632 0.302617 0.909834 0.245544
O11   O     O_R   0.627737 0.255912 0.973453 -0.343612
O12   O     O_R   0.786793 0.254524 0.886371 -0.288210
N6    N     N_R   0.226161 0.598552 0.087461 0.238397
O13   O     O_R   0.195100 0.553493 0.018198 -0.317600
O14   O     O_R   0.141966 0.674968 0.116203 -0.339753
O15   O     O_3   0.651688 0.301785 0.743127 -0.557000
C29   C     C_3   0.553370 0.207637 0.733429 -0.228769
H11   H     H_    0.464429 0.240916 0.694238 0.186797
H12   H     H_    0.520505 0.172326 0.791382 0.185453
H13   H     H_    0.598532 0.128038 0.704639 0.179453
O16   O     O_3   0.228754 0.542526 0.250609 -0.519013
C30   C     C_3   0.163238 0.426662 0.242247 -0.023082
H14   H     H_    0.230628 0.347557 0.264060 0.150553
H15   H     H_    0.125297 0.413280 0.179699 0.162740
H16   H     H_    0.074517 0.425082 0.278326 0.214152
N7    N     N_R   0.250375 0.120281 0.453822 0.229264
O17   O     O_R   0.245071 0.189382 0.389038 -0.423550
O18   O     O_R   0.137642 0.085599 0.482413 -0.369068
N8    N     N_R   0.747860 0.877094 0.557200 0.225036
O19   O     O_R   0.748922 0.800657 0.618588 -0.383532
O20   O     O_R   0.862686 0.915044 0.532823 -0.365210
O21   O     O_3   0.130769 0.627392 0.383727 -0.528444
C31   C     C_3   0.106773 0.757011 0.385037 -0.029759
H17   H     H_    0.083968 0.789958 0.444239 0.138534
H18   H     H_    0.023647 0.785215 0.340382 0.217764
H19   H     H_    0.198579 0.805729 0.366968 0.162341
O22   O     O_3   0.870520 0.380067 0.619893 -0.535670
C32   C     C_3   0.896888 0.250471 0.623520 -0.027447
H20   H     H_    0.977544 0.227381 0.670870 0.221564
H21   H     H_    0.923906 0.212397 0.566393 0.136784
H22   H     H_    0.804817 0.201733 0.640688 0.179411
N9    N     N_R   0.843435 0.620022 0.374967 0.226193
O23   O     O_R   0.873013 0.596168 0.303638 -0.425182
O24   O     O_R   0.772027 0.718924 0.385378 -0.360968
N10   N     N_R   0.159012 0.382953 0.625219 0.232697
O25   O     O_R   0.149618 0.423749 0.695932 -0.337099
O26   O     O_R   0.220544 0.277711 0.616934 -0.397362

loop_
_geom_bond_atom_site_label_1
_geom_bond_atom_site_label_2
_geom_bond_distance
_ccdc_geom_bond_type
C28   H9    1.109400 S    
N9    O23   1.300331 A    
C31   H19   1.108596 S    
N5    O11   1.301377 A    
C23   C25   1.429756 A    
O9    C27   1.410304 S    
O5    C3    1.288860 A    
C27   H7    1.108802 S    
N8    O20   1.301489 A    
O1    C1    1.293495 A    
C23   O21   1.382901 S    
C9    C11   1.421335 A    
C14   C16   1.404786 A    
C18   N8    1.438095 S    
C31   H18   1.108024 S    
C5    C15   1.400901 A    
N6    O14   1.301346 A    
O4    Zn1   2.003130 S    
C29   H12   1.113133 S    
C19   H3    1.076647 S    
C3    C5    1.431149 S    
C24   N3    1.365960 A    
C4    C6    1.463328 S    
C17   C19   1.371064 A    
C8    C10   1.378869 A    
C10   O9    1.383381 S    
C24   C26   1.431793 A    
O16   C30   1.411711 S    
C11   N1    1.407765 S    
C12   N2    1.407516 S    
C1    C22   1.429696 S    
C7    H2    1.084776 S    
C25   N3    1.378683 A    
O2    C2    1.292669 A    
C26   N4    1.374585 A    
C6    C16   1.412648 A    
C25   N9    1.429429 S    
C27   H6    1.112308 S    
N8    O19   1.301687 A    
C28   H8    1.113839 S    
C16   O16   1.380948 S    
C24   O22   1.384733 S    
O4    C2    1.287324 A    
N7    O18   1.301471 A    
C31   H17   1.115335 S    
N6    O13   1.301357 A    
O21   C31   1.412667 S    
C19   C21   1.394560 A    
C30   H14   1.113250 S    
C30   H15   1.111719 S    
C18   C20   1.375036 A    
O7    Zn2   1.994442 S    
C29   H11   1.111312 S    
N10   O26   1.299498 A    
C32   H20   1.108501 S    
O6    C4    1.296141 A    
O10   C28   1.410401 S    
C2    C21   1.430066 S    
C8    H1    1.079808 S    
C15   O15   1.383669 S    
C18   C21   1.407466 A    
O7    C3    1.290455 A    
O3    Zn2   2.003132 S    
O8    C4    1.300153 A    
C14   N6    1.440691 S    
C32   H21   1.115770 S    
C10   C12   1.416600 A    
N5    O12   1.301366 A    
C12   C14   1.406227 A    
O1    Zn1   2.005615 S    
Zn1   N3    2.020903 S    
Zn2   N4    2.020903 S    
C5    C7    1.387648 A    
C27   H5    1.112441 S    
O6    Zn2   2.004482 S    
C29   H13   1.109246 S    
C20   C22   1.397350 A    
O3    C1    1.286246 A    
O8    Zn1   1.994442 S    
C13   N5    1.441024 S    
C23   N4    1.361389 A    
C17   C22   1.408820 A    
C30   H16   1.108720 S    
C28   H10   1.112825 S    
C11   C13   1.410365 A    
N7    O17   1.300936 A    
C9    O10   1.383260 S    
N10   O25   1.301102 A    
C17   N7    1.437487 S    
C7    C9    1.384263 A    
C20   H4    1.078074 S    
C13   C15   1.400153 A    
O15   C29   1.410909 S    
O2    Zn2   2.005613 S    
O5    Zn1   2.004482 S    
C32   H22   1.106081 S    
C6    C8    1.394726 A    
O22   C32   1.413528 S    
N1    N2    1.241860 D    
N9    O24   1.298976 A    
C26   N10   1.427711 S    
