data_mof_unit_36580.cif
_audit_creation_date              2012-12-10T17:46:33-0500
_audit_creation_method            fapswitch 2.2
_symmetry_space_group_name_H-M    P1
_symmetry_Int_Tables_number       1
_space_group_crystal_system       triclinic
_cell_length_a                    20.42379
_cell_length_b                    22.380749
_cell_length_c                    14.948594
_cell_angle_alpha                 89.999484
_cell_angle_beta                  132.185203
_cell_angle_gamma                 89.999898
_cell_volume                      5063.10158878

loop_
_atom_site_label
_atom_site_type_symbol
_atom_type_description
_atom_site_fract_x
_atom_site_fract_y
_atom_site_fract_z
_atom_type_partial_charge
C1    C     C_R   0.603472 0.914271 0.631876 0.789437
C2    C     C_R   0.397800 0.086986 0.369353 0.852219
C3    C     C_R   0.396526 0.914272 0.368121 0.789424
C4    C     C_R   0.602201 0.086985 0.630648 0.852232
C5    C     C_R   0.103474 0.414272 0.631878 0.789463
C6    C     C_R   0.897799 0.586985 0.369352 0.852200
C7    C     C_R   0.896528 0.414271 0.368123 0.789353
C8    C     C_R   0.102201 0.586985 0.630649 0.852225
C9    C     C_R   0.353022 0.763975 0.957237 -0.265183
C10   C     C_R   0.610648 0.289173 0.962123 -0.199480
C11   C     C_R   0.646973 0.763971 0.042754 -0.265168
C12   C     C_R   0.389372 0.289216 0.037934 -0.199497
C13   C     C_R   0.853024 0.263974 0.957239 -0.265178
C14   C     C_R   0.110644 0.789179 0.962114 -0.199486
C15   C     C_R   0.146960 0.263958 0.042731 -0.265172
C16   C     C_R   0.889358 0.789186 0.037893 -0.199486
C17   C     C_R   0.314072 0.981258 0.647410 -0.286520
C18   C     C_R   0.685956 0.981297 0.352636 -0.286547
C19   C     C_R   0.814060 0.481276 0.647392 -0.286531
C20   C     C_R   0.185945 0.481283 0.352617 -0.286535
C21   C     C_R   0.345471 0.997207 0.592646 0.000050
C22   C     C_R   0.654533 0.997224 0.407375 0.000087
C23   C     C_R   0.845469 0.497216 0.592638 0.000059
C24   C     C_R   0.154531 0.497218 0.407367 0.000070
C25   C     C_R   0.496310 0.989202 0.783791 0.567732
C26   C     C_R   0.503709 0.989202 0.216212 0.567655
C27   C     C_R   0.996302 0.489200 0.783789 0.567707
C28   C     C_R   0.003701 0.489204 0.216210 0.567697
C29   C     C_R   0.465747 0.972929 0.844933 -0.121750
C30   C     C_R   0.534296 0.972936 0.155102 -0.121759
C31   C     C_R   0.965730 0.472931 0.844919 -0.121758
C32   C     C_R   0.034279 0.472935 0.155088 -0.121755
C33   C     C_R   0.372834 0.968633 0.771062 0.094551
C34   C     C_R   0.627212 0.968669 0.228988 0.094580
C35   C     C_R   0.872816 0.468648 0.771042 0.094564
C36   C     C_R   0.127194 0.468656 0.228968 0.094566
C37   C     C_R   0.519905 0.962385 0.975160 0.074226
C38   C     C_R   0.480154 0.962375 0.024888 0.074278
C39   C     C_R   0.019881 0.462381 0.975141 0.074244
C40   C     C_R   0.980130 0.462380 0.024869 0.074250
C41   C     C_R   0.393829 0.939401 0.943959 -0.085285
C42   C     C_R   0.606258 0.939453 0.056119 -0.085260
C43   C     C_R   0.893794 0.439423 0.943928 -0.085297
C44   C     C_R   0.106223 0.439431 0.056089 -0.085248
C45   C     C_R   0.339089 0.946548 0.820090 -0.162277
C46   C     C_R   0.660984 0.946610 0.179982 -0.162410
C47   C     C_R   0.839059 0.446574 0.820062 -0.162335
C48   C     C_R   0.160955 0.446585 0.179954 -0.162356
C49   C     C_R   0.661778 0.137423 0.706801 -0.080307
C50   C     C_R   0.329178 0.869957 0.283575 -0.131269
C51   C     C_R   0.338227 0.137427 0.293207 -0.080298
C52   C     C_R   0.670821 0.869956 0.716421 -0.131296
C53   C     C_R   0.161777 0.637424 0.706800 -0.080325
C54   C     C_R   0.829181 0.369955 0.283580 -0.131318
C55   C     C_R   0.838225 0.637425 0.293204 -0.080257
C56   C     C_R   0.170828 0.369961 0.716430 -0.131269
C57   C     C_R   0.791661 0.196408 0.790389 -0.187809
C58   C     C_R   0.173972 0.845303 0.141676 -0.198969
C59   C     C_R   0.208315 0.196388 0.209571 -0.187809
C60   C     C_R   0.826027 0.845307 0.858325 -0.198993
C61   C     C_R   0.291662 0.696407 0.790392 -0.187811
C62   C     C_R   0.673976 0.345299 0.141683 -0.198984
C63   C     C_R   0.708335 0.696404 0.209602 -0.187804
C64   C     C_R   0.326041 0.345328 0.858357 -0.198985
C65   C     C_R   0.728421 0.154192 0.707747 -0.278364
C66   C     C_R   0.245270 0.874960 0.244985 -0.235385
C67   C     C_R   0.271558 0.154175 0.292222 -0.278369
C68   C     C_R   0.754729 0.874963 0.755014 -0.235445
C69   C     C_R   0.228423 0.654190 0.707750 -0.278369
C70   C     C_R   0.745273 0.374957 0.244990 -0.235488
C71   C     C_R   0.771575 0.654188 0.292246 -0.278393
C72   C     C_R   0.254739 0.374976 0.755035 -0.235395
C73   C     C_R   0.656015 0.166289 0.785568 0.351098
C74   C     C_R   0.343193 0.830936 0.223622 0.405838
C75   C     C_R   0.344018 0.166313 0.214483 0.351055
C76   C     C_R   0.656807 0.830931 0.776372 0.405871
C77   C     C_R   0.156010 0.666292 0.785561 0.351058
C78   C     C_R   0.843197 0.330933 0.223629 0.405880
C79   C     C_R   0.843999 0.666300 0.214456 0.351149
C80   C     C_R   0.156815 0.330933 0.776378 0.405847
C81   C     C_R   0.713396 0.214344 0.858596 -0.022202
C82   C     C_R   0.269329 0.808835 0.108251 0.081646
C83   C     C_R   0.286619 0.214358 0.141431 -0.022179
C84   C     C_R   0.730671 0.808833 0.891746 0.081661
C85   C     C_R   0.213392 0.714347 0.858590 -0.022195
C86   C     C_R   0.769333 0.308830 0.108259 0.081621
C87   C     C_R   0.786612 0.714352 0.141418 -0.022199
C88   C     C_R   0.230679 0.308842 0.891760 0.081681
C89   C     C_R   0.786141 0.225193 0.868358 0.132252
C90   C     C_R   0.184611 0.813936 0.071121 0.089948
C91   C     C_R   0.213851 0.225186 0.131627 0.132232
C92   C     C_R   0.815389 0.813939 0.928881 0.089938
C93   C     C_R   0.286139 0.725194 0.868357 0.132250
C94   C     C_R   0.684615 0.313931 0.071129 0.089936
C95   C     C_R   0.713860 0.725194 0.131641 0.132244
C96   C     C_R   0.315402 0.313959 0.928910 0.089949
C97   C     C_R   0.702766 0.249948 0.926696 0.026223
C98   C     C_R   0.276136 0.781925 0.028188 0.108345
C99   C     C_R   0.297252 0.249971 0.073341 0.026232
C100  C     C_R   0.723865 0.781926 0.971812 0.108344
C101  C     C_R   0.202761 0.749952 0.926688 0.026224
C102  C     C_R   0.776140 0.281921 0.028195 0.108344
C103  C     C_R   0.797242 0.749958 0.073321 0.026224
C104  C     C_R   0.223869 0.281931 0.971820 0.108333
C105  C     C_R   0.350147 0.789832 0.039328 -0.115347
C106  C     C_R   0.619513 0.257438 0.891251 -0.203064
C107  C     C_R   0.649850 0.789829 0.960663 -0.115317
C108  C     C_R   0.380509 0.257481 0.108807 -0.203053
C109  C     C_R   0.850150 0.289829 0.039334 -0.115333
C110  C     C_R   0.119509 0.757444 0.891242 -0.203059
C111  C     C_R   0.149844 0.289823 0.960653 -0.115323
C112  C     C_R   0.880495 0.757454 0.108770 -0.203073
Cu1   Cu    Cu3+1 0.526640 0.000000 0.436960 1.028334
Cu2   Cu    Cu3+1 0.473360 0.000000 0.563040 1.028325
Cu3   Cu    Cu3+1 0.026640 0.500000 0.436960 1.028316
Cu4   Cu    Cu3+1 0.973360 0.500000 0.563040 1.028320
H1    H     H_    0.409216 0.772921 0.965838 0.140601
H2    H     H_    0.545477 0.294193 0.931533 0.142793
H3    H     H_    0.590775 0.772913 0.034145 0.140608
H4    H     H_    0.454546 0.294250 0.068539 0.142783
H5    H     H_    0.909217 0.272921 0.965838 0.140601
H6    H     H_    0.045473 0.794200 0.931523 0.142787
H7    H     H_    0.090752 0.272891 0.034105 0.140605
H8    H     H_    0.954528 0.794210 0.068486 0.142786
H9    H     H_    0.368925 0.911330 0.972119 0.202763
H10   H     H_    0.631202 0.911392 0.028007 0.202871
H11   H     H_    0.868870 0.411359 0.972069 0.202827
H12   H     H_    0.131149 0.411363 0.027960 0.202823
H13   H     H_    0.233967 0.904149 0.291295 0.164661
H14   H     H_    0.734703 0.132247 0.649253 0.177761
H15   H     H_    0.766031 0.904154 0.708706 0.164672
H16   H     H_    0.265259 0.132215 0.350687 0.177756
H17   H     H_    0.733969 0.404146 0.291299 0.164678
H18   H     H_    0.234707 0.632243 0.649261 0.177762
H19   H     H_    0.266041 0.404170 0.708728 0.164660
H20   H     H_    0.765288 0.632237 0.350730 0.177761
H21   H     H_    0.345668 0.705953 0.794520 0.152732
H22   H     H_    0.609342 0.349923 0.112900 0.139844
H23   H     H_    0.654324 0.705946 0.205466 0.152732
H24   H     H_    0.390677 0.349964 0.887153 0.139845
H25   H     H_    0.845665 0.205956 0.794513 0.152726
H26   H     H_    0.109339 0.849928 0.112892 0.139839
H27   H     H_    0.154292 0.205919 0.205414 0.152732
H28   H     H_    0.890661 0.849934 0.887111 0.139851
H29   H     H_    0.404016 0.819289 0.105279 0.221392
H30   H     H_    0.559601 0.240919 0.805616 0.196235
H31   H     H_    0.595977 0.819283 0.894705 0.221429
H32   H     H_    0.440423 0.240977 0.194460 0.196252
H33   H     H_    0.904020 0.319286 0.105285 0.221417
H34   H     H_    0.059597 0.740926 0.805606 0.196240
H35   H     H_    0.095968 0.319273 0.894688 0.221412
H36   H     H_    0.940408 0.740941 0.194412 0.196238
H37   H     H_    0.270367 0.933270 0.762255 0.151556
H38   H     H_    0.729716 0.933357 0.237831 0.151563
H39   H     H_    0.770333 0.433308 0.762221 0.151562
H40   H     H_    0.229683 0.433321 0.237798 0.151559
H41   H     H_    0.700338 0.003724 0.504114 0.135896
H42   H     H_    0.299652 0.003704 0.495906 0.135887
H43   H     H_    0.200342 0.503716 0.504106 0.135894
H44   H     H_    0.799656 0.503715 0.495898 0.135890
H45   H     H_    0.243335 0.977077 0.592089 0.152613
H46   H     H_    0.756697 0.977136 0.407972 0.152612
H47   H     H_    0.743322 0.477104 0.592065 0.152613
H48   H     H_    0.256685 0.477113 0.407947 0.152613
N1    N     N_R   0.433280 0.000000 0.657760 -0.231801
N2    N     N_R   0.566720 0.000000 0.342240 -0.231781
N3    N     N_R   0.933280 0.500000 0.657760 -0.231794
N4    N     N_R   0.066720 0.500000 0.342240 -0.231789
O1    O     O_R   0.600040 0.935040 0.546740 -0.606020
O2    O     O_R   0.399960 0.064960 0.453260 -0.617942
O3    O     O_R   0.399960 0.935040 0.453260 -0.606025
O4    O     O_R   0.600040 0.064960 0.546740 -0.617932
O5    O     O_R   0.100040 0.435040 0.546740 -0.606017
O6    O     O_R   0.899960 0.564960 0.453260 -0.617950
O7    O     O_R   0.899960 0.435040 0.453260 -0.606007
O8    O     O_R   0.100040 0.564960 0.546740 -0.617935
O9    O     O_R   0.555010 0.935070 0.653220 -0.496654
O10   O     O_R   0.444990 0.064930 0.346780 -0.446445
O11   O     O_R   0.444990 0.935070 0.346780 -0.496685
O12   O     O_R   0.555010 0.064930 0.653220 -0.446452
O13   O     O_R   0.055010 0.435070 0.653220 -0.496654
O14   O     O_R   0.944990 0.564930 0.346780 -0.446443
O15   O     O_R   0.944990 0.435070 0.346780 -0.496692
O16   O     O_R   0.055010 0.564930 0.653220 -0.446449
O17   O     O_3   0.427493 0.812724 0.277870 -0.748978
H49   H     H_    0.468664 0.821330 0.365581 0.313239
O18   O     O_3   0.599918 0.143328 0.798333 -0.695906
H50   H     H_    0.631972 0.142982 0.885624 0.356844
O19   O     O_3   0.572508 0.812713 0.722119 -0.748977
H51   H     H_    0.531336 0.821329 0.634414 0.313240
O20   O     O_3   0.400164 0.143381 0.201787 -0.695972
H52   H     H_    0.368129 0.143022 0.114503 0.356826
O21   O     O_3   0.927498 0.312722 0.277877 -0.748962
H53   H     H_    0.968669 0.321330 0.365587 0.313246
O22   O     O_3   0.099908 0.643335 0.798317 -0.695922
H54   H     H_    0.131959 0.642988 0.885607 0.356831
O23   O     O_3   0.072517 0.312708 0.722117 -0.748990
H55   H     H_    0.031346 0.321324 0.634412 0.313240
O24   O     O_3   0.900114 0.643351 0.201719 -0.695920
H56   H     H_    0.868066 0.642999 0.114431 0.356855
S1    S     S_3+6 0.383761 0.990279 0.125205 0.012759
O25   O     O_2   0.341518 0.022374 0.009163 -0.323655
O26   O     O_2   0.354438 0.926422 0.100748 -0.380753
O27   O     O_3   0.331932 0.018316 0.166712 -0.500824
H57   H     H_    0.268195 0.010643 0.098188 0.358715
S2    S     S_3+6 0.616251 0.990260 0.874753 0.012783
O28   O     O_2   0.658531 0.022376 0.990787 -0.323615
O29   O     O_2   0.645542 0.926395 0.899225 -0.380918
O30   O     O_3   0.668073 0.018249 0.833198 -0.500792
H58   H     H_    0.731799 0.010487 0.901642 0.358684
S3    S     S_3+6 0.883756 0.490271 0.125223 0.012779
O31   O     O_2   0.841490 0.522368 0.009176 -0.323522
O32   O     O_2   0.854458 0.426408 0.100776 -0.380942
O33   O     O_3   0.831930 0.518294 0.166744 -0.500765
H59   H     H_    0.768213 0.510452 0.098368 0.358672
S4    S     S_3+6 0.116246 0.490262 0.874767 0.012777
O34   O     O_2   0.158513 0.522372 0.990802 -0.323663
O35   O     O_2   0.145547 0.426399 0.899239 -0.380829
O36   O     O_3   0.168068 0.518262 0.833222 -0.500813
H60   H     H_    0.231801 0.510573 0.901727 0.358707

loop_
_geom_bond_atom_site_label_1
_geom_bond_atom_site_label_2
_ccdc_geom_bond_type
C88   C96   A    
C21   H42   S    
C69   H18   S    
C14   H6    S    
C29   C33   A    
C33   C45   A    
S1    O25   D    
C5    C56   S    
C75   O20   S    
C67   H16   S    
S4    O36   S    
C6    C55   S    
C61   H21   S    
C76   C84   A    
C51   C67   A    
C79   C87   A    
C65   H14   S    
C57   C89   A    
C24   H43   S    
Cu4   O6    S    
C28   S3    S    
C99   C108  A    
C30   C38   A    
C37   C38   A    
C98   C105  A    
C49   C65   A    
C6    O14   A    
C106  H30   S    
C32   C36   A    
C24   N4    A    
C51   C75   A    
C50   C74   A    
C64   H24   S    
Cu3   N4    S    
C61   C93   A    
C10   C94   A    
C9    C105  A    
Cu3   Cu4   S    
C20   H48   S    
C63   C95   A    
C21   N1    A    
C62   C70   A    
Cu2   O2    S    
C42   C46   A    
C5    O13   A    
C37   C42   A    
C3    O11   A    
C14   C90   A    
C13   C109  A    
C76   O19   S    
C86   C94   A    
C77   C85   A    
C59   C67   A    
C12   H4    S    
C85   C93   A    
C58   C66   A    
C40   C43   A    
C26   N2    A    
C20   C24   A    
C56   C72   A    
C87   C95   A    
C70   H17   S    
C13   H5    S    
C112  H36   S    
Cu4   N3    S    
C36   C48   A    
C34   C46   A    
S2    O28   D    
C97   C102  A    
C52   C68   A    
C74   O17   S    
C81   C89   A    
C78   C86   A    
C32   C40   A    
Cu1   O10   S    
C48   H40   S    
C59   H27   S    
O24   H56   S    
C83   C99   A    
C23   H44   S    
S1    O26   D    
C15   H7    S    
C1    O9    A    
C4    O12   A    
C73   C81   A    
C88   C104  A    
C3    C50   S    
Cu1   O4    S    
C60   C92   A    
C25   C29   A    
Cu2   O3    S    
C46   H38   S    
C79   O24   S    
C82   C98   A    
C27   C31   A    
O20   H52   S    
C84   C100  A    
C75   C83   A    
C15   C111  A    
C107  H31   S    
C28   C32   A    
C26   S1    S    
S4    O34   D    
C64   C96   A    
C38   C41   A    
C11   H3    S    
C43   H11   S    
C39   C40   A    
C12   C108  A    
C30   C34   A    
O33   H59   S    
C72   H19   S    
Cu1   O1    S    
C6    O6    A    
C25   N1    A    
C53   C69   A    
C100  C103  A    
C17   C21   A    
C7    O7    A    
C103  C112  A    
C78   O21   S    
C22   N2    A    
C68   H15   S    
C109  H33   S    
C62   C94   A    
Cu3   O8    S    
C10   H2    S    
C41   H9    S    
C55   C79   A    
C58   H26   S    
S3    O31   D    
C54   C70   A    
Cu2   O9    S    
C105  H29   S    
Cu4   O13   S    
C8    O8    A    
O30   H58   S    
C52   C76   A    
C17   C33   A    
C19   H47   S    
C82   C90   A    
C62   H22   S    
C84   C92   A    
C18   C34   A    
C17   H45   S    
C2    O2    A    
C23   N3    A    
C97   C106  A    
S3    O32   D    
C63   C71   A    
C26   C30   A    
Cu2   O12   S    
C3    O3    A    
C11   C107  A    
C53   C77   A    
S1    O27   S    
C87   C103  A    
C10   C106  A    
C45   H37   S    
C29   C37   A    
C25   S2    S    
C86   C102  A    
C9    C93   A    
C71   H20   S    
Cu3   O14   S    
C85   C101  A    
C16   C112  A    
Cu2   N1    S    
Cu1   Cu2   S    
C59   C91   A    
C11   C95   A    
O19   H51   S    
C14   C110  A    
C44   H12   S    
C100  C107  A    
C4    O4    A    
Cu4   O7    S    
C13   C89   A    
C18   C22   A    
C5    O5    A    
S4    O35   D    
C110  H34   S    
C111  H35   S    
C8    C53   S    
C104  C111  A    
Cu3   O15   S    
C50   C66   A    
C16   C92   A    
C39   C44   A    
C22   H41   S    
C63   H23   S    
C98   C101  A    
C83   C91   A    
C28   N4    A    
C56   C80   A    
C57   H25   S    
C4    C49   S    
C58   C90   A    
C61   C69   A    
C66   H13   S    
O36   H60   S    
C101  C110  A    
O18   H50   S    
C80   C88   A    
C19   C35   A    
C60   H28   S    
C18   H46   S    
S2    O30   S    
C8    O16   A    
O17   H49   S    
C27   S4    S    
C47   H39   S    
Cu1   O11   S    
C80   O23   S    
Cu4   O16   S    
C31   C35   A    
C1    O1    A    
C81   C97   A    
C31   C39   A    
C99   C104  A    
C49   C73   A    
C7    O15   A    
C64   C72   A    
C77   O22   S    
O23   H55   S    
C1    C52   S    
C55   C71   A    
C2    C51   S    
C42   H10   S    
C15   C91   A    
O22   H54   S    
C20   C36   A    
C19   C23   A    
S3    O33   S    
O27   H57   S    
C60   C68   A    
Cu3   O5    S    
O21   H53   S    
Cu1   N2    S    
C73   O18   S    
C41   C45   A    
C12   C96   A    
C102  C109  A    
C2    O10   A    
C7    C54   S    
C108  H32   S    
C35   C47   A    
C16   H8    S    
S2    O29   D    
C43   C47   A    
C74   C82   A    
C9    H1    S    
C44   C48   A    
C57   C65   A    
C27   N3    A    
C54   C78   A    
