data_mof_unit_57105.cif
_audit_creation_date              2012-12-10T18:08:26-0500
_audit_creation_method            fapswitch 2.2
_symmetry_space_group_name_H-M    P1
_symmetry_Int_Tables_number       1
_space_group_crystal_system       triclinic
_cell_length_a                    12.74632
_cell_length_b                    12.97176
_cell_length_c                    14.148635
_cell_angle_alpha                 92.216161
_cell_angle_beta                  102.53642
_cell_angle_gamma                 81.747181
_cell_volume                      2259.87538628

loop_
_atom_site_label
_atom_site_type_symbol
_atom_type_description
_atom_site_fract_x
_atom_site_fract_y
_atom_site_fract_z
_atom_type_partial_charge
C1    C     C_R   0.438585 0.691609 0.489048 0.939515
C2    C     C_R   0.529331 0.037155 0.539154 -0.004039
C3    C     C_R   0.598371 0.010747 0.630907 -0.052665
C4    C     C_R   0.501933 0.500021 0.670547 0.899531
C5    C     C_R   0.589672 0.918220 0.675423 -0.264486
C6    C     C_R   0.515492 0.852604 0.631369 0.066643
C7    C     C_R   0.543833 0.125565 0.490960 0.329652
C8    C     C_R   0.670402 0.175550 0.633701 0.334891
C9    C     C_R   0.396848 0.802533 0.478067 -0.110165
C10   C     C_R   0.088178 0.351029 0.359996 0.442704
C11   C     C_R   0.798280 0.628936 0.614681 0.479578
C12   C     C_1   0.495421 0.498448 0.227215 -0.159656
C13   C     C_R   0.893678 0.675982 0.626205 -0.286985
C14   C     C_R   0.969533 0.639926 0.568584 0.429328
C15   C     C_R   0.954614 0.550575 0.509231 -0.090745
C16   C     C_R   0.561417 0.308592 0.514136 0.965150
C17   C     C_R   0.851953 0.514183 0.492051 0.025761
C18   C     C_R   0.037001 0.495197 0.465266 -0.015583
C19   C     C_R   0.007701 0.421842 0.390539 -0.138886
C20   C     C_R   0.898434 0.415337 0.354003 -0.187555
C21   C     C_R   0.828822 0.439464 0.417136 0.403162
C22   C     C_R   0.148144 0.504397 0.495945 -0.035403
C23   C     C_R   0.672287 0.078986 0.676636 -0.070971
C24   C     C_R   0.194715 0.367036 0.389383 0.495878
C25   C     C_R   0.498298 0.499420 0.329477 0.899356
C26   C     C_1   0.505356 0.500319 0.772893 -0.119155
C27   C     C_1   0.505082 0.500088 0.858227 0.025954
C28   C     C_1   0.502428 0.499430 0.957778 0.044272
C29   C     C_1   0.499424 0.498817 0.042531 0.040941
C30   C     C_1   0.496307 0.498347 0.141989 0.009906
C31   C     C_2   0.853923 0.386284 0.251527 0.441550
C32   C     C_2   0.911627 0.763966 0.695712 0.418134
C33   C     C_2   0.747708 0.054306 0.771741 0.524331
C34   C     C_R   0.599801 0.200478 0.543283 -0.241099
C35   C     C_2   0.192566 0.983561 0.300075 0.448632
C36   C     C_2   0.494570 0.770788 0.692830 0.418965
C37   C     C_R   0.313355 0.835283 0.397410 0.349199
C38   C     C_R   0.288440 0.942411 0.375227 -0.112139
C39   C     C_R   0.357650 0.010654 0.424667 -0.190844
C40   C     C_R   0.447821 0.974939 0.498676 0.019927
C41   C     C_R   0.452812 0.875740 0.536986 -0.000405
H1    H     H_    0.178728 0.555652 0.553815 0.237551
H2    H     H_    0.760370 0.315348 0.377558 0.302484
H3    H     H_    0.723956 0.013164 0.827120 0.028469
H4    H     H_    0.511146 0.072381 0.360097 0.346751
H5    H     H_    0.231145 0.787925 0.274594 0.325582
H6    H     H_    0.125412 0.939172 0.277021 0.072617
H7    H     H_    0.557040 0.739810 0.753862 0.082246
H8    H     H_    0.328471 0.337317 0.346071 0.386230
H9    H     H_    0.637997 0.896708 0.746212 0.109443
H10   H     H_    0.338533 0.092500 0.407148 0.271843
H11   H     H_    0.765256 0.279654 0.639695 0.364428
H12   H     H_    0.771523 0.368283 0.229542 0.068407
H13   H     H_    0.004536 0.236670 0.324304 0.323455
H14   H     H_    0.757706 0.684532 0.733318 0.298285
H15   H     H_    0.027888 0.771308 0.572235 0.372835
H16   H     H_    0.843281 0.818025 0.709641 0.063948
N1    N     N_R   0.222200 0.444680 0.454480 -0.210281
N2    N     N_R   0.776970 0.554780 0.545050 -0.104766
O1    O     O_R   0.366740 0.627160 0.478260 -0.522079
O2    O     O_2   0.906383 0.388610 0.189138 -0.481561
O3    O     O_3   0.066972 0.262393 0.306182 -0.622505
O4    O     O_3   0.721758 0.659319 0.669236 -0.753691
O5    O     O_3   0.051292 0.696539 0.561101 -0.725577
O6    O     O_2   0.002840 0.775627 0.739732 -0.491501
O7    O     O_3   0.744794 0.383294 0.410013 -0.725941
O8    O     O_2   0.838227 0.080612 0.789541 -0.478543
O9    O     O_3   0.506170 0.141389 0.392745 -0.749337
O10   O     O_3   0.261201 0.760699 0.340735 -0.743037
O11   O     O_2   0.187288 0.068050 0.262911 -0.458520
O12   O     O_R   0.544830 0.662520 0.507340 -0.600258
O13   O     O_2   0.405322 0.742200 0.680092 -0.569626
O14   O     O_3   0.270467 0.298914 0.354370 -0.676436
O15   O     O_R   0.410930 0.482320 0.611740 -0.600451
O16   O     O_R   0.589030 0.517680 0.640820 -0.541442
O17   O     O_R   0.455170 0.337480 0.492660 -0.594747
O18   O     O_R   0.633260 0.372840 0.521740 -0.559705
O19   O     O_R   0.410970 0.482320 0.359180 -0.619006
O20   O     O_R   0.589070 0.517680 0.388260 -0.546827
O21   O     O_3   0.731262 0.247024 0.685310 -0.701526
Zn1   Zn    Zn3+2 0.381090 0.476390 0.480580 1.018070
Zn2   Zn    Zn3+2 0.618910 0.523610 0.519420 1.032545

loop_
_geom_bond_atom_site_label_1
_geom_bond_atom_site_label_2
_ccdc_geom_bond_type
C15   C18   A    
C39   H10   S    
C37   O10   S    
C21   O7    S    
C31   O2    D    
C13   C32   S    
C3    C23   A    
C2    C7    A    
N2    Zn2   S    
C35   H6    S    
C22   H1    S    
C26   C27   T    
C29   C30   S    
C28   C29   T    
C18   C19   A    
C11   O4    S    
C5    C6    A    
C24   O14   S    
C8    C23   A    
C16   O18   A    
H5    O10   S    
C16   C34   S    
C7    O9    S    
C19   C20   A    
C35   O11   D    
C23   C33   S    
C6    C41   A    
H14   O4    S    
H15   O5    S    
C4    O15   A    
O12   Zn2   S    
C16   O17   A    
C13   C14   A    
C10   O3    S    
C32   H16   S    
C11   N2    A    
C25   O19   A    
C35   C38   S    
C1    C9    S    
N1    Zn1   S    
C39   C40   A    
C8    C34   A    
H13   O3    S    
C10   C24   A    
C17   C21   A    
C37   C38   A    
O1    Zn1   S    
C10   C19   A    
C14   O5    S    
H4    O9    S    
C9    C37   A    
C1    O12   A    
C31   H12   S    
C17   N2    A    
C40   C41   A    
C7    C34   A    
H8    O14   S    
C5    H9    S    
C1    O1    A    
O15   Zn1   S    
C33   O8    D    
C15   C17   A    
C12   C30   T    
C18   C22   A    
C33   H3    S    
C3    C5    A    
C25   O20   A    
O17   Zn1   S    
C22   N1    A    
O20   Zn2   S    
C4    C26   S    
O16   Zn2   S    
C9    C41   A    
C12   C25   S    
C2    C3    A    
C11   C13   A    
O19   Zn1   S    
C38   C39   A    
O18   Zn2   S    
H2    O7    S    
C6    C36   S    
C36   H7    S    
C4    O16   A    
C2    C40   A    
C20   C21   A    
C24   N1    A    
C27   C28   S    
C8    O21   S    
C14   C15   A    
H11   O21   S    
C36   O13   D    
C32   O6    D    
C20   C31   S    
