data_mof_unit_61333.cif
_audit_creation_date              2013-03-05T16:32:34-0500
_audit_creation_method            fapswitch 2.2
_symmetry_space_group_name_H-M    P1
_symmetry_Int_Tables_number       1
_space_group_crystal_system       triclinic
_cell_length_a                    47.808172
_cell_length_b                    35.63522
_cell_length_c                    35.646722
_cell_angle_alpha                 89.999293
_cell_angle_beta                  138.045807
_cell_angle_gamma                 90.001375
_cell_volume                      40600.0108572

loop_
_atom_site_label
_atom_site_type_symbol
_atom_site_description
_atom_site_fract_x
_atom_site_fract_y
_atom_site_fract_z
_atom_type_partial_charge
O1    O     O_R   0.000000 0.968520 0.445630 -0.578204
O2    O     O_R   0.000000 0.968520 0.554370 -0.577917
O3    O     O_R   0.500000 0.468520 0.445630 -0.577611
O4    O     O_R   0.500000 0.468520 0.554370 -0.578070
O5    O     O_R   0.999990 0.031470 0.445660 -0.586642
O6    O     O_R   0.000010 0.031470 0.554340 -0.586471
O7    O     O_R   0.499990 0.531470 0.445660 -0.586259
O8    O     O_R   0.500010 0.531470 0.554340 -0.586571
C1    C     C_R   0.001254 0.999964 0.428975 0.813673
C2    C     C_R   0.998770 0.999968 0.571044 0.813309
C3    C     C_R   0.501207 0.499970 0.428942 0.813271
C4    C     C_R   0.498752 0.499965 0.571028 0.813495
O9    O     O_R   0.060460 0.968520 0.560460 -0.577805
O10   O     O_R   0.939540 0.968520 0.439540 -0.577793
O11   O     O_R   0.560460 0.468520 0.560460 -0.577673
O12   O     O_R   0.439540 0.468520 0.439540 -0.577847
O13   O     O_R   0.060460 0.031470 0.560490 -0.579413
O14   O     O_R   0.939540 0.031470 0.439510 -0.579335
O15   O     O_R   0.560460 0.531470 0.560490 -0.579328
O16   O     O_R   0.439540 0.531470 0.439510 -0.579442
C5    C     C_R   0.080264 0.999995 0.580241 0.823228
C6    C     C_R   0.919736 0.999994 0.419759 0.823138
C7    C     C_R   0.580264 0.499995 0.580238 0.822870
C8    C     C_R   0.419737 0.499994 0.419760 0.822861
Cu1   Cu    Cu3+1 0.000000 0.962730 0.500000 0.961893
Cu2   Cu    Cu3+1 0.500000 0.462730 0.500000 0.962260
Cu3   Cu    Cu3+1 0.000000 0.037270 0.500000 0.955930
Cu4   Cu    Cu3+1 0.500000 0.537270 0.500000 0.956121
C9    C     C_3   0.264225 0.984290 0.732226 -0.156612
C10   C     C_3   0.735769 0.986735 0.268855 -0.156562
C11   C     C_3   0.764229 0.486283 0.731318 -0.156493
C12   C     C_3   0.235778 0.482833 0.267032 -0.156592
C13   C     C_3   0.236235 0.019818 0.706767 -0.191437
C14   C     C_3   0.763774 0.021970 0.291673 -0.191617
C15   C     C_3   0.736232 0.521589 0.708022 -0.191525
C16   C     C_3   0.263766 0.518440 0.294110 -0.191256
H1    H     H_    0.224458 0.036265 0.670768 0.145278
H2    H     H_    0.775558 0.040185 0.326379 0.145182
H3    H     H_    0.724455 0.539490 0.673076 0.145285
H4    H     H_    0.275545 0.533764 0.330839 0.145363
H5    H     H_    0.276180 0.971233 0.717981 0.140420
H6    H     H_    0.723809 0.975679 0.284000 0.140564
H7    H     H_    0.776189 0.474858 0.716328 0.140631
H8    H     H_    0.223825 0.468589 0.280662 0.140346
H9    H     H_    0.276035 0.064536 0.780668 0.140622
H10   H     H_    0.723993 0.064011 0.214535 0.140581
H11   H     H_    0.776021 0.564130 0.784593 0.140617
H12   H     H_    0.223961 0.564669 0.222284 0.140683
C17   C     C_1   0.125147 0.000002 0.625101 -0.171185
C18   C     C_1   0.874853 1.000000 0.374898 -0.171155
C19   C     C_1   0.625146 0.500003 0.625093 -0.171167
C20   C     C_1   0.374853 0.499999 0.374902 -0.171191
C21   C     C_1   0.374832 0.999948 0.874995 -0.172881
C22   C     C_1   0.625168 0.999946 0.125007 -0.172854
C23   C     C_1   0.874831 0.499943 0.874991 -0.172833
C24   C     C_1   0.125168 0.499947 0.125005 -0.172878
C25   C     C_3   0.236283 0.964927 0.733859 0.215136
C26   C     C_3   0.763703 0.965205 0.268749 0.214921
C27   C     C_3   0.736289 0.465143 0.731706 0.214872
C28   C     C_3   0.263721 0.464841 0.264544 0.215240
C29   C     C_3   0.208731 0.999985 0.708730 0.173592
C30   C     C_3   0.791269 0.999981 0.291271 0.173596
C31   C     C_3   0.708730 0.499986 0.708714 0.173569
C32   C     C_3   0.291269 0.499974 0.291270 0.173555
C33   C     C_3   0.263915 0.979952 0.793565 -0.158769
C34   C     C_3   0.736077 0.977786 0.208012 -0.158594
C35   C     C_3   0.763915 0.478171 0.792269 -0.158648
C36   C     C_3   0.236085 0.481318 0.205557 -0.158863
C37   C     C_3   0.291264 0.999845 0.791376 0.147699
C38   C     C_3   0.708737 0.999842 0.208636 0.147678
C39   C     C_3   0.791263 0.499838 0.791357 0.147642
C40   C     C_3   0.208736 0.499841 0.208624 0.147689
C41   C     C_3   0.235928 0.015492 0.767957 -0.194007
C42   C     C_3   0.764079 0.013045 0.230978 -0.193794
C43   C     C_3   0.735921 0.513498 0.768827 -0.193836
C44   C     C_3   0.264070 0.516930 0.232783 -0.194109
C45   C     C_3   0.264039 0.035374 0.766605 -0.150526
C46   C     C_3   0.735976 0.035084 0.230765 -0.150687
C47   C     C_3   0.764031 0.535150 0.768751 -0.150659
C48   C     C_3   0.235959 0.535443 0.235015 -0.150429
C49   C     C_1   0.162855 0.000019 0.662814 -0.053588
C50   C     C_1   0.837146 0.000015 0.337184 -0.053512
C51   C     C_1   0.662854 0.500020 0.662802 -0.053447
C52   C     C_1   0.337147 0.500011 0.337188 -0.053594
C53   C     C_1   0.337118 0.999906 0.837284 -0.056424
C54   C     C_1   0.662882 0.999903 0.162721 -0.056393
C55   C     C_1   0.837117 0.499899 0.837275 -0.056359
C56   C     C_1   0.162881 0.499906 0.162717 -0.056415
H13   H     H_    0.223897 0.028394 0.782172 0.141896
H14   H     H_    0.776115 0.023943 0.215875 0.141970
H15   H     H_    0.723886 0.524766 0.783778 0.141959
H16   H     H_    0.276096 0.531028 0.219176 0.141832
H17   H     H_    0.275616 0.963356 0.829419 0.137861
H18   H     H_    0.724368 0.959428 0.173462 0.137883
H19   H     H_    0.775616 0.460124 0.827062 0.137876
H20   H     H_    0.224381 0.465847 0.168963 0.137813
C57   C     C_R   0.969481 0.020630 0.143637 -0.153892
C58   C     C_R   0.030504 0.020504 0.856312 -0.153959
C59   C     C_R   0.469452 0.520312 0.143676 -0.154027
C60   C     C_R   0.530542 0.520535 0.856369 -0.153969
H21   H     H_    0.945007 0.034154 0.135387 0.131706
H22   H     H_    0.054980 0.034006 0.864546 0.131654
H23   H     H_    0.444964 0.533777 0.135444 0.131598
H24   H     H_    0.555025 0.534037 0.864621 0.131685
C61   C     C_R   0.967533 0.020382 0.102301 0.164118
C62   C     C_R   0.032466 0.020291 0.897662 0.164203
C63   C     C_R   0.467510 0.520168 0.102343 0.164285
C64   C     C_R   0.532485 0.520316 0.897700 0.164168
C65   C     C_R   0.999812 0.002346 0.113765 -0.048074
C66   C     C_R   0.000180 0.002294 0.886219 -0.048117
C67   C     C_R   0.499814 0.502225 0.113783 -0.048131
C68   C     C_R   0.500191 0.502314 0.886234 -0.048068
C69   C     C_R   0.033375 0.985824 0.166710 -0.237806
C70   C     C_R   0.966603 0.985768 0.833280 -0.237815
C71   C     C_R   0.533391 0.485681 0.166707 -0.237870
C72   C     C_R   0.466622 0.485793 0.833290 -0.237877
H25   H     H_    0.058444 0.972033 0.176605 0.163684
H26   H     H_    0.941529 0.972003 0.823398 0.163719
H27   H     H_    0.558479 0.471955 0.176588 0.163743
H28   H     H_    0.441542 0.472025 0.823393 0.163702
C73   C     C_R   0.034745 0.986302 0.207196 -0.123751
C74   C     C_R   0.965219 0.986211 0.792780 -0.123799
C75   C     C_R   0.534756 0.486054 0.207192 -0.123865
C76   C     C_R   0.465257 0.486241 0.792809 -0.123730
H29   H     H_    0.060705 0.973060 0.247482 0.173823
H30   H     H_    0.939244 0.972972 0.752497 0.173950
H31   H     H_    0.560734 0.472808 0.247463 0.174104
H32   H     H_    0.439290 0.473002 0.752525 0.173945
C77   C     C_R   0.002765 0.003560 0.195641 0.081540
C78   C     C_R   0.997202 0.003436 0.804311 0.081445
C79   C     C_R   0.502752 0.503225 0.195660 0.081336
C80   C     C_R   0.497250 0.503466 0.804367 0.081469
C81   C     C_1   0.003862 0.003537 0.237041 -0.010029
C82   C     C_1   0.996077 0.003405 0.762881 -0.010079
C83   C     C_1   0.503872 0.503154 0.237088 -0.010141
C84   C     C_1   0.496151 0.503429 0.762962 -0.009915
C85   C     C_1   0.004722 0.003175 0.271678 0.048675
C86   C     C_1   0.995201 0.003061 0.728226 0.048853
C87   C     C_1   0.504743 0.502819 0.271741 0.049025
C88   C     C_1   0.495284 0.503071 0.728318 0.048951
C89   C     C_R   0.983534 0.029137 0.311018 -0.221542
C90   C     C_R   0.016860 0.028809 0.689398 -0.221268
C91   C     C_R   0.482446 0.528255 0.309874 -0.220803
C92   C     C_R   0.516658 0.528955 0.689187 -0.221453
H33   H     H_    0.966333 0.050893 0.279246 0.157004
H34   H     H_    0.034409 0.050315 0.721557 0.156930
H35   H     H_    0.464391 0.549392 0.277157 0.156835
H36   H     H_    0.534021 0.550595 0.721143 0.156967
C93   C     C_R   0.982395 0.027991 0.348894 -0.222316
C94   C     C_R   0.018027 0.027696 0.651549 -0.222309
C95   C     C_R   0.481308 0.527220 0.347755 -0.222392
C96   C     C_R   0.517798 0.527843 0.651312 -0.222311
H37   H     H_    0.964215 0.048943 0.345581 0.163377
H38   H     H_    0.036568 0.048415 0.655254 0.162857
H39   H     H_    0.462278 0.547617 0.343526 0.162140
H40   H     H_    0.536139 0.548696 0.654805 0.163156
C97   C     C_R   0.003821 0.999940 0.390074 -0.079355
C98   C     C_R   0.996161 0.999955 0.609889 -0.078775
C99   C     C_R   0.503824 0.499944 0.390123 -0.078045
C100  C     C_R   0.496164 0.499940 0.609900 -0.079063
C101  C     C_R   0.027942 0.973015 0.394124 0.040254
C102  C     C_R   0.971549 0.973350 0.605284 0.040017
C103  C     C_R   0.529066 0.473762 0.395436 0.040239
C104  C     C_R   0.471821 0.473151 0.605593 0.040186
C105  C     C_R   0.028120 0.973797 0.354500 0.375149
C106  C     C_R   0.971336 0.974073 0.644876 0.374727
C107  C     C_R   0.529267 0.474380 0.355828 0.374325
C108  C     C_R   0.471654 0.473873 0.645233 0.374700
C109  C     C_R   0.005925 0.002167 0.313270 -0.012924
C110  C     C_R   0.993996 0.002116 0.686627 -0.013031
C111  C     C_R   0.505943 0.501947 0.313340 -0.013238
C112  C     C_R   0.494066 0.502095 0.686709 -0.012988
O17   O     O_R   0.499990 0.945540 0.968570 -0.587849
O18   O     O_R   0.500010 0.945540 0.031430 -0.587842
O19   O     O_R   0.999990 0.445540 0.968570 -0.587852
O20   O     O_R   0.000010 0.445540 0.031430 -0.587863
C113  C     C_R   0.500000 0.927502 0.000000 0.788617
C114  C     C_R   0.000000 0.427502 0.000000 0.788622
O21   O     O_R   0.439530 0.999930 0.908090 -0.577596
O22   O     O_R   0.560470 0.999930 0.091910 -0.577603
O23   O     O_R   0.939530 0.499930 0.908090 -0.577554
O24   O     O_R   0.060470 0.499930 0.091910 -0.577552
O25   O     O_R   0.439540 0.999990 0.971030 -0.578711
O26   O     O_R   0.560460 0.999990 0.028970 -0.578685
O27   O     O_R   0.939540 0.499990 0.971030 -0.578718
O28   O     O_R   0.060460 0.499990 0.028970 -0.578752
C115  C     C_R   0.419725 0.999977 0.919798 0.832818
C116  C     C_R   0.580275 0.999976 0.080202 0.832828
C117  C     C_R   0.919725 0.499975 0.919798 0.832830
C118  C     C_R   0.080275 0.499976 0.080201 0.832819
Cu5   Cu    Cu3+1 0.500000 0.999910 0.962750 0.954282
Cu6   Cu    Cu3+1 0.500000 0.999910 0.037250 0.954261
Cu7   Cu    Cu3+1 0.000000 0.499910 0.962750 0.954286
Cu8   Cu    Cu3+1 0.000000 0.499910 0.037250 0.954292
O29   O     O_R   0.500000 0.054300 0.968530 -0.587615
O30   O     O_R   0.500000 0.054300 0.031470 -0.587611
O31   O     O_R   0.000000 0.554300 0.968530 -0.587602
O32   O     O_R   1.000000 0.554300 0.031470 -0.587615
C119  C     C_R   0.500000 0.072303 0.999999 0.788627
C120  C     C_R   1.000000 0.572303 0.999999 0.788635
O33   O     O_R   0.034970 0.054280 0.035020 -0.582334
O34   O     O_R   0.965030 0.054280 0.964980 -0.582334
O35   O     O_R   0.534970 0.554280 0.035020 -0.582310
O36   O     O_R   0.465030 0.554280 0.964980 -0.582307
C121  C     C_R   0.000000 0.072149 0.000001 0.813676
C122  C     C_R   0.500000 0.572149 0.000000 0.813747
O37   O     O_R   0.034990 0.999900 0.089390 -0.584598
O38   O     O_R   0.965010 0.999900 0.910610 -0.584560
O39   O     O_R   0.534990 0.499900 0.089390 -0.584521
O40   O     O_R   0.465010 0.499900 0.910610 -0.584586
O41   O     O_R   0.965010 0.999880 0.019400 -0.578332
O42   O     O_R   0.034990 0.999880 0.980600 -0.578347
O43   O     O_R   0.465010 0.499880 0.019400 -0.578367
O44   O     O_R   0.534990 0.499880 0.980600 -0.578337
C123  C     C_R   0.999881 0.000875 0.072286 0.800849
C124  C     C_R   0.000118 0.000862 0.927710 0.800777
C125  C     C_R   0.499881 0.500848 0.072291 0.800705
C126  C     C_R   0.500120 0.500868 0.927713 0.800822
Cu9   Cu    Cu3+1 0.041440 0.999900 0.041460 0.944460
Cu10  Cu    Cu3+1 0.958560 0.999900 0.958540 0.944535
Cu11  Cu    Cu3+1 0.541440 0.499900 0.041460 0.944572
Cu12  Cu    Cu3+1 0.458560 0.499900 0.958540 0.944452
O45   O     O_R   0.035020 0.945520 0.035010 -0.585174
O46   O     O_R   0.964980 0.945520 0.964990 -0.585159
O47   O     O_R   0.535020 0.445520 0.035010 -0.585173
O48   O     O_R   0.464980 0.445520 0.964990 -0.585195
C127  C     C_R   1.000000 0.927498 1.000000 0.799409
C128  C     C_R   0.500000 0.427498 1.000000 0.799343
C129  C     C_R   0.018171 0.172892 0.047901 -0.147652
C130  C     C_R   0.981833 0.172893 0.952104 -0.147632
C131  C     C_R   0.518106 0.672892 0.047868 -0.147585
C132  C     C_R   0.481898 0.672893 0.952137 -0.147613
H41   H     H_    0.032076 0.188431 0.084762 0.141457
H42   H     H_    0.967929 0.188432 0.915244 0.141480
H43   H     H_    0.531959 0.688430 0.084701 0.141477
H44   H     H_    0.468044 0.688432 0.915303 0.141443
C133  C     C_R   0.018439 0.133509 0.048536 0.118648
C134  C     C_R   0.981566 0.133510 0.951469 0.118615
C135  C     C_R   0.518372 0.633508 0.048501 0.118567
C136  C     C_R   0.481629 0.633509 0.951501 0.118644
C137  C     C_R   0.000002 0.113539 0.000002 -0.045629
C138  C     C_R   0.500001 0.613539 0.000001 -0.045544
C139  C     C_R   0.000002 0.192456 0.000002 0.052073
C140  C     C_R   0.500003 0.692456 0.000003 0.052078
C141  C     C_1   0.000001 0.232830 0.000002 -0.035976
C142  C     C_1   0.500002 0.732830 0.000003 -0.035963
C143  C     C_1   0.500002 0.766648 0.000003 -0.062218
C144  C     C_1   0.000001 0.266648 0.000002 -0.062238
C145  C     C_R   0.501901 0.826686 0.035838 -0.155201
C146  C     C_R   0.498101 0.826686 0.964166 -0.155228
C147  C     C_R   0.001590 0.326686 0.035538 -0.155230
C148  C     C_R   0.998411 0.326686 0.964465 -0.155207
H45   H     H_    0.503408 0.811707 0.063777 0.133061
H46   H     H_    0.496594 0.811707 0.936228 0.133041
H47   H     H_    0.002852 0.311705 0.063241 0.133050
H48   H     H_    0.997149 0.311706 0.936763 0.133066
C149  C     C_R   0.501874 0.865917 0.035853 -0.188198
C150  C     C_R   0.498127 0.865917 0.964150 -0.188226
C151  C     C_R   0.001568 0.365916 0.035557 -0.188234
C152  C     C_R   0.998433 0.365916 0.964446 -0.188191
H49   H     H_    0.503396 0.880508 0.063999 0.155039
H50   H     H_    0.496605 0.880508 0.936004 0.155029
H51   H     H_    0.002842 0.380507 0.063464 0.155048
H52   H     H_    0.997159 0.380508 0.936538 0.155061
C153  C     C_R   0.500000 0.885972 0.000001 -0.037111
C154  C     C_R   0.000000 0.385972 0.000001 -0.037141
C155  C     C_R   0.500001 0.807009 0.000002 0.143271
C156  C     C_R   0.000001 0.307009 0.000002 0.143249
C157  C     C_R   0.962165 0.826771 0.964426 -0.152075
C158  C     C_R   0.037830 0.826771 0.035561 -0.152109
C159  C     C_R   0.462165 0.326771 0.964416 -0.152163
C160  C     C_R   0.537830 0.326771 0.035571 -0.152116
H53   H     H_    0.932707 0.811785 0.936772 0.134997
H54   H     H_    0.067288 0.811786 0.063213 0.134970
H55   H     H_    0.432706 0.311785 0.936754 0.134953
H56   H     H_    0.567288 0.311785 0.063232 0.134986
C161  C     C_R   0.962119 0.865981 0.964351 -0.186408
C162  C     C_R   0.037877 0.865981 0.035641 -0.186437
C163  C     C_R   0.462118 0.365981 0.964341 -0.186491
C164  C     C_R   0.537878 0.365981 0.035652 -0.186451
H57   H     H_    0.932444 0.880577 0.936505 0.155218
H58   H     H_    0.067552 0.880577 0.063489 0.155199
H59   H     H_    0.432443 0.380577 0.936487 0.155183
H60   H     H_    0.567553 0.380577 0.063508 0.155218
C165  C     C_R   0.999998 0.886013 0.999997 -0.039937
C166  C     C_R   0.499998 0.386013 0.999998 -0.039924
C167  C     C_R   0.999997 0.807119 0.999992 0.144114
C168  C     C_R   0.499997 0.307119 0.999993 0.144124
C169  C     C_1   0.999997 0.766801 0.999992 -0.059092
C170  C     C_1   0.499997 0.266800 0.999992 -0.059140
C171  C     C_1   0.499997 0.233008 0.999993 -0.059871
C172  C     C_1   0.999997 0.733008 0.999993 -0.059833
C173  C     C_R   0.497192 0.173040 0.031100 -0.155339
C174  C     C_R   0.502803 0.173040 0.968890 -0.155311
C175  C     C_R   0.997226 0.673040 0.031136 -0.155303
C176  C     C_R   0.002770 0.673040 0.968855 -0.155294
H61   H     H_    0.494966 0.188026 0.055276 0.136267
H62   H     H_    0.505029 0.188025 0.944714 0.136313
H63   H     H_    0.995025 0.688026 0.055339 0.136324
H64   H     H_    0.004970 0.688025 0.944650 0.136308
C177  C     C_R   0.497229 0.133827 0.031181 -0.188985
C178  C     C_R   0.502767 0.133826 0.968812 -0.189022
C179  C     C_R   0.997262 0.633827 0.031216 -0.189016
C180  C     C_R   0.002735 0.633826 0.968777 -0.188948
H65   H     H_    0.494977 0.119233 0.055526 0.155912
H66   H     H_    0.505020 0.119233 0.944469 0.155925
H67   H     H_    0.995036 0.619233 0.055589 0.155932
H68   H     H_    0.004962 0.619232 0.944406 0.155934
C181  C     C_R   0.499999 0.113793 0.999998 -0.036991
C182  C     C_R   0.999999 0.613793 0.999998 -0.037013
C183  C     C_R   0.499997 0.192690 0.999994 0.143293
C184  C     C_R   0.999997 0.692690 0.999994 0.143269
C185  C     C_3   0.055432 0.945453 0.442481 -0.733791
H69   H     H_    0.072808 0.960100 0.482481 0.204310
H70   H     H_    0.035913 0.922804 0.435273 0.250212
H71   H     H_    0.079553 0.932446 0.448382 0.258589
C186  C     C_3   0.943607 0.946220 0.556397 -0.732453
H72   H     H_    0.926911 0.961046 0.516754 0.203642
H73   H     H_    0.962718 0.923069 0.563555 0.250243
H74   H     H_    0.918875 0.933902 0.549770 0.258160
C187  C     C_3   0.557682 0.447276 0.445106 -0.732719
H75   H     H_    0.573893 0.462482 0.484280 0.202672
H76   H     H_    0.539193 0.423723 0.438528 0.250350
H77   H     H_    0.582822 0.435536 0.452234 0.258238
C188  C     C_3   0.444090 0.445819 0.556948 -0.733122
H78   H     H_    0.427020 0.460578 0.517127 0.203888
H79   H     H_    0.463394 0.422936 0.564081 0.250314
H80   H     H_    0.419685 0.433133 0.550710 0.258365
N1    N     N_R   0.049886 0.945443 0.355192 0.110036
O49   O     O_R   0.076713 0.954851 0.356144 -0.366888
O50   O     O_R   0.041190 0.910147 0.351726 -0.351083
N2    N     N_R   0.949047 0.945987 0.643593 0.110198
O51   O     O_R   0.922529 0.955723 0.643088 -0.366910
O52   O     O_R   0.956857 0.910560 0.645882 -0.351089
N3    N     N_R   0.552250 0.446678 0.357880 0.110357
O53   O     O_R   0.578392 0.456855 0.357875 -0.366871
O54   O     O_R   0.545571 0.411102 0.357029 -0.351118
N4    N     N_R   0.449700 0.445595 0.644314 0.110229
O55   O     O_R   0.423214 0.455093 0.643946 -0.367043
O56   O     O_R   0.457900 0.410243 0.646997 -0.351071
C189  C     C_3   0.037502 0.113326 0.100589 -0.845508
H81   H     H_    0.048300 0.133225 0.133303 0.228301
H82   H     H_    0.014001 0.094329 0.090027 0.218082
H83   H     H_    0.064926 0.096651 0.118643 0.249998
C190  C     C_3   0.962508 0.113327 0.899418 -0.845381
H84   H     H_    0.951711 0.133227 0.866705 0.228319
H85   H     H_    0.986011 0.094332 0.909984 0.218080
H86   H     H_    0.935083 0.096649 0.881361 0.250011
C191  C     C_3   0.537366 0.613321 0.100513 -0.845436
H87   H     H_    0.548133 0.633219 0.133207 0.228400
H88   H     H_    0.513834 0.594332 0.089883 0.218075
H89   H     H_    0.564797 0.596636 0.118610 0.250008
C192  C     C_3   0.462630 0.613323 0.899486 -0.845659
H90   H     H_    0.451862 0.633222 0.866791 0.228360
H91   H     H_    0.486158 0.594334 0.910108 0.218078
H92   H     H_    0.435199 0.596639 0.881391 0.249992
C193  C     C_3   0.220332 0.924850 0.715055 -0.874939
H93   H     H_    0.247234 0.905204 0.740603 0.235697
H94   H     H_    0.200892 0.918135 0.720575 0.239604
H95   H     H_    0.201135 0.921718 0.670153 0.240896
C194  C     C_3   0.779640 0.925454 0.290535 -0.874383
H96   H     H_    0.752731 0.905966 0.266450 0.235797
H97   H     H_    0.799076 0.916884 0.285583 0.239672
H98   H     H_    0.798837 0.924257 0.335600 0.240890
C195  C     C_3   0.720339 0.425319 0.710448 -0.874294
H99   H     H_    0.747242 0.405789 0.734795 0.235777
H100  H     H_    0.700896 0.417087 0.715504 0.239642
H101  H     H_    0.701144 0.423775 0.665403 0.240985
C196  C     C_3   0.279673 0.424673 0.281514 -0.875104
H102  H     H_    0.252775 0.404987 0.255078 0.235638
H103  H     H_    0.299111 0.419100 0.275705 0.239506
H104  H     H_    0.298875 0.420364 0.326251 0.240918
C197  C     C_3   0.931670 0.040380 0.047663 -0.838747
H105  H     H_    0.912117 0.055985 0.048666 0.219535
H106  H     H_    0.943834 0.060988 0.039128 0.228927
H107  H     H_    0.911121 0.019751 0.012880 0.250874
C198  C     C_3   0.068349 0.040287 0.952293 -0.838861
H108  H     H_    0.087915 0.055853 0.951283 0.219528
H109  H     H_    0.056204 0.060928 0.960824 0.228965
H110  H     H_    0.088881 0.019660 0.987082 0.250837
C199  C     C_3   0.431623 0.540179 0.047733 -0.838946
H111  H     H_    0.412048 0.555707 0.048754 0.219539
H112  H     H_    0.443764 0.560854 0.039231 0.228993
H113  H     H_    0.411104 0.519565 0.012923 0.250811
C200  C     C_3   0.568362 0.540306 0.952339 -0.838782
H114  H     H_    0.587927 0.555885 0.951337 0.219541
H115  H     H_    0.556214 0.560935 0.960875 0.228943
H116  H     H_    0.588894 0.519674 0.987118 0.250869

loop_
_geom_bond_atom_site_label_1
_geom_bond_atom_site_label_2
_geom_bond_distance
_ccdc_geom_bond_type
C59   H23   1.084428 S    
C26   C30   1.530772 S    
C193  H93   1.109754 S    
C19   C51   1.205194 T    
C90   H34   1.083906 S    
O28   Cu7   1.943870 S    
C84   C88   1.204499 T    
C3    C99   1.479218 S    
C145  H45   1.084079 S    
O41   Cu10  1.951058 S    
C149  H49   1.083368 S    
O38   C124  1.291578 A    
C146  C155  1.399720 A    
C174  H62   1.084238 S    
C133  C189  1.508514 S    
C9    C13   1.552717 S    
C60   H24   1.084412 S    
O47   C128  1.290449 A    
C11   C27   1.542573 S    
C20   C52   1.205165 T    
C93   H37   1.083575 S    
C32   C52   1.466316 S    
C198  H110  1.109591 S    
C96   H40   1.083573 S    
C146  H46   1.084075 S    
C167  C169  1.436766 S    
C87   C111  1.441034 S    
O24   Cu8   1.943184 S    
C163  H59   1.083498 S    
O4    C4    1.290167 A    
C25   C193  1.519912 S    
C158  C167  1.399444 A    
C152  H52   1.083332 S    
C90   C110  1.395990 A    
C196  H104  1.109990 S    
C57   C61   1.405613 A    
C91   C95   1.391711 A    
C106  N2    1.437624 S    
C78   C82   1.437324 S    
C192  H91   1.110450 S    
C9    C37   1.539478 S    
C102  C186  1.514465 S    
C105  C109  1.410146 A    
C194  H98   1.109898 S    
C71   C75   1.395354 A    
Cu5   Cu6   2.655684 S    
C163  C166  1.407516 A    
C104  C108  1.419217 A    
C149  C153  1.407755 A    
O33   Cu9   1.948847 S    
C16   C48   1.551340 S    
C197  H107  1.109587 S    
C145  C149  1.397996 A    
N3    O54   1.302176 A    
C103  C187  1.514820 S    
C107  C111  1.410833 A    
O16   Cu4   1.943424 S    
C58   H22   1.084423 S    
O17   Cu5   1.948602 S    
O13   C5    1.287918 A    
O7    Cu4   1.947684 S    
O28   C118  1.288154 A    
C186  H74   1.109527 S    
O15   C7    1.287912 A    
C172  C184  1.436730 S    
C113  C153  1.479931 S    
O43   Cu12  1.951058 S    
C177  H65   1.083547 S    
C36   C40   1.539411 S    
C89   C109  1.395816 A    
O26   Cu5   1.943870 S    
O9    C5    1.287879 A    
C190  H86   1.109636 S    
C151  H51   1.083334 S    
O18   C113  1.291362 A    
C77   C81   1.437189 S    
C193  H95   1.109880 S    
C199  H111  1.110861 S    
O8    Cu4   1.947686 S    
C152  C154  1.407673 A    
Cu6   O30   1.949118 S    
C76   H32   1.083658 S    
C148  C152  1.397985 A    
O36   Cu12  1.948837 S    
O3    Cu2   1.949065 S    
C185  H71   1.108227 S    
C60   C80   1.396823 A    
C25   C29   1.530778 S    
C178  H66   1.083547 S    
C27   C31   1.530761 S    
C58   C62   1.405690 A    
C28   C32   1.530811 S    
O39   C125  1.291621 A    
C42   H14   1.110183 S    
C195  H99   1.109753 S    
C61   C197  1.508030 S    
C28   C196  1.519964 S    
C34   C38   1.539443 S    
C130  H42   1.084375 S    
O3    C3    1.290060 A    
C91   C111  1.396345 A    
N3    O53   1.301499 A    
O21   Cu5   1.943188 S    
C13   C29   1.539550 S    
C187  H75   1.111101 S    
C141  C144  1.205115 T    
C68   C126  1.482037 S    
C15   C31   1.539542 S    
O24   C118  1.287827 A    
C16   C32   1.539543 S    
C43   C47   1.551368 S    
O19   Cu7   1.948602 S    
C101  C105  1.419097 A    
C95   C99   1.402296 A    
C200  H115  1.110481 S    
C191  H87   1.110747 S    
O40   Cu12  1.948808 S    
C162  C165  1.407524 A    
Cu11  O47   1.948673 S    
C119  C181  1.478534 S    
C37   C45   1.538631 S    
C5    C17   1.434522 S    
C159  C168  1.399455 A    
C73   H29   1.083682 S    
C11   H7    1.110270 S    
C23   C117  1.434874 S    
C127  C165  1.478331 S    
O45   C127  1.290449 A    
C24   C56   1.205370 T    
C81   C85   1.204495 T    
C34   C42   1.552723 S    
C132  H44   1.084338 S    
C76   C80   1.395974 A    
O34   Cu10  1.948837 S    
C188  H79   1.110102 S    
C27   C35   1.542616 S    
O5    Cu3   1.947684 S    
C94   C98   1.402295 A    
C174  C183  1.399612 A    
C199  H113  1.109560 S    
C66   C70   1.406834 A    
O8    C4    1.292694 A    
C143  C155  1.438284 S    
C33   H17   1.110309 S    
C160  C164  1.397265 A    
C35   H19   1.110291 S    
N1    O50   1.301427 A    
C150  H50   1.083367 S    
O30   C119  1.292283 A    
C121  C137  1.474938 S    
O7    C3    1.292332 A    
O29   C119  1.292281 A    
C189  H82   1.110482 S    
C12   H8    1.110501 S    
C24   C118  1.434867 S    
C60   C64   1.405649 A    
C10   C14   1.552713 S    
C171  C183  1.436734 S    
O13   Cu3   1.943427 S    
N2    O51   1.301522 A    
O44   C126  1.288405 A    
C195  H101  1.109869 S    
C22   C54   1.205402 T    
C161  C165  1.407515 A    
C72   H28   1.083305 S    
C168  C170  1.436766 S    
O5    C1    1.292832 A    
Cu11  Cu12  2.648985 S    
C75   H31   1.083660 S    
C175  C184  1.399630 A    
C108  C112  1.410381 A    
C158  C162  1.397262 A    
C80   C84   1.437277 S    
C187  H77   1.109041 S    
C25   C33   1.542616 S    
C157  C161  1.397265 A    
O15   Cu4   1.943427 S    
C69   H25   1.083344 S    
Cu7   Cu8   2.655684 S    
C191  H89   1.109600 S    
C71   H27   1.083303 S    
C35   C43   1.552707 S    
C173  C177  1.397383 A    
C108  N4    1.437686 S    
C68   C72   1.406789 A    
C37   C53   1.465580 S    
C175  C179  1.397383 A    
C135  C191  1.508459 S    
C176  C180  1.397379 A    
C61   C65   1.422560 A    
C142  C143  1.205119 T    
C41   C45   1.551378 S    
C136  C192  1.508458 S    
C9    H5    1.110288 S    
O14   C6    1.287903 A    
C63   C67   1.422547 A    
C10   H6    1.110303 S    
C44   C48   1.551412 S    
C21   C53   1.205398 T    
C12   C16   1.552774 S    
O27   C117  1.288188 A    
C89   H33   1.083871 S    
C36   C44   1.552757 S    
N4    O56   1.301599 A    
C95   H39   1.083881 S    
C133  C137  1.417182 A    
C83   C87   1.204669 T    
O10   C6    1.287889 A    
C131  C140  1.396388 A    
C40   C48   1.538587 S    
C151  C154  1.407668 A    
C29   C49   1.466299 S    
C13   C45   1.551404 S    
Cu8   O32   1.949118 S    
C31   C43   1.539566 S    
C178  C181  1.407736 A    
C159  C163  1.397265 A    
C140  C142  1.438751 S    
C23   C55   1.205409 T    
Cu5   O29   1.949123 S    
C198  H109  1.110522 S    
C180  H68   1.083579 S    
C69   C73   1.395234 A    
O33   C121  1.286372 A    
C131  H43   1.084332 S    
C67   C125  1.482244 S    
O1    Cu1   1.949065 S    
O18   Cu6   1.948606 S    
C196  H103  1.109980 S    
O2    C2    1.290212 A    
C8    C20   1.434544 S    
O39   Cu11  1.948812 S    
O27   Cu8   1.943875 S    
O25   Cu6   1.943875 S    
C192  H90   1.110753 S    
C12   C40   1.539527 S    
C194  H97   1.109876 S    
C134  C137  1.417182 A    
C64   C200  1.508001 S    
C36   H20   1.110430 S    
C100  C104  1.422499 A    
C38   C46   1.538624 S    
C197  H106  1.110506 S    
O21   C115  1.287813 A    
C14   C30   1.539570 S    
C169  C172  1.204203 T    
C170  C171  1.204207 T    
C17   C49   1.205200 T    
C186  H73   1.110716 S    
O22   C116  1.287808 A    
C27   C195  1.519903 S    
C102  C106  1.419145 A    
O23   C117  1.287804 A    
C148  C156  1.399631 A    
O34   C121  1.286367 A    
C190  H85   1.110502 S    
O23   Cu7   1.943188 S    
C6    C18   1.434516 S    
C57   C77   1.396836 A    
C30   C50   1.466299 S    
C193  H94   1.109861 S    
C22   C116  1.434864 S    
C62   C198  1.508021 S    
C39   C47   1.538622 S    
C10   C38   1.539498 S    
O19   C114  1.291366 A    
O12   Cu2   1.943389 S    
O35   C122  1.286372 A    
C180  C182  1.407754 A    
O1    C1    1.290164 A    
C139  C141  1.438740 S    
Cu9   Cu10  2.648985 S    
H10   C46   1.110207 S    
C29   C41   1.539581 S    
C13   H1    1.110197 S    
C64   C68   1.422537 A    
C31   C51   1.466293 S    
O31   C120  1.292283 A    
C15   H3    1.110178 S    
O44   Cu11  1.951052 S    
O25   C115  1.288172 A    
C147  H47   1.084038 S    
C1    C97   1.480221 S    
C160  H56   1.084184 S    
C58   C78   1.396874 A    
C114  C154  1.479920 S    
C4    C100  1.479994 S    
C39   C55   1.465591 S    
C9    C25   1.542584 S    
C158  H54   1.084191 S    
C11   C15   1.552704 S    
Cu1   Cu3   2.656246 S    
C12   C28   1.542685 S    
O46   C127  1.290451 A    
C97   C101  1.422580 A    
C192  H92   1.109586 S    
C18   C50   1.205194 T    
C200  H114  1.110854 S    
C161  H57   1.083506 S    
C72   C76   1.395274 A    
C75   C79   1.396036 A    
C132  C140  1.396386 A    
Cu2   Cu4   2.656246 S    
C73   C77   1.396009 A    
C107  N3    1.437927 S    
O6    C2    1.292553 A    
O4    Cu2   1.949067 S    
O42   Cu9   1.951052 S    
C59   C63   1.405710 A    
C92   C112  1.395926 A    
C157  H53   1.084178 S    
C90   C94   1.391725 A    
O32   C120  1.292285 A    
C41   H13   1.110177 S    
C145  C155  1.399717 A    
C185  H69   1.110792 S    
C33   C37   1.539426 S    
O2    Cu1   1.949067 S    
C35   C39   1.539426 S    
O10   Cu1   1.943389 S    
C173  H61   1.084236 S    
C188  H78   1.111099 S    
C174  C178  1.397383 A    
C185  H70   1.109778 S    
Cu9   O45   1.948673 S    
C173  C183  1.399619 A    
C176  H64   1.084268 S    
C104  C188  1.514542 S    
C28   C36   1.542611 S    
C92   C96   1.391686 A    
C42   C46   1.551399 S    
C199  H112  1.110479 S    
C105  N1    1.437414 S    
C30   C42   1.539594 S    
O20   Cu8   1.948606 S    
C93   C97   1.402454 A    
C147  C156  1.399632 A    
O38   Cu10  1.948808 S    
O41   C123  1.288402 A    
C96   C100  1.402382 A    
C86   C110  1.440938 S    
N1    O49   1.301430 A    
O12   C8    1.287876 A    
C66   C124  1.482116 S    
H11   C47   1.110188 S    
C92   H36   1.083902 S    
C89   C93   1.391693 A    
C189  H81   1.110771 S    
C91   H35   1.084088 S    
N2    O52   1.301762 A    
C159  H55   1.084173 S    
C79   C83   1.437428 S    
C195  H100  1.109854 S    
C129  C139  1.396385 A    
Cu12  O48   1.948682 S    
C33   C41   1.552723 S    
O35   Cu11  1.948847 S    
C131  C135  1.403544 A    
C15   C47   1.551403 S    
C134  C190  1.508511 S    
C130  C139  1.396381 A    
C26   C34   1.542634 S    
O16   C8    1.287890 A    
C187  H76   1.110154 S    
C85   C109  1.440818 S    
C175  H63   1.084266 S    
C148  H48   1.084044 S    
C26   C194  1.519931 S    
O11   C7    1.287878 A    
C177  C181  1.407737 A    
C191  H88   1.110446 S    
C129  H41   1.084371 S    
O9    Cu1   1.943376 S    
C122  C138  1.474945 S    
O37   C123  1.291563 A    
C40   C56   1.465619 S    
C164  C166  1.407522 A    
O42   C124  1.288463 A    
C16   H4    1.110355 S    
O22   Cu6   1.943184 S    
O43   C125  1.288483 A    
O11   Cu2   1.943376 S    
C179  H67   1.083576 S    
C176  C184  1.399633 A    
H12   C48   1.110171 S    
O26   C116  1.288179 A    
C74   H30   1.083678 S    
C188  H80   1.108704 S    
C103  C107  1.419227 A    
C147  C151  1.397988 A    
C7    C19   1.434506 S    
O6    Cu3   1.947686 S    
O17   C113  1.291360 A    
C136  C138  1.417140 A    
C32   C44   1.539607 S    
C65   C69   1.406795 A    
C198  H108  1.110876 S    
C70   H26   1.083320 S    
C44   H16   1.110398 S    
C179  C182  1.407750 A    
O36   C122  1.286361 A    
O48   C128  1.290451 A    
C162  H58   1.083492 S    
C99   C103  1.422206 A    
C130  C134  1.403524 A    
C38   C54   1.465588 S    
Cu10  O46   1.948682 S    
C196  H102  1.109682 S    
C62   C66   1.422531 A    
C189  H83   1.109647 S    
C2    C98   1.479797 S    
C14   H2    1.110204 S    
C157  C167  1.399462 A    
O14   Cu3   1.943424 S    
C164  H60   1.083481 S    
C65   C123  1.481960 S    
C82   C86   1.204548 T    
C67   C71   1.406856 A    
C144  C156  1.438266 S    
C43   H15   1.110155 S    
C160  C168  1.399444 A    
C194  H96   1.109751 S    
O37   Cu9   1.948812 S    
O40   C126  1.291598 A    
C59   C79   1.396879 A    
C200  H116  1.109565 S    
C21   C115  1.434861 S    
C120  C182  1.478530 S    
C197  H105  1.110879 S    
C14   C46   1.551419 S    
Cu7   O31   1.949123 S    
C10   C26   1.542606 S    
O20   C114  1.291367 A    
C106  C110  1.410369 A    
C146  C150  1.397996 A    
C135  C138  1.417134 A    
C186  H72   1.111537 S    
C98   C102  1.422309 A    
C70   C74   1.395291 A    
C128  C166  1.478334 S    
C63   C199  1.507985 S    
C88   C112  1.440873 S    
N4    O55   1.301304 A    
C94   H38   1.083613 S    
C132  C136  1.403545 A    
C34   H18   1.110319 S    
C101  C185  1.514507 S    
H9    C45   1.110193 S    
C190  H84   1.110777 S    
C150  C153  1.407746 A    
C129  C133  1.403524 A    
C74   C78   1.395991 A    
C57   H21   1.084441 S    
C11   C39   1.539477 S    
