data_mof_unit_59067.cif
_audit_creation_date              2012-12-10T18:42:32-0500
_audit_creation_method            fapswitch 2.2
_symmetry_space_group_name_H-M    P1
_symmetry_Int_Tables_number       1
_space_group_crystal_system       triclinic
_cell_length_a                    8.65619
_cell_length_b                    10.658799
_cell_length_c                    9.846926
_cell_angle_alpha                 90.08421
_cell_angle_beta                  98.384152
_cell_angle_gamma                 90.643921
_cell_volume                      898.751733082

loop_
_atom_site_label
_atom_site_type_symbol
_atom_type_description
_atom_site_fract_x
_atom_site_fract_y
_atom_site_fract_z
_atom_type_partial_charge
C1    C     C_R   0.495016 0.260241 0.499190 0.825037
C2    C     C_R   0.504987 0.739758 0.500811 0.825032
C3    C     C_R   0.201528 0.498915 0.464630 0.903142
C4    C     C_R   0.798472 0.501086 0.535370 0.903153
C5    C     C_2   0.038606 0.477640 0.449971 -0.282128
C6    C     C_2   0.961394 0.522364 0.550029 -0.282135
C7    C     C_R   0.385137 0.059824 0.405007 -0.032270
C8    C     C_R   0.614879 0.940176 0.594987 -0.032273
C9    C     C_R   0.395087 0.930703 0.406904 -0.128437
C10   C     C_R   0.604925 0.069298 0.593092 -0.128424
C11   C     C_R   0.507317 0.872274 0.501068 -0.140012
C12   C     C_R   0.492690 0.127726 0.498932 -0.140021
C13   C     C_R   0.602637 0.574130 0.085153 -0.023588
C14   C     C_R   0.397363 0.425870 0.914847 -0.023593
C15   C     C_R   0.602548 0.574143 0.941286 -0.017820
C16   C     C_R   0.397452 0.425857 0.058714 -0.017808
H1    H     H_    0.312665 0.874613 0.337713 0.191717
H2    H     H_    0.687346 0.125389 0.662282 0.191726
H3    H     H_    0.684728 0.633395 0.150205 0.150473
H4    H     H_    0.315272 0.366604 0.849795 0.150478
H5    H     H_    0.684479 0.633487 0.897375 0.167996
H6    H     H_    0.315521 0.366512 0.102625 0.168016
N1    N     N_R   0.499960 0.499970 0.857200 -0.101448
N2    N     N_R   0.500040 0.500030 0.142800 -0.101450
O1    O     O_R   0.499990 0.316750 0.614620 -0.609604
O2    O     O_R   0.500010 0.683250 0.385380 -0.609601
O3    O     O_R   0.499990 0.316780 0.385290 -0.632712
O4    O     O_R   0.500010 0.683220 0.614710 -0.632729
O5    O     O_R   0.271750 0.499990 0.587840 -0.637369
O6    O     O_R   0.728250 0.500010 0.412160 -0.637366
O7    O     O_R   0.271750 0.500010 0.358510 -0.571869
O8    O     O_R   0.728250 0.499990 0.641490 -0.571871
Zn1   Zn    Zn3+2 0.500000 0.499980 0.653120 0.980464
Zn2   Zn    Zn3+2 0.500000 0.500020 0.346880 0.980474
C17   C     C_2   0.971824 0.383742 0.343240 0.438932
H7    H     H_    0.883322 0.316582 0.364654 0.086781
O9    O     O_2   0.014630 0.381309 0.230471 -0.542103
C18   C     C_2   0.028175 0.616264 0.656758 0.438948
H8    H     H_    0.116688 0.683416 0.635348 0.086802
O10   O     O_2   0.985352 0.618712 0.769520 -0.542113
C19   C     C_2   0.259105 0.121089 0.309876 0.406942
H9    H     H_    0.237434 0.220322 0.318351 0.097700
O11   O     O_2   0.176572 0.060863 0.221144 -0.529856
C20   C     C_2   0.740924 0.878913 0.690107 0.406883
H10   H     H_    0.762524 0.779665 0.681695 0.097769
O12   O     O_2   0.823559 0.939158 0.778753 -0.529865

loop_
_geom_bond_atom_site_label_1
_geom_bond_atom_site_label_2
_ccdc_geom_bond_type
C14   N1    A    
C1    O1    A    
C6    C18   S    
C14   H4    S    
C9    C11   A    
C19   H9    S    
C17   H7    S    
C3    O7    A    
C1    O3    A    
O8    Zn1   S    
C15   N1    A    
O7    Zn2   S    
C2    O2    A    
C18   O10   D    
C19   O11   D    
C3    O5    A    
C4    O8    A    
C1    C12   S    
C10   C12   A    
C10   H2    S    
C8    C11   A    
C5    C6    D    
C2    C11   S    
C5    C17   S    
C4    C6    S    
C17   O9    D    
C20   O12   D    
O4    Zn1   S    
C13   C15   A    
O3    Zn2   S    
C18   H8    S    
C14   C16   A    
C7    C12   A    
C7    C19   S    
C2    O4    A    
C13   H3    S    
O5    Zn1   S    
C15   H5    S    
C20   H10   S    
C16   N2    A    
C9    H1    S    
C7    C9    A    
O6    Zn2   S    
C16   H6    S    
N1    Zn1   S    
O2    Zn2   S    
C8    C10   A    
C4    O6    A    
C8    C20   S    
C13   N2    A    
O1    Zn1   S    
C3    C5    S    
N2    Zn2   S    
