data_mof_unit_52341.cif
_audit_creation_date              2012-12-11T14:40:28-0500
_audit_creation_method            fapswitch 2.2
_symmetry_space_group_name_H-M    P1
_symmetry_Int_Tables_number       1
_space_group_crystal_system       triclinic
_cell_length_a                    19.768094
_cell_length_b                    11.116009
_cell_length_c                    19.42001
_cell_angle_alpha                 89.796475
_cell_angle_beta                  97.275035
_cell_angle_gamma                 90.322997
_cell_volume                      4232.95950535

loop_
_atom_site_label
_atom_site_type_symbol
_atom_type_description
_atom_site_fract_x
_atom_site_fract_y
_atom_site_fract_z
_atom_type_partial_charge
C1    C     C_R   0.725999 0.950829 0.359866 0.582557
C2    C     C_3   0.254003 0.398707 0.566706 0.040014
C3    C     C_2   0.878324 0.903180 0.454222 0.569508
C4    C     C_3   0.697250 0.166153 0.045871 0.009446
C5    C     C_3   0.772229 0.168304 0.028783 -0.335141
C6    C     C_3   0.341632 0.165988 0.984656 0.038364
C7    C     C_3   0.319906 0.154520 0.057505 -0.334107
C8    C     C_3   0.156524 0.653504 0.007262 0.006609
C9    C     C_3   0.167339 0.659167 0.930453 -0.375055
C10   C     C_3   0.803414 0.677603 0.952456 0.030139
C11   C     C_3   0.727883 0.666247 0.965749 -0.334049
C12   C     C_3   0.576371 0.475836 0.958751 0.000159
C13   C     C_3   0.244960 0.889868 0.435011 0.035079
C14   C     C_3   0.554983 0.606854 0.947806 -0.388336
C15   C     C_3   0.456456 0.441328 0.067024 0.012630
C16   C     C_3   0.424835 0.504053 0.124505 -0.354268
C17   C     C_3   0.046294 0.951788 0.951152 0.017561
C18   C     C_3   0.039697 0.078415 0.921316 -0.375724
C19   C     C_3   0.933132 0.936628 0.087764 0.011950
C20   C     C_3   0.922619 0.984799 0.158681 -0.355414
C21   C     C_3   0.754039 0.898661 0.566686 0.039788
C22   C     C_3   0.746479 0.514702 0.466869 -0.153813
C23   C     C_3   0.288495 0.499705 0.530072 -0.137113
C24   C     C_3   0.246474 0.014721 0.466867 -0.153922
C25   C     C_3   0.788522 0.999675 0.530048 -0.137047
C26   C     C_3   0.807599 0.472181 0.518970 -0.140301
C27   C     C_3   0.219767 0.517382 0.483123 -0.152082
C28   C     C_3   0.307595 0.972204 0.518969 -0.139935
C29   C     C_R   0.274460 0.953258 0.639677 0.552104
C30   C     C_3   0.719784 0.017350 0.483117 -0.152332
C31   C     C_3   0.805550 0.346600 0.486335 -0.101937
C32   C     C_3   0.185855 0.415953 0.520939 -0.096973
C33   C     C_3   0.305551 0.846624 0.486333 -0.101741
C34   C     C_3   0.685885 0.915909 0.520932 -0.097158
C35   C     C_3   0.754988 0.301764 0.535341 -0.151453
C36   C     C_3   0.207948 0.322659 0.469797 -0.109679
C37   C     C_3   0.254989 0.801781 0.535336 -0.151597
C38   C     C_3   0.707971 0.822624 0.469782 -0.109793
C39   C     C_3   0.757303 0.425853 0.567577 0.041430
C40   C     C_R   0.225997 0.450837 0.359875 0.577859
C41   C     C_3   0.241734 0.423205 0.432582 0.029740
C42   C     C_3   0.257300 0.925866 0.567574 0.042687
C43   C     C_3   0.741741 0.923185 0.432566 0.028702
C44   C     C_3   0.525123 0.288416 0.970799 0.247037
C45   C     C_3   0.483543 0.249934 0.028847 0.252466
C46   C     C_3   0.984121 0.784109 0.979964 0.240210
C47   C     C_3   0.942735 0.747501 0.038534 0.256802
C48   C     C_3   0.586588 0.215804 0.003950 0.179839
C49   C     C_3   0.458555 0.136600 0.988362 0.262715
C50   C     C_3   0.043428 0.705134 0.011641 0.215683
C51   C     C_R   0.774460 0.453256 0.639678 0.557121
C52   C     C_3   0.913660 0.637658 0.996796 0.227886
C53   C     C_3   0.545176 0.177362 0.062934 -0.031559
C54   C     C_3   0.499428 0.174548 0.929912 0.014498
C55   C     C_3   0.001657 0.669979 0.070411 0.004483
C56   C     C_3   0.954467 0.674320 0.937423 -0.024744
C57   C     C_R   0.536014 0.179889 0.338097 0.547875
C58   C     C_R   0.464496 0.180415 0.662298 0.537426
C59   C     C_R   0.036003 0.679890 0.338091 0.536635
C60   C     C_R   0.964498 0.680415 0.662302 0.547550
C61   C     C_3   0.519764 0.063261 0.021822 -0.159248
C62   C     C_3   0.694067 0.343494 0.482888 -0.123564
C63   C     C_3   0.560975 0.102093 0.961898 -0.206098
C64   C     C_3   0.972832 0.558697 0.029484 -0.162118
C65   C     C_3   0.014258 0.594574 0.969351 -0.190704
C66   C     C_1   0.763659 0.417081 0.904345 0.004543
C67   C     C_1   0.237229 0.424489 0.096130 -0.043141
C68   C     C_1   0.261289 0.921096 0.902682 -0.001954
C69   C     C_1   0.738472 0.913350 0.096442 -0.009240
C70   C     C_1   0.752181 0.425567 0.038483 0.052626
C71   C     C_1   0.250909 0.408610 0.964746 -0.075665
C72   C     C_1   0.246314 0.902306 0.033459 -0.025646
C73   C     C_3   0.276703 0.304542 0.516402 -0.119455
C74   C     C_1   0.746243 0.927737 0.961036 -0.082572
C75   C     C_1   0.757636 0.412839 0.965799 0.046204
C76   C     C_1   0.245207 0.414503 0.036075 -0.082524
C77   C     C_1   0.252566 0.909437 0.962388 -0.029702
C78   C     C_1   0.743985 0.909027 0.034561 -0.047826
C79   C     C_1   0.747093 0.414406 0.099815 0.013963
C80   C     C_1   0.255893 0.395879 0.904166 -0.031280
C81   C     C_1   0.242100 0.890897 0.094272 0.003647
C82   C     C_1   0.750973 0.918337 0.899176 -0.029896
C83   C     C_R   0.738365 0.358594 0.362806 0.554795
C84   C     C_3   0.194069 0.843508 0.482883 -0.123678
C85   C     C_R   0.260353 0.364568 0.638902 0.542133
C86   C     C_R   0.238367 0.858605 0.362803 0.550843
C87   C     C_R   0.760365 0.864540 0.638887 0.544367
C88   C     C_R   0.722984 0.948827 0.164796 0.517963
C89   C     C_R   0.277698 0.951974 0.835513 0.548148
C90   C     C_R   0.221985 0.452771 0.164040 0.544153
C91   C     C_R   0.777460 0.449624 0.835408 0.524909
C92   C     C_R   0.564001 0.183338 0.137663 0.567862
C93   C     C_R   0.468675 0.179603 0.858849 0.574329
C94   C     C_R   0.031480 0.678834 0.141284 0.598866
C95   C     C_3   0.776737 0.804508 0.516370 -0.119335
C96   C     C_R   0.936076 0.682387 0.862457 0.551920
C97   C     C_R   0.737884 0.367404 0.167469 0.524939
C98   C     C_R   0.263784 0.360357 0.835163 0.532419
C99   C     C_R   0.235713 0.858724 0.164171 0.550887
C100  C     C_R   0.761742 0.868482 0.832174 0.513685
C101  C     C_1   0.487016 0.172393 0.595619 0.031226
C102  C     C_1   0.515517 0.171215 0.405694 -0.002910
C103  C     C_1   0.987004 0.672398 0.595614 0.027970
C104  C     C_1   0.015493 0.671223 0.405683 0.000963
C105  C     C_1   0.506046 0.167331 0.465504 -0.014018
C106  C     C_3   0.744959 0.389849 0.435014 0.034452
C107  C     C_1   0.497772 0.167870 0.536231 0.004788
C108  C     C_1   0.006018 0.667342 0.465492 -0.013090
C109  C     C_1   0.997750 0.667880 0.536222 0.003936
C110  C     C_3   0.696831 0.468305 0.516518 0.069045
C111  C     C_3   0.309414 0.406661 0.478411 0.057555
C112  C     C_3   0.196828 0.968316 0.516516 0.069385
C113  C     C_3   0.809432 0.906643 0.478371 0.057594
C114  C     C_2   0.633549 0.523970 0.537265 0.610667
C115  C     C_2   0.378342 0.403157 0.454362 0.568966
C116  C     C_2   0.133538 0.023964 0.537256 0.610462
Cr1   Cr    Cr6+3 0.765830 0.160660 0.268180 1.027769
Cr2   Cr    Cr6+3 0.384070 0.324050 0.751550 1.061220
Cr3   Cr    Cr6+3 0.115930 0.824050 0.248450 1.025337
Cr4   Cr    Cr6+3 0.884070 0.824050 0.751550 1.040948
Cr5   Cr    Cr6+3 0.234170 0.160660 0.731820 1.048128
Cr6   Cr    Cr6+3 0.265830 0.660660 0.268180 1.049712
Cr7   Cr    Cr6+3 0.734170 0.660660 0.731820 1.039580
Cr8   Cr    Cr6+3 0.612110 0.009150 0.248770 1.025038
Cr9   Cr    Cr6+3 0.387890 0.009150 0.751230 1.039525
Cr10  Cr    Cr6+3 0.112110 0.509150 0.248770 1.032286
Cr11  Cr    Cr6+3 0.887890 0.509150 0.751230 1.021171
Cr12  Cr    Cr6+3 0.615930 0.324050 0.248450 1.015624
H1    H     H_    0.646395 0.293108 0.465441 0.124584
H2    H     H_    0.694535 0.102361 0.465479 0.117765
H3    H     H_    0.855031 0.523947 0.535644 0.123589
H4    H     H_    0.194523 0.602392 0.465477 0.117589
H5    H     H_    0.850702 0.297005 0.472976 0.154575
H6    H     H_    0.135332 0.421478 0.539995 0.147531
H7    H     H_    0.350706 0.797034 0.472976 0.154602
H8    H     H_    0.635366 0.921421 0.539999 0.147653
H9    H     H_    0.755590 0.221413 0.568992 0.117183
H10   H     H_    0.174562 0.254827 0.440823 0.177350
H11   H     H_    0.255587 0.721437 0.568992 0.116803
H12   H     H_    0.302087 0.219354 0.533884 0.110989
H13   H     H_    0.674581 0.754798 0.440806 0.177703
H14   H     H_    0.517213 0.971056 0.043531 0.151771
H15   H     H_    0.591613 0.042377 0.932301 0.132833
H16   H     H_    0.967774 0.467003 0.051142 0.140914
H17   H     H_    0.040457 0.527952 0.939801 0.133376
H18   H     H_    0.554840 0.507830 0.593408 0.359207
H19   H     H_    0.433322 0.395376 0.373920 0.347177
H20   H     H_    0.054822 0.007798 0.593387 0.358345
H21   H     H_    0.933188 0.895503 0.373671 0.345284
H22   H     H_    0.675058 0.078259 0.032594 0.135880
H23   H     H_    0.146396 0.793123 0.465435 0.124925
H24   H     H_    0.696421 0.175982 0.102149 0.153286
H25   H     H_    0.773875 0.169446 0.971888 0.162593
H26   H     H_    0.805687 0.237628 0.054579 0.134367
H27   H     H_    0.802852 0.093790 0.052257 0.108129
H28   H     H_    0.297031 0.145370 0.945967 0.142348
H29   H     H_    0.355502 0.259825 0.972476 0.162091
H30   H     H_    0.342808 0.073743 0.084770 0.182531
H31   H     H_    0.335771 0.233630 0.090000 0.187823
H32   H     H_    0.263488 0.148514 0.053927 0.098527
H33   H     H_    0.139621 0.562388 0.021756 0.137566
H34   H     H_    0.802131 0.719329 0.533849 0.111295
H35   H     H_    0.206379 0.667582 0.039328 0.160727
H36   H     H_    0.139868 0.584722 0.900899 0.127278
H37   H     H_    0.149117 0.745271 0.906263 0.163253
H38   H     H_    0.222406 0.650913 0.925285 0.124140
H39   H     H_    0.807137 0.661091 0.897089 0.141358
H40   H     H_    0.822772 0.768314 0.964205 0.173918
H41   H     H_    0.723466 0.658374 0.021973 0.163726
H42   H     H_    0.694110 0.737680 0.943619 0.119159
H43   H     H_    0.700183 0.595386 0.935375 0.114003
H44   H     H_    0.597467 0.463733 0.014199 0.143187
H45   H     H_    0.744745 0.596042 0.433828 0.114572
H46   H     H_    0.616475 0.454565 0.925702 0.175626
H47   H     H_    0.504610 0.622111 0.965694 0.158747
H48   H     H_    0.592011 0.667233 0.978320 0.092939
H49   H     H_    0.551533 0.630775 0.891905 0.163195
H50   H     H_    0.434345 0.480463 0.016499 0.168306
H51   H     H_    0.512076 0.458673 0.077130 0.154844
H52   H     H_    0.444477 0.464584 0.175725 0.186595
H53   H     H_    0.437834 0.601391 0.124750 0.097349
H54   H     H_    0.368758 0.494195 0.115964 0.165024
H55   H     H_    0.074630 0.957981 0.004298 0.166024
H56   H     H_    0.323972 0.567513 0.556498 0.131934
H57   H     H_    0.075027 0.897289 0.917011 0.173224
H58   H     H_    0.011923 0.076071 0.867904 0.173801
H59   H     H_    0.011364 0.135958 0.954415 0.147548
H60   H     H_    0.091199 0.117807 0.919403 0.108450
H61   H     H_    0.907732 0.997171 0.046971 0.160851
H62   H     H_    0.988957 0.940073 0.085028 0.166397
H63   H     H_    0.949377 0.927496 0.200343 0.187142
H64   H     H_    0.942709 0.078167 0.164733 0.089591
H65   H     H_    0.867863 0.985077 0.163983 0.185457
H66   H     H_    0.244737 0.096070 0.433833 0.113943
H67   H     H_    0.823996 0.067490 0.556472 0.131802
H68   H     H_    0.355024 0.023977 0.535644 0.123581
O1    O     O_R   0.783230 0.287800 0.346510 -0.513904
O2    O     O_R   0.454570 0.285140 0.836900 -0.464611
O3    O     O_R   0.045430 0.785140 0.163100 -0.513158
O4    O     O_R   0.954570 0.785140 0.836900 -0.470373
O5    O     O_R   0.677850 0.374730 0.185500 -0.517388
O6    O     O_R   0.322150 0.374730 0.814500 -0.493270
O7    O     O_R   0.177850 0.874730 0.185500 -0.485342
O8    O     O_R   0.822150 0.874730 0.814500 -0.502987
O9    O     O_3   0.664630 0.164620 0.255130 -0.297865
O10   O     O_3   0.335370 0.164620 0.744870 -0.278904
O11   O     O_3   0.164630 0.664620 0.255130 -0.272788
O12   O     O_R   0.216770 0.287800 0.653490 -0.498258
O13   O     O_3   0.835370 0.664620 0.744870 -0.298802
O14   O     O_R   0.760130 0.037060 0.338610 -0.464929
O15   O     O_R   0.239870 0.037060 0.661390 -0.485013
O16   O     O_R   0.260130 0.537060 0.338610 -0.469252
O17   O     O_R   0.739870 0.537060 0.661390 -0.479876
O18   O     O_R   0.666620 0.921370 0.332440 -0.520170
O19   O     O_R   0.333380 0.921370 0.667560 -0.520281
O20   O     O_R   0.166620 0.421370 0.332440 -0.523380
O21   O     O_R   0.833380 0.421370 0.667560 -0.517273
O22   O     O_R   0.557170 0.082420 0.312350 -0.488738
O23   O     O_R   0.283230 0.787800 0.346510 -0.516904
O24   O     O_R   0.442830 0.082420 0.687650 -0.514231
O25   O     O_R   0.057170 0.582420 0.312350 -0.495897
O26   O     O_R   0.942830 0.582420 0.687650 -0.505099
O27   O     O_R   0.548310 0.285980 0.316250 -0.509937
O28   O     O_R   0.451690 0.285980 0.683750 -0.485010
O29   O     O_R   0.048310 0.785980 0.316250 -0.520830
O30   O     O_R   0.951690 0.785980 0.683750 -0.483435
O31   O     O_R   0.680520 0.375500 0.327470 -0.499875
O32   O     O_R   0.319480 0.375500 0.672530 -0.500813
O33   O     O_R   0.180520 0.875500 0.327470 -0.502728
O34   O     O_R   0.716770 0.787800 0.653490 -0.495822
O35   O     O_R   0.819480 0.875500 0.672530 -0.499638
O36   O     O_R   0.780350 0.286970 0.193350 -0.521929
O37   O     O_R   0.219650 0.286970 0.806650 -0.517242
O38   O     O_R   0.280350 0.786970 0.193350 -0.516332
O39   O     O_R   0.719650 0.786970 0.806650 -0.522853
O40   O     O_R   0.757460 0.036290 0.196640 -0.518960
O41   O     O_R   0.242540 0.036290 0.803360 -0.508529
O42   O     O_R   0.257460 0.536290 0.196640 -0.499887
O43   O     O_R   0.742540 0.536290 0.803360 -0.510848
O44   O     O_R   0.663740 0.920540 0.179290 -0.519192
O45   O     O_R   0.554500 0.081650 0.170370 -0.499711
O46   O     O_R   0.336260 0.920540 0.820710 -0.486352
O47   O     O_R   0.163740 0.420540 0.179290 -0.510221
O48   O     O_R   0.836260 0.420540 0.820710 -0.506767
O49   O     O_2   0.613750 0.621093 0.513481 -0.532861
O50   O     O_R   0.596851 0.462451 0.583431 -0.676884
O51   O     O_2   0.429294 0.410466 0.496883 -0.509892
O52   O     O_R   0.384150 0.393892 0.383647 -0.697584
O53   O     O_2   0.113732 0.121080 0.513467 -0.533277
O54   O     O_R   0.096840 0.962435 0.583418 -0.678548
O55   O     O_2   0.929321 0.910484 0.496682 -0.510092
O56   O     O_R   0.445500 0.081650 0.829630 -0.488691
O57   O     O_R   0.884041 0.893972 0.383479 -0.698527
O58   O     O_3   0.655395 0.254112 0.009606 -0.595229
O59   O     O_3   0.393282 0.082720 0.975800 -0.556790
O60   O     O_3   0.111945 0.744498 0.023966 -0.585256
O61   O     O_3   0.845732 0.597647 0.993610 -0.566296
O62   O     O_3   0.519340 0.402560 0.938360 -0.553953
O63   O     O_3   0.441468 0.317445 0.068220 -0.568180
O64   O     O_3   0.980744 0.903041 0.953144 -0.564540
O65   O     O_3   0.904201 0.820040 0.078789 -0.551389
O66   O     O_R   0.054500 0.581650 0.170370 -0.508651
O67   O     O_R   0.945500 0.581650 0.829630 -0.504282
O68   O     O_R   0.545430 0.285140 0.163100 -0.481512

loop_
_geom_bond_atom_site_label_1
_geom_bond_atom_site_label_2
_ccdc_geom_bond_type
C101  C107  T    
C39   C51   S    
C21   C87   S    
C11   H43   S    
C15   H51   S    
C29   C42   S    
Cr9   O19   S    
Cr9   O10   S    
C19   C20   S    
C24   C112  S    
C4    O58   S    
C31   H5    S    
C91   O43   A    
C22   H45   S    
C20   H63   S    
C69   C78   T    
Cr10  O25   S    
C15   O63   S    
C12   H44   S    
C7    H30   S    
Cr8   O18   S    
C51   O21   A    
C57   C102  S    
C105  C107  S    
C13   C84   S    
Cr11  O21   S    
C14   H47   S    
C52   C56   S    
C102  C105  T    
C68   C77   T    
Cr3   O3    S    
C59   C104  S    
C32   C36   S    
C12   H46   S    
Cr1   O14   S    
Cr2   O10   S    
C3    O55   D    
Cr1   O9    S    
C8    H33   S    
C83   C106  S    
C71   C76   S    
C49   O59   S    
C87   O35   A    
C26   C39   S    
C29   O19   A    
C114  O49   D    
C7    H31   S    
C116  O53   D    
C52   O61   S    
H21   O57   S    
C15   C16   S    
C88   O44   A    
C23   H56   S    
C18   H59   S    
Cr4   O13   S    
C108  C109  S    
Cr12  O27   S    
C2    C85   S    
C2    C32   S    
C94   O3    A    
C35   H9    S    
C18   H60   S    
C37   C42   S    
C61   C63   S    
C42   C112  S    
C54   C63   S    
C54   C93   S    
C21   C25   S    
C31   C106  S    
C59   O25   A    
Cr11  O26   S    
C28   H68   S    
C4    H22   S    
C53   C61   S    
Cr11  O13   S    
C39   C110  S    
C17   H57   S    
C8    C9    S    
C22   C110  S    
C44   C54   S    
C13   C86   S    
C65   H17   S    
C14   H48   S    
H18   O50   S    
C37   C84   S    
C29   O15   A    
Cr5   O41   S    
C23   C27   S    
C33   H7    S    
C83   O1    A    
C60   C103  S    
C49   C54   S    
C110  C114  S    
C115  O51   D    
C72   C81   T    
C25   H67   S    
C93   O56   A    
C74   C78   S    
C66   C91   S    
C86   O23   A    
C80   C98   S    
C51   O17   A    
Cr12  O68   S    
C70   C79   T    
C45   C53   S    
C26   C31   S    
C90   O47   A    
C27   H4    S    
C62   H1    S    
C36   C41   S    
Cr2   O6    S    
C12   O62   S    
Cr5   O10   S    
C74   C82   T    
C55   C94   S    
C88   O40   A    
Cr4   O35   S    
C71   C80   T    
C1    C43   S    
C45   O63   S    
C6    C7    S    
Cr7   O43   S    
C2    C23   S    
C46   O64   S    
C48   C53   S    
C4    H24   S    
Cr8   O22   S    
C49   C61   S    
Cr6   O23   S    
C90   O42   A    
Cr2   O28   S    
C89   O41   A    
C73   C111  S    
Cr3   O7    S    
C3    C113  S    
C95   H34   S    
C41   C111  S    
C23   C111  S    
C85   O32   A    
C99   O38   A    
C30   C34   S    
C16   H53   S    
C10   H39   S    
C48   C63   S    
C83   O31   A    
C7    H32   S    
C21   C95   S    
Cr1   O40   S    
Cr2   O32   S    
C30   H2    S    
C64   H16   S    
C8    O60   S    
C67   C90   S    
C47   O65   S    
C13   C24   S    
C38   C95   S    
C9    H36   S    
C35   C39   S    
C3    O57   S    
C13   C33   S    
C72   C77   S    
C25   C113  S    
C19   O65   S    
C84   H23   S    
C92   O45   A    
C27   C41   S    
C62   C110  S    
C34   H8    S    
Cr10  O11   S    
Cr3   O33   S    
C55   C64   S    
C40   O20   A    
C53   C92   S    
C45   C49   S    
C10   O61   S    
Cr9   O46   S    
C114  O50   S    
C58   C101  S    
C84   C112  S    
C17   O64   S    
C17   H55   S    
C69   C88   S    
C92   O68   A    
C2    C73   S    
Cr10  O20   S    
C19   H61   S    
Cr8   O44   S    
Cr7   O39   S    
C57   O22   A    
C60   O30   A    
C40   C41   S    
Cr6   O38   S    
C58   O24   A    
C12   C14   S    
C28   C33   S    
C11   H41   S    
C96   O67   A    
Cr5   O37   S    
Cr7   O17   S    
C52   C64   S    
Cr4   O8    S    
C38   H13   S    
Cr6   O16   S    
C30   C43   S    
C1    O18   A    
Cr8   O9    S    
Cr3   O11   S    
C24   H66   S    
C48   O58   S    
Cr2   O2    S    
Cr4   O30   S    
C20   H65   S    
C104  C108  T    
C6    H29   S    
Cr1   O1    S    
C44   C45   S    
Cr3   O29   S    
H20   O54   S    
C47   C55   S    
C115  O52   S    
C57   O27   A    
C37   H11   S    
C25   C30   S    
C96   O4    A    
C40   O16   A    
C46   C47   S    
C9    H38   S    
C58   O28   A    
C99   O7    A    
C1    O14   A    
C34   C38   S    
C86   O33   A    
C82   C100  S    
Cr6   O11   S    
C79   C97   S    
Cr9   O56   S    
Cr11  O48   S    
C24   C28   S    
C97   O5    A    
C4    C5    S    
C8    H35   S    
C60   O26   A    
C5    H26   S    
C20   H64   S    
C111  C115  S    
C36   C73   S    
C112  C116  S    
C5    H27   S    
C47   C52   S    
C21   C34   S    
C56   C65   S    
C87   O34   A    
C81   C99   S    
C46   C50   S    
Cr1   O36   S    
C98   O6    A    
C50   C55   S    
C17   C18   S    
C103  C109  T    
C64   C65   S    
C9    H37   S    
H19   O52   S    
C38   C43   S    
C22   C106  S    
C43   C113  S    
C32   H6    S    
C100  O8    A    
C73   H12   S    
Cr6   O42   S    
Cr7   O34   S    
C116  O54   S    
C95   C113  S    
Cr12  O31   S    
C5    H25   S    
C66   C75   T    
Cr7   O13   S    
C31   C35   S    
C28   C42   S    
Cr4   O4    S    
C94   O66   A    
C18   H58   S    
C6    O59   S    
C93   O2    A    
C35   C62   S    
C16   H54   S    
Cr12  O5    S    
Cr5   O15   S    
C56   C96   S    
C59   O29   A    
C50   C65   S    
C33   C37   S    
C14   H49   S    
C50   O60   S    
C10   C11   S    
C27   C32   S    
C19   H62   S    
C44   O62   S    
C97   O36   A    
Cr9   O24   S    
C16   H52   S    
C61   H14   S    
Cr11  O67   S    
C91   O48   A    
C70   C75   S    
C11   H42   S    
C10   H40   S    
C62   C106  S    
C22   C26   S    
C15   H50   S    
C46   C56   S    
Cr10  O47   S    
C63   H15   S    
C89   O46   A    
C100  O39   A    
Cr12  O9    S    
C67   C76   T    
Cr5   O12   S    
C68   C89   S    
Cr8   O45   S    
C36   H10   S    
Cr10  O66   S    
C6    H28   S    
C26   H3    S    
C44   C48   S    
C85   O12   A    
C98   O37   A    
