data_mof_unit_6736.cif
_audit_creation_date              2012-12-11T14:21:20-0500
_audit_creation_method            fapswitch 2.2
_symmetry_space_group_name_H-M    P1
_symmetry_Int_Tables_number       1
_space_group_crystal_system       triclinic
_cell_length_a                    21.973514
_cell_length_b                    7.224979
_cell_length_c                    14.958952
_cell_angle_alpha                 89.999624
_cell_angle_beta                  107.096771
_cell_angle_gamma                 90.001802
_cell_volume                      2269.91007982

loop_
_atom_site_label
_atom_site_type_symbol
_atom_type_description
_atom_site_fract_x
_atom_site_fract_y
_atom_site_fract_z
_atom_type_partial_charge
O1    O     O_R   0.584770 0.505770 0.002090 -0.523259
O2    O     O_R   0.415230 0.005770 0.997910 -0.523273
O3    O     O_R   0.467060 0.173340 0.861950 -0.526481
O4    O     O_R   0.532940 0.673340 0.138050 -0.526393
C1    C     C_R   0.454618 0.344180 0.826360 0.770732
C2    C     C_R   0.545380 0.844179 0.173640 0.770684
O5    O     O_R   0.587510 0.175890 0.993210 -0.547605
O6    O     O_R   0.412490 0.675890 0.006790 -0.547569
O7    O     O_R   0.536540 0.008150 0.130100 -0.542580
O8    O     O_R   0.463460 0.508150 0.869900 -0.542576
C3    C     C_R   0.612378 0.344964 0.995621 0.728479
C4    C     C_R   0.387621 0.844960 0.004377 0.728397
O9    O     O_3   0.483140 0.340040 0.044760 -0.384294
O10   O     O_3   0.516860 0.840040 0.955240 -0.384352
V1    V     V_3+5 0.503130 0.064190 0.991700 1.510698
V2    V     V_3+5 0.496870 0.564190 0.008300 1.510858
C5    C     C_2   0.215973 0.739057 0.010296 -0.201496
C6    C     C_2   0.784019 0.239065 0.989678 -0.201503
C7    C     C_2   0.176775 0.886273 0.981977 0.238829
C8    C     C_2   0.823226 0.386261 0.018023 0.238894
H1    H     H_    0.199016 0.620856 0.040996 0.122692
H2    H     H_    0.800970 0.120884 0.958959 0.122640
C9    C     C_2   0.280959 0.720263 0.999296 -0.071132
C10   C     C_2   0.719032 0.220266 0.000677 -0.071212
C11   C     C_2   0.322643 0.861336 0.013293 -0.231091
C12   C     C_2   0.677356 0.361347 0.986706 -0.231040
H3    H     H_    0.295899 0.582773 0.985243 0.167214
H4    H     H_    0.704086 0.082769 0.014712 0.167114
H5    H     H_    0.309311 0.995811 0.033750 0.180578
H6    H     H_    0.690696 0.495833 0.966269 0.180582
C13   C     C_R   0.926526 0.890154 0.724388 -0.032549
C14   C     C_R   0.073460 0.390225 0.275622 -0.032663
C15   C     C_R   0.574476 0.853017 0.274723 -0.130549
C16   C     C_R   0.425513 0.353021 0.725278 -0.130466
C17   C     C_R   0.935306 0.947435 0.569735 -0.153185
C18   C     C_R   0.064742 0.448777 0.430210 -0.153199
C19   C     C_R   0.963709 0.930261 0.665608 -0.159832
C20   C     C_R   0.036323 0.431255 0.334351 -0.159775
C21   C     C_R   0.860665 0.867167 0.687354 -0.212306
C22   C     C_R   0.139296 0.366687 0.312697 -0.212402
C23   C     C_R   0.830208 0.891440 0.590621 0.081544
C24   C     C_R   0.169781 0.391431 0.409396 0.081537
C25   C     C_R   0.869068 0.930215 0.531947 0.119844
C26   C     C_R   0.130962 0.431071 0.468025 0.119841
C27   C     C_R   0.762623 0.882780 0.550509 0.062211
C28   C     C_R   0.237362 0.382493 0.449503 0.062218
C29   C     C_R   0.735881 0.893049 0.451458 0.087408
C30   C     C_R   0.264123 0.393226 0.548537 0.087374
C31   C     C_R   0.775977 0.945203 0.397506 -0.084702
C32   C     C_R   0.224073 0.446051 0.602443 -0.084742
C33   C     C_R   0.841345 0.960085 0.436657 -0.190106
C34   C     C_R   0.158715 0.461333 0.563280 -0.190084
C35   C     C_R   0.720729 0.875802 0.606025 -0.210132
C36   C     C_R   0.279241 0.374869 0.393979 -0.210044
C37   C     C_R   0.655199 0.881170 0.565907 -0.172358
C38   C     C_R   0.344777 0.380199 0.434074 -0.172294
C39   C     C_R   0.628268 0.878265 0.468653 0.009923
C40   C     C_R   0.371721 0.377803 0.531331 0.009907
C41   C     C_R   0.668879 0.869002 0.410192 -0.037205
C42   C     C_R   0.331113 0.369010 0.589809 -0.037392
C43   C     C_R   0.561243 0.880169 0.429825 0.389290
C44   C     C_R   0.438750 0.379742 0.570147 0.389577
C45   C     C_R   0.535595 0.881899 0.331904 -0.339596
C46   C     C_R   0.464400 0.381602 0.668079 -0.340158
C47   C     C_R   0.640502 0.833560 0.313347 0.292069
C48   C     C_R   0.359474 0.333848 0.686678 0.292133
H7    H     H_    0.870305 0.998985 0.392175 0.145368
H8    H     H_    0.129792 0.500849 0.607717 0.145335
H9    H     H_    0.485031 0.898729 0.299215 0.120765
H10   H     H_    0.514966 0.398304 0.700788 0.120820
H11   H     H_    0.625505 0.884509 0.612278 0.161305
H12   H     H_    0.374464 0.383116 0.387688 0.161350
H13   H     H_    0.964985 0.979199 0.525281 0.125160
H14   H     H_    0.035096 0.481250 0.474621 0.125172
H15   H     H_    0.014598 0.950782 0.694220 0.134483
H16   H     H_    0.985460 0.452253 0.305706 0.134569
H17   H     H_    0.834616 0.833795 0.736092 0.097293
H18   H     H_    0.165318 0.332614 0.264017 0.097398
H19   H     H_    0.757108 0.986485 0.325334 0.193004
H20   H     H_    0.242982 0.487586 0.674570 0.192953
H21   H     H_    0.737032 0.877305 0.681325 0.123042
H22   H     H_    0.262922 0.375972 0.318678 0.123004
O11   O     O_R   0.036450 0.233070 0.130130 -0.540882
O12   O     O_R   0.963550 0.733070 0.869870 -0.540872
O13   O     O_R   0.912470 0.560570 0.006790 -0.514695
O14   O     O_R   0.087530 0.060570 0.993210 -0.514687
C49   C     C_R   0.887631 0.391898 0.005112 0.658477
C50   C     C_R   0.112369 0.891902 0.994887 0.658454
O15   O     O_R   0.032920 0.562940 0.138050 -0.537938
O16   O     O_R   0.967080 0.062940 0.861950 -0.537913
O17   O     O_R   0.084790 0.730500 0.002090 -0.552674
O18   O     O_R   0.915210 0.230500 0.997910 -0.552675
C51   C     C_R   0.045019 0.394688 0.174307 0.686137
C52   C     C_R   0.954984 0.894681 0.825694 0.686153
O19   O     O_3   0.016820 0.396170 0.955260 -0.373016
O20   O     O_3   0.983180 0.896170 0.044740 -0.373040
V3    V     V_3+5 0.996880 0.672090 0.008300 1.489990
V4    V     V_3+5 0.003120 0.172090 0.991700 1.490043
O21   O     O_3   0.523682 0.898982 0.490080 -0.598954
C53   C     C_3   0.463946 0.809019 0.459074 0.082963
H23   H     H_    0.456305 0.739046 0.520792 0.179689
H24   H     H_    0.461345 0.699332 0.405698 0.150058
C54   C     C_3   0.410584 0.951237 0.425859 -0.332643
H25   H     H_    0.409533 0.037474 0.486531 0.218372
H26   H     H_    0.419629 0.042918 0.371624 0.198580
C55   C     C_3   0.345795 0.858569 0.387058 -0.811530
H27   H     H_    0.345717 0.766342 0.327609 0.223872
H28   H     H_    0.308554 0.965960 0.361836 0.240202
H29   H     H_    0.334078 0.776912 0.442689 0.249019
O22   O     O_3   0.476292 0.398294 0.509839 -0.598895
C56   C     C_3   0.536179 0.309236 0.541097 0.083519
H30   H     H_    0.544058 0.239415 0.479500 0.179801
H31   H     H_    0.538855 0.199515 0.594479 0.150072
C57   C     C_3   0.589301 0.452183 0.574385 -0.333343
H32   H     H_    0.590495 0.537945 0.513625 0.218146
H33   H     H_    0.579892 0.544248 0.628201 0.198849
C58   C     C_3   0.654162 0.360332 0.613945 -0.811963
H34   H     H_    0.654116 0.268695 0.673552 0.223683
H35   H     H_    0.691229 0.468212 0.639144 0.240310
H36   H     H_    0.666227 0.278186 0.558757 0.249108
Cl1   Cl    Cl    0.196147 0.071192 0.917495 -0.606839
Cl2   Cl    Cl    0.803867 0.571136 0.082541 -0.606973
Cl3   Cl    Cl    0.683061 0.729983 0.242062 -0.619345
Cl4   Cl    Cl    0.316851 0.230907 0.758050 -0.619314

loop_
_geom_bond_atom_site_label_1
_geom_bond_atom_site_label_2
_ccdc_geom_bond_type
C40   C44   A    
C56   H30   S    
O1    C3    A    
O2    C4    A    
C16   C48   A    
C2    O7    A    
C57   H32   S    
O19   V4    S    
C15   C47   A    
C29   C31   A    
C20   H16   S    
O5    C3    A    
C5    C9    S    
C6    C10   S    
O12   V3    S    
C21   H17   S    
C17   C19   A    
C10   C12   D    
C58   H35   S    
O14   C50   A    
C39   C41   A    
C55   H27   S    
C40   C42   A    
O11   C51   A    
C8    C49   S    
C35   H21   S    
C24   C28   A    
C27   C29   A    
C43   C45   A    
O22   C56   S    
C44   C46   A    
C17   H13   S    
C45   H9    S    
C38   C40   A    
C31   C33   A    
O11   V4    S    
C32   C34   A    
C30   C42   A    
C14   C20   A    
C56   C57   S    
C17   C25   A    
C8    Cl2   S    
C34   H8    S    
O6    C4    A    
C26   C34   A    
C30   C32   A    
C14   C51   S    
C19   H15   S    
C42   C48   A    
O6    V2    S    
C49   O18   A    
O20   V3    S    
C23   C25   A    
C43   O21   S    
C24   C26   A    
C53   H24   S    
O16   C52   A    
C28   C30   A    
C35   C37   A    
C11   H5    S    
C36   C38   A    
O13   C49   A    
O18   V4    S    
C56   H31   S    
C7    C50   S    
C58   H36   S    
O12   C52   A    
O5    V1    S    
C3    C12   S    
C38   H12   S    
C27   C35   A    
C53   C54   S    
C5    H1    S    
C31   H19   S    
O15   V3    S    
O4    V2    S    
C46   H10   S    
O21   C53   S    
C44   O22   S    
C50   O17   A    
C15   C45   A    
C1    C16   S    
C28   C36   A    
C16   C46   A    
C54   H26   S    
O1    V2    S    
C33   H7    S    
O17   V3    S    
O2    V1    S    
C18   H14   S    
O4    C2    A    
C12   H6    S    
C9    H3    S    
C37   C39   A    
C48   Cl4   S    
C22   H18   S    
C18   C26   A    
C36   H22   S    
C14   C22   A    
O3    V1    S    
C7    Cl1   S    
C6    H2    S    
C10   H4    S    
O3    C1    A    
C32   H20   S    
C57   H33   S    
C39   C43   A    
C13   C52   S    
C2    C15   S    
C4    C11   S    
C18   C20   A    
O7    V1    S    
C1    O8    A    
O8    V2    S    
C58   H34   S    
C41   C47   A    
C25   C33   A    
C55   H28   S    
C22   C24   A    
C53   H23   S    
C5    C7    D    
C13   C21   A    
C54   C55   S    
C6    C8    D    
C47   Cl3   S    
O15   C51   A    
O14   V4    S    
C57   C58   S    
O13   V3    S    
C29   C41   A    
C13   C19   A    
C9    C11   D    
C21   C23   A    
O9    V2    S    
C54   H25   S    
C23   C27   A    
O10   V1    S    
O16   V4    S    
C37   H11   S    
C55   H29   S    
