data_mof_unit_50333.cif
_audit_creation_date              2012-12-11T15:56:45-0500
_audit_creation_method            fapswitch 2.2
_symmetry_space_group_name_H-M    P1
_symmetry_Int_Tables_number       1
_space_group_crystal_system       monoclinic
_cell_length_a                    14.665853
_cell_length_b                    7.174224
_cell_length_c                    13.468521
_cell_angle_alpha                 90.0
_cell_angle_beta                  99.703117
_cell_angle_gamma                 90.0
_cell_volume                      1396.83276535

loop_
_atom_site_label
_atom_site_type_symbol
_atom_type_description
_atom_site_fract_x
_atom_site_fract_y
_atom_site_fract_z
_atom_type_partial_charge
O1    O     O_R   0.336930 0.638190 0.166330 -0.545880
O2    O     O_R   0.663070 0.361810 0.833670 -0.545881
O3    O     O_R   0.163070 0.138190 0.333670 -0.545880
O4    O     O_R   0.836930 0.861810 0.666330 -0.545880
O5    O     O_R   0.147900 0.305430 0.139630 -0.537736
O6    O     O_R   0.852100 0.694570 0.860370 -0.537736
O7    O     O_R   0.352100 0.805430 0.360370 -0.537737
O8    O     O_R   0.647900 0.194570 0.639630 -0.537736
C1    C     C_R   0.115110 0.477548 0.113154 0.726607
C2    C     C_R   0.884890 0.522452 0.886846 0.726607
C3    C     C_R   0.384890 0.977548 0.386846 0.726607
C4    C     C_R   0.615110 0.022452 0.613154 0.726607
O9    O     O_R   0.335280 0.308290 0.154310 -0.522415
O10   O     O_R   0.664720 0.691710 0.845690 -0.522415
O11   O     O_R   0.164720 0.808290 0.345690 -0.522416
O12   O     O_R   0.835280 0.191710 0.654310 -0.522416
O13   O     O_R   0.351790 0.140890 0.348460 -0.537889
O14   O     O_R   0.648210 0.859110 0.651540 -0.537890
O15   O     O_R   0.148210 0.640890 0.151540 -0.537890
O16   O     O_R   0.851790 0.359110 0.848460 -0.537890
C5    C     C_R   0.364789 0.477027 0.134162 0.798180
C6    C     C_R   0.635211 0.522973 0.865838 0.798180
C7    C     C_R   0.135211 0.977027 0.365839 0.798180
C8    C     C_R   0.864789 0.022973 0.634161 0.798180
O17   O     O_3   0.255200 0.472570 0.313680 -0.374981
O18   O     O_3   0.744800 0.527430 0.686320 -0.374981
O19   O     O_3   0.244800 0.972570 0.186320 -0.374981
O20   O     O_3   0.755200 0.027430 0.813680 -0.374981
V1    V     V_3+5 0.249040 0.196590 0.238190 1.453822
V2    V     V_3+5 0.750960 0.803410 0.761810 1.453822
V3    V     V_3+5 0.250960 0.696590 0.261810 1.453821
V4    V     V_3+5 0.749040 0.303410 0.738190 1.453821
C9    C     C_R   0.087223 0.920172 0.532052 0.575526
C10   C     C_R   0.912777 0.079827 0.467948 0.575525
C11   C     C_R   0.412777 0.420171 0.967948 0.575526
C12   C     C_R   0.587223 0.579829 0.032052 0.575526
C13   C     C_R   0.023951 0.933036 0.600062 -0.092581
C14   C     C_R   0.976049 0.066964 0.399938 -0.092580
C15   C     C_R   0.476049 0.433035 0.899938 -0.092581
C16   C     C_R   0.523951 0.566966 0.100061 -0.092580
C17   C     C_R   0.935431 0.012807 0.567126 -0.257785
C18   C     C_R   0.064569 0.987193 0.432874 -0.257786
C19   C     C_R   0.564569 0.512807 0.932874 -0.257786
C20   C     C_R   0.435431 0.487193 0.067126 -0.257786
C21   C     C_1   0.533935 0.008243 0.533142 -0.179004
C22   C     C_1   0.466065 0.991757 0.466857 -0.179003
C23   C     C_1   0.966065 0.508243 0.966857 -0.179005
C24   C     C_1   0.033935 0.491757 0.033142 -0.179005
F1    F     F_    0.172949 0.847723 0.563333 -0.703961
F2    F     F_    0.827051 0.152277 0.436667 -0.703962
F3    F     F_    0.327052 0.347721 0.936668 -0.703961
F4    F     F_    0.672948 0.652279 0.063332 -0.703961
C25   C     C_3   0.053349 0.867115 0.708024 -0.303496
C26   C     C_3   0.074766 0.032527 0.780610 -0.324185
C27   C     C_3   0.099473 0.966932 0.889683 -0.678466
H1    H     H_    0.040141 0.891643 0.912520 0.215000
H2    H     H_    0.160661 0.873326 0.898857 0.236272
H3    H     H_    0.116093 0.089338 0.939961 0.236841
H4    H     H_    0.133849 0.113126 0.760607 0.231865
H5    H     H_    0.014173 0.127155 0.774618 0.183792
H6    H     H_    0.998989 0.777326 0.731038 0.168344
H7    H     H_    0.116015 0.777841 0.714854 0.232133
C28   C     C_3   0.946650 0.132885 0.291976 -0.303496
C29   C     C_3   0.925234 0.967473 0.219390 -0.324184
C30   C     C_3   0.900528 0.033067 0.110316 -0.678468
H8    H     H_    0.839340 0.126675 0.101142 0.236272
H9    H     H_    0.959860 0.108355 0.087480 0.215000
H10   H     H_    0.883908 0.910662 0.060039 0.236841
H11   H     H_    0.985826 0.872844 0.225383 0.183792
H12   H     H_    0.866150 0.886875 0.239393 0.231865
H13   H     H_    0.001011 0.222674 0.268962 0.168345
H14   H     H_    0.883985 0.222159 0.285146 0.232133
C31   C     C_3   0.446651 0.367113 0.791976 -0.303496
C32   C     C_3   0.425234 0.532524 0.719390 -0.324184
C33   C     C_3   0.400528 0.466929 0.610317 -0.678472
H15   H     H_    0.383907 0.589334 0.560039 0.236842
H16   H     H_    0.459861 0.391644 0.587480 0.215000
H17   H     H_    0.339342 0.373319 0.601142 0.236273
H18   H     H_    0.366149 0.613121 0.739392 0.231866
H19   H     H_    0.485825 0.627154 0.725383 0.183792
H20   H     H_    0.501012 0.277324 0.768962 0.168345
H21   H     H_    0.383986 0.277838 0.785146 0.232133
C34   C     C_3   0.553349 0.632887 0.208023 -0.303495
C35   C     C_3   0.574767 0.467475 0.280609 -0.324187
C36   C     C_3   0.599472 0.533068 0.389682 -0.678467
H22   H     H_    0.660656 0.626685 0.398857 0.236272
H23   H     H_    0.540137 0.608345 0.412520 0.215000
H24   H     H_    0.616097 0.410661 0.439959 0.236844
H25   H     H_    0.514176 0.372843 0.274616 0.183792
H26   H     H_    0.633852 0.386880 0.260607 0.231866
H27   H     H_    0.498988 0.722675 0.231038 0.168345
H28   H     H_    0.616014 0.722163 0.214854 0.232132

loop_
_geom_bond_atom_site_label_1
_geom_bond_atom_site_label_2
_ccdc_geom_bond_type
O17   V3    S    
C27   H1    S    
O1    C5    A    
O19   V1    S    
O13   V1    S    
C31   C32   S    
O3    C7    A    
O15   V3    S    
C26   H5    S    
C36   H22   S    
O7    C3    A    
C34   H28   S    
C7    C18   S    
C9    C18   A    
O9    V1    S    
C14   C18   A    
O4    C8    A    
C9    F1    S    
O1    V3    S    
O2    V4    S    
O3    V1    S    
C25   H6    S    
C1    O15   A    
C23   C24   T    
C2    O16   A    
C30   H9    S    
O2    C6    A    
O14   V2    S    
C29   H12   S    
C12   F4    S    
C13   C25   S    
O11   C7    A    
O12   C8    A    
C32   H19   S    
C8    C17   S    
C16   C34   S    
C10   C17   A    
C35   H26   S    
O10   V2    S    
C31   H20   S    
O5    V1    S    
C26   H4    S    
C36   H23   S    
C10   F2    S    
O7    V3    S    
C32   C33   S    
O8    V4    S    
C12   C16   A    
C35   C36   S    
O18   V4    S    
C15   C19   A    
C21   C22   T    
C9    C13   A    
C11   C15   A    
C33   H15   S    
O5    C1    A    
C5    C20   S    
C25   H7    S    
C34   C35   S    
O8    C4    A    
C30   H10   S    
O9    C5    A    
C29   H11   S    
O11   V3    S    
C11   C20   A    
C33   H16   S    
O6    V2    S    
C28   H13   S    
C32   H18   S    
C27   H2    S    
C11   F3    S    
C35   H25   S    
C31   H21   S    
C14   C28   S    
O16   V4    S    
C36   H24   S    
C26   C27   S    
C3    O13   A    
C10   C14   A    
C4    C21   S    
C12   C19   A    
O6    C2    A    
C25   C26   S    
O12   V4    S    
C34   H27   S    
C29   C30   S    
O10   C6    A    
O20   V2    S    
C15   C31   S    
C13   C17   A    
C33   H17   S    
C28   C29   S    
C16   C20   A    
C28   H14   S    
C1    C24   S    
C30   H8    S    
C27   H3    S    
C4    O14   A    
C2    C23   S    
C3    C22   S    
C6    C19   S    
O4    V2    S    
