data_mof_unit_60009.cif
_audit_creation_date              2013-03-05T16:09:23-0500
_audit_creation_method            fapswitch 2.2
_symmetry_space_group_name_H-M    P1
_symmetry_Int_Tables_number       1
_space_group_crystal_system       triclinic
_cell_length_a                    10.754276
_cell_length_b                    12.753596
_cell_length_c                    13.899338
_cell_angle_alpha                 97.95348
_cell_angle_beta                  90.222164
_cell_angle_gamma                 93.081444
_cell_volume                      1885.18214822

loop_
_atom_site_label
_atom_site_type_symbol
_atom_site_description
_atom_site_fract_x
_atom_site_fract_y
_atom_site_fract_z
_atom_type_partial_charge
O1    O     O_R   0.492240 0.399110 0.356330 -0.561689
O2    O     O_R   0.505790 0.575900 0.366540 -0.562376
C1    C     C_R   0.498694 0.483566 0.315830 0.812901
O3    O     O_R   0.310920 0.411610 0.494880 -0.577396
O4    O     O_R   0.324460 0.588390 0.505090 -0.550789
C2    C     C_R   0.259367 0.500390 0.500716 0.752205
Cu1   Cu    Cu3+1 0.491980 0.395330 0.493960 0.987565
Cu2   Cu    Cu3+1 0.508020 0.604670 0.506040 1.023904
O5    O     O_R   0.494210 0.424100 0.633460 -0.578757
O6    O     O_R   0.507760 0.600890 0.643670 -0.553636
O7    O     O_R   0.675540 0.411610 0.494910 -0.586943
O8    O     O_R   0.689080 0.588390 0.505120 -0.588455
C3    C     C_R   0.501107 0.516447 0.684167 0.825472
C4    C     C_R   0.740454 0.499461 0.499571 0.754439
C5    C     C_3   0.063999 0.384867 0.485834 -0.375434
H1    H     H_    0.095305 0.340837 0.544582 0.185409
H2    H     H_    0.095609 0.342046 0.415639 0.196717
C6    C     C_3   0.921452 0.383921 0.485230 -0.372096
H3    H     H_    0.884800 0.340971 0.414761 0.181891
H4    H     H_    0.884927 0.340007 0.543982 0.180805
H5    H     H_    0.100102 0.506428 0.657810 0.116904
H6    H     H_    0.890996 0.515393 0.659184 0.142937
C7    C     C_3   0.073776 0.555934 0.601552 -0.155937
C8    C     C_3   0.074596 0.556265 0.416667 -0.342518
C9    C     C_3   0.121397 0.500944 0.501607 0.047150
H7    H     H_    0.116161 0.638375 0.420657 0.237069
H8    H     H_    0.104353 0.512810 0.346217 0.153252
C10   C     C_3   0.877902 0.499034 0.500306 0.121453
C11   C     C_3   0.929616 0.556270 0.599157 -0.417000
C12   C     C_3   0.931412 0.557817 0.417728 -0.356547
H9    H     H_    0.892659 0.519523 0.346271 0.150807
H10   H     H_    0.904130 0.641565 0.428130 0.205884
H11   H     H_    0.897406 0.638552 0.611615 0.196473
C13   C     C_1   0.501109 0.525902 0.787509 -0.143992
C14   C     C_2   0.500981 0.543610 0.978410 -0.146718
C15   C     C_2   0.497804 0.456541 0.021577 -0.163239
C16   C     C_1   0.498003 0.465646 0.125410 0.023687
C17   C     C_1   0.501060 0.534479 0.874579 0.024649
C18   C     C_1   0.498285 0.474164 0.212482 -0.156021
H12   H     H_    0.495194 0.378123 0.979242 0.162620
H13   H     H_    0.503625 0.622031 0.020739 0.171040
N1    N     N_1   0.479930 0.238040 0.484880 -0.152195
C19   C     C_2   0.450944 0.028576 0.474240 0.257760
C20   C     C_2   0.531274 0.971073 0.519773 -0.390700
C21   C     C_1   0.524172 0.854270 0.516902 0.339954
C22   C     C_1   0.469784 0.145565 0.481151 0.153752
N2    N     N_1   0.520070 0.761960 0.515120 -0.147169
H14   H     H_    0.608728 0.013579 0.561121 0.137419
C23   C     C_2   0.131152 0.666732 0.632914 0.871144
O9    O     O_2   0.200572 0.683315 0.703937 -0.593398
O10   O     O_R   0.104113 0.750003 0.581892 -0.744595
H15   H     H_    0.148738 0.819608 0.610028 0.352712
N3    N     N_R   0.344911 0.978678 0.418117 0.143300
O11   O     O_R   0.279750 0.034343 0.366771 -0.348506
O12   O     O_R   0.307930 0.880426 0.421586 -0.345169

loop_
_geom_bond_atom_site_label_1
_geom_bond_atom_site_label_2
_geom_bond_distance
_ccdc_geom_bond_type
C5    C6    1.532374 S    
C12   H10   1.113133 S    
C19   C20   1.370031 D    
Cu1   N1    1.989643 S    
C5    H2    1.113920 S    
H6    C11   1.113641 S    
O4    Cu2   1.973614 S    
C14   C15   1.332176 D    
C8    H8    1.113424 S    
C15   H12   1.086848 S    
Cu2   O8    1.969179 S    
C23   O10   1.398345 S    
C10   C12   1.551610 S    
O2    C1    1.284349 A    
Cu2   N2    1.989640 S    
C1    C18   1.424814 S    
C3    C13   1.424719 S    
C16   C18   1.200017 T    
C20   H14   1.086059 S    
O1    Cu1   1.920239 S    
N3    O11   1.301619 A    
C8    C9    1.552112 S    
Cu1   O7    1.973613 S    
O4    C2    1.284394 A    
C7    C9    1.567935 S    
O3    Cu1   1.969179 S    
C7    C11   1.550821 S    
O3    C2    1.279995 A    
C10   C11   1.550088 S    
C19   C22   1.484623 S    
C8    H7    1.110369 S    
C6    H3    1.113604 S    
C6    H4    1.113650 S    
N3    O12   1.301519 A    
H5    C7    1.115506 S    
C12   H9    1.113250 S    
C14   H13   1.086844 S    
O7    C4    1.281541 A    
C8    C12   1.541126 S    
C5    C9    1.559346 S    
C2    C9    1.484253 S    
C7    C23   1.516989 S    
C5    H1    1.113791 S    
C11   H11   1.113751 S    
Cu1   Cu2   2.648054 S    
C14   C17   1.431738 S    
C6    C10   1.551815 S    
C20   C21   1.482499 S    
Cu2   O6    1.920241 S    
C23   O9    1.223162 D    
N1    C22   1.172500 T    
C21   N2    1.172565 T    
Cu1   O5    1.922647 S    
O5    C3    1.284458 A    
C15   C16   1.431752 S    
C4    C10   1.478453 S    
C13   C17   1.199984 T    
C19   N3    1.446198 S    
O2    Cu2   1.922646 S    
O10   H15   1.013884 S    
O8    C4    1.281025 A    
O1    C1    1.281382 A    
O6    C3    1.281231 A    
