data_mof_unit_57718.cif
_audit_creation_date              2012-12-11T15:45:00-0500
_audit_creation_method            fapswitch 2.2
_symmetry_space_group_name_H-M    P1
_symmetry_Int_Tables_number       1
_space_group_crystal_system       triclinic
_cell_length_a                    6.928566
_cell_length_b                    16.836487
_cell_length_c                    17.066009
_cell_angle_alpha                 100.560471
_cell_angle_beta                  88.289762
_cell_angle_gamma                 91.589743
_cell_volume                      1955.70177653

loop_
_atom_site_label
_atom_site_type_symbol
_atom_type_description
_atom_site_fract_x
_atom_site_fract_y
_atom_site_fract_z
_atom_type_partial_charge
O1    O     O_R   0.494370 0.415690 0.413450 -0.544257
O2    O     O_R   0.819420 0.429360 0.578420 -0.537650
O3    O     O_R   0.994280 0.584310 0.586550 -0.540128
C1    C     C_R   0.646723 0.415122 0.606288 0.741024
O4    O     O_R   0.823790 0.406230 0.413570 -0.546515
O5    O     O_R   0.998670 0.561000 0.420530 -0.540422
C2    C     C_R   0.655074 0.383174 0.384832 0.675199
O6    O     O_R   0.489970 0.439000 0.579470 -0.511996
O7    O     O_3   0.662300 0.550810 0.502470 -0.375404
V1    V     V_3+5 0.935380 0.490570 0.499540 1.429288
O8    O     O_R   0.328650 0.570640 0.421580 -0.547638
C3    C     C_R   0.164155 0.586172 0.394664 0.691159
O9    O     O_R   0.324290 0.593770 0.586430 -0.540011
C4    C     C_R   0.155020 0.616635 0.615198 0.762309
V2    V     V_3+5 0.435930 0.509430 0.500460 1.435699
O10   O     O_3   0.159140 0.449190 0.497530 -0.364349
C5    C     C_R   0.279531 0.748722 0.691531 -0.234970
H1    H     H_    0.388776 0.750072 0.645019 0.138284
C6    C     C_R   0.270321 0.813522 0.756704 0.405077
C7    C     C_R   0.122759 0.814373 0.816070 -0.232387
C8    C     C_R   0.991004 0.747950 0.810133 0.376061
C9    C     C_R   0.999327 0.685071 0.743483 -0.230058
H2    H     H_    0.894693 0.635520 0.739294 0.144164
C10   C     C_R   0.144439 0.684430 0.684242 -0.178520
C11   C     C_R   0.173660 0.637495 0.332218 -0.062143
C12   C     C_R   0.096196 0.855389 0.162437 -0.132366
C13   C     C_R   0.902804 0.797274 0.261191 -0.192532
C14   C     C_R   0.927064 0.852612 0.209904 -0.161693
C15   C     C_R   0.245035 0.800157 0.167709 -0.079152
C16   C     C_R   0.221587 0.744761 0.221620 0.131715
C17   C     C_R   0.048233 0.743247 0.267936 0.140696
C18   C     C_R   0.024067 0.688948 0.321835 -0.227961
C19   C     C_R   0.344825 0.639406 0.286137 -0.181228
C20   C     C_R   0.368659 0.691763 0.231927 -0.160778
H3    H     H_    0.892290 0.688973 0.357737 0.120833
H4    H     H_    0.463307 0.600650 0.292673 0.131229
H5    H     H_    0.769701 0.797209 0.296208 0.117510
H6    H     H_    0.505686 0.691353 0.199829 0.158316
H7    H     H_    0.810651 0.893530 0.207012 0.119738
C21   C     C_R   0.620670 0.366367 0.670826 -0.182177
C22   C     C_R   0.640774 0.142714 0.837144 -0.127367
C23   C     C_R   0.830154 0.186074 0.729658 -0.168990
C24   C     C_R   0.796903 0.132733 0.782350 -0.226664
C25   C     C_R   0.516808 0.208549 0.839051 0.391255
C26   C     C_R   0.541897 0.260632 0.781563 -0.087055
C27   C     C_R   0.705817 0.250129 0.728823 0.109335
C28   C     C_R   0.743344 0.302579 0.674473 -0.248907
C29   C     C_R   0.460310 0.379366 0.724821 0.430567
C30   C     C_R   0.413183 0.324052 0.776270 -0.123660
H8    H     H_    0.865915 0.292278 0.633151 0.141884
H9    H     H_    0.954253 0.177011 0.689092 0.121170
H10   H     H_    0.895570 0.083627 0.780806 0.147336
C31   C     C_R   0.811492 0.275666 0.282390 -0.157502
H11   H     H_    0.951848 0.294099 0.306555 0.115947
C32   C     C_R   0.800206 0.211884 0.217199 -0.150909
H12   H     H_    0.932491 0.183014 0.193303 0.118463
C33   C     C_R   0.621012 0.185615 0.183608 -0.044671
C34   C     C_R   0.453482 0.225071 0.216863 -0.163622
H13   H     H_    0.313166 0.206691 0.192626 0.116985
C35   C     C_R   0.464758 0.288836 0.282079 -0.151289
H14   H     H_    0.332490 0.317737 0.305950 0.118372
C36   C     C_R   0.643894 0.314935 0.315843 -0.042580
O11   O     O_R   0.774880 0.061150 0.920630 -0.550552
O12   O     O_R   0.440980 0.093710 0.086500 -0.545274
O13   O     O_R   0.266190 0.938890 0.079390 -0.553157
C37   C     C_R   0.609749 0.117004 0.115013 0.664065
O14   O     O_R   0.445420 0.070740 0.921670 -0.505701
O15   O     O_R   0.270660 0.915760 0.913380 -0.525926
C38   C     C_R   0.618040 0.087504 0.895985 0.746416
O16   O     O_R   0.770400 0.084270 0.086640 -0.545127
O17   O     O_3   0.602590 0.949210 0.997500 -0.372298
V3    V     V_3+5 0.329470 0.009420 0.000470 1.471023
O18   O     O_R   0.940650 0.906250 0.913470 -0.532221
C39   C     C_R   0.110176 0.883274 0.884656 0.772739
O19   O     O_R   0.936210 0.929220 0.078300 -0.540848
C40   C     C_R   0.101587 0.911467 0.103526 0.683089
V4    V     V_3+5 0.828930 0.990510 0.999490 1.436546
O20   O     O_3   0.105680 0.050790 0.002500 -0.364683
C41   C     C_2   0.419747 0.798061 0.115085 0.328181
H15   H     H_    0.511708 0.851487 0.117085 0.078701
O21   O     O_2   0.460666 0.736454 0.068433 -0.537009
O22   O     O_3   0.338297 0.442746 0.722847 -0.535751
C42   C     C_3   0.418881 0.513609 0.768637 -0.111577
H16   H     H_    0.554431 0.532969 0.740245 0.087659
H17   H     H_    0.446084 0.505806 0.830750 0.148760
H18   H     H_    0.314401 0.562948 0.772283 0.147614
C43   C     C_2   0.220424 0.329254 0.817649 0.469272
H19   H     H_    0.139837 0.274583 0.823927 0.089665
O23   O     O_2   0.148545 0.394305 0.844468 -0.518398
O24   O     O_3   0.377940 0.223312 0.899574 -0.567461
C44   C     C_3   0.459405 0.275079 0.965410 -0.222793
H20   H     H_    0.506370 0.334166 0.949886 0.147657
H21   H     H_    0.582520 0.246561 0.989241 0.113843
H22   H     H_    0.347607 0.287239 0.013723 0.163357
O25   O     O_3   0.391665 0.880433 0.757790 -0.562040
C45   C     C_3   0.580080 0.860405 0.774984 -0.149515
H23   H     H_    0.582175 0.838000 0.832352 0.185926
H24   H     H_    0.673051 0.915816 0.781438 0.134307
H25   H     H_    0.643763 0.815380 0.725843 0.119129
O26   O     O_3   0.850003 0.744719 0.868511 -0.561139
C46   C     C_3   0.923851 0.703534 0.925573 -0.186083
H26   H     H_    0.053119 0.735646 0.954541 0.127450
H27   H     H_    0.958813 0.640054 0.898650 0.142475
H28   H     H_    0.811666 0.701483 0.972936 0.197616

loop_
_geom_bond_atom_site_label_1
_geom_bond_atom_site_label_2
_ccdc_geom_bond_type
C21   C28   A    
C32   H12   S    
C46   H26   S    
O18   C39   A    
C30   C43   S    
O25   C45   S    
C33   C37   S    
C1    O6    A    
O24   C44   S    
C25   O24   S    
V4    O20   S    
O13   C40   A    
O5    C3    A    
C16   C17   A    
C24   H10   S    
C34   C35   A    
V2    O10   S    
C45   H25   S    
C19   H4    S    
C35   C36   A    
O14   V3    S    
C23   C27   A    
C4    C10   S    
V3    O20   S    
O8    V2    S    
C1    C21   S    
C45   H24   S    
C12   C40   S    
O1    V2    S    
O7    V1    S    
C23   H9    S    
C11   C18   A    
C46   H27   S    
C20   H6    S    
C8    C9    A    
O16   V4    S    
C22   C24   A    
C19   C20   A    
C28   H8    S    
C31   C32   A    
C5    C10   A    
C16   C20   A    
C13   C17   A    
C18   H3    S    
O11   C38   A    
C44   H20   S    
O4    C2    A    
C8    O26   S    
C14   H7    S    
C34   H13   S    
C31   H11   S    
C35   H14   S    
O14   C38   A    
O12   C37   A    
C43   H19   S    
O2    C1    A    
O19   C40   A    
C2    C36   S    
C15   C16   A    
C44   H21   S    
C31   C36   A    
C42   H16   S    
C15   C41   S    
C26   C30   A    
O15   V3    S    
C45   H23   S    
C5    H1    S    
C7    C39   S    
O19   V4    S    
O3    C4    A    
C29   C30   A    
C42   H17   S    
C46   H28   S    
O9    V2    S    
C22   C25   A    
C9    C10   A    
C23   C24   A    
O2    V1    S    
O17   V4    S    
C6    O25   S    
C25   C26   A    
C22   C38   S    
O11   V4    S    
C21   C29   A    
C27   C28   A    
O1    C2    A    
C12   C14   A    
C17   C18   A    
O5    V1    S    
O8    C3    A    
O6    V2    S    
O13   V3    S    
C41   O21   D    
C3    C11   S    
C6    C7    A    
C32   C33   A    
O7    V2    S    
O17   V3    S    
O3    V1    S    
V1    O10   S    
C44   H22   S    
C33   C34   A    
C37   O16   A    
C13   H5    S    
O26   C46   S    
C5    C6    A    
C29   O22   S    
O12   V3    S    
C41   H15   S    
C26   C27   A    
O4    V1    S    
C42   H18   S    
C7    C8    A    
C12   C15   A    
O22   C42   S    
C13   C14   A    
C43   O23   D    
O18   V4    S    
C9    H2    S    
O9    C4    A    
O15   C39   A    
C11   C19   A    
