data_mof_unit_51530.cif
_audit_creation_date              2013-03-05T16:30:58-0500
_audit_creation_method            fapswitch 2.2
_symmetry_space_group_name_H-M    P1
_symmetry_Int_Tables_number       1
_space_group_crystal_system       triclinic
_cell_length_a                    13.034119
_cell_length_b                    10.864455
_cell_length_c                    9.590896
_cell_angle_alpha                 89.714657
_cell_angle_beta                  96.335556
_cell_angle_gamma                 90.500988
_cell_volume                      1349.79603541

loop_
_atom_site_label
_atom_site_type_symbol
_atom_site_description
_atom_site_fract_x
_atom_site_fract_y
_atom_site_fract_z
_atom_type_partial_charge
O1    O     O_R   0.500000 0.319640 0.618810 -0.591577
O2    O     O_R   0.500010 0.319680 0.381230 -0.553782
C1    C     C_R   0.503204 0.262862 0.500290 0.870447
O3    O     O_R   0.348990 0.499960 0.599490 -0.568550
O4    O     O_R   0.349000 0.500000 0.361910 -0.528624
C2    C     C_R   0.300465 0.495688 0.473030 0.880467
Cu1   Cu    Cu3+1 0.499990 0.499980 0.640670 1.012170
Cu2   Cu    Cu3+1 0.500010 0.500020 0.359330 1.067544
O5    O     O_R   0.499990 0.680320 0.618770 -0.576744
O6    O     O_R   0.500000 0.680360 0.381190 -0.573215
O7    O     O_R   0.651000 0.500000 0.638090 -0.604238
O8    O     O_R   0.651010 0.500040 0.400510 -0.584738
C3    C     C_R   0.500263 0.736994 0.499819 0.859308
C4    C     C_R   0.699346 0.498203 0.526387 0.825465
C5    C     C_R   0.812122 0.492805 0.541344 -0.055632
C6    C     C_R   0.187205 0.483631 0.455587 -0.159377
C7    C     C_R   0.023090 0.438988 0.314924 -0.099279
C8    C     C_R   0.131444 0.448803 0.327004 0.320250
C9    C     C_R   0.134835 0.501974 0.572433 -0.178284
C10   C     C_R   0.027671 0.490322 0.563743 0.089955
C11   C     C_R   0.970599 0.465569 0.432628 0.030378
C12   C     C_R   0.862686 0.464397 0.424453 -0.122912
C13   C     C_R   0.869328 0.509913 0.671841 -0.221510
C14   C     C_R   0.976523 0.503022 0.684699 0.006999
H1    H     H_    0.816873 0.440982 0.327657 0.180425
H2    H     H_    0.830860 0.522658 0.764681 0.161311
H3    H     H_    0.178124 0.528379 0.670804 0.205789
C15   C     C_R   0.484217 0.061515 0.613733 -0.035138
C16   C     C_R   0.508891 0.129966 0.499018 -0.174319
C17   C     C_R   0.535106 0.063569 0.380037 0.342109
C18   C     C_R   0.528690 0.934307 0.380132 -0.161457
H4    H     H_    0.545566 0.884871 0.288259 0.237293
C19   C     C_R   0.503948 0.869380 0.499192 -0.125627
C20   C     C_R   0.484938 0.937304 0.615076 -0.030565
C21   C     C_3   0.450948 0.926836 0.758263 0.121209
C22   C     C_3   0.448815 0.069614 0.757030 0.103035
H5    H     H_    0.511009 0.887212 0.836780 0.131672
H6    H     H_    0.506902 0.113847 0.835015 0.127943
C23   C     C_R   0.550018 0.591444 0.080506 0.195647
N1    N     N_R   0.500660 0.500930 0.148010 -0.230446
C24   C     C_R   0.444051 0.416172 0.066195 0.078433
H7    H     H_    0.401119 0.345842 0.115219 0.207824
C25   C     C_R   0.443080 0.417105 0.917677 -0.014541
H8    H     H_    0.397947 0.348997 0.855925 0.189777
N2    N     N_R   0.500660 0.500890 0.852110 -0.204127
C26   C     C_R   0.551118 0.589928 0.933138 0.228907
C27   C     C_3   0.663954 0.614748 0.942738 -0.505756
C28   C     C_3   0.663419 0.618299 0.100819 0.120176
H9    H     H_    0.706224 0.534261 0.908685 0.183035
H10   H     H_    0.682208 0.703406 0.892340 0.237265
H11   H     H_    0.708487 0.543644 0.156968 0.160224
N3    N     N_R   0.345154 0.120783 0.757291 0.175438
O9    O     O_R   0.301774 0.120038 0.873100 -0.257588
O10   O     O_R   0.298152 0.173649 0.646234 -0.304740
N4    N     N_R   0.687194 0.740294 0.160317 0.158998
O11   O     O_R   0.652237 0.839395 0.095223 -0.338777
O12   O     O_R   0.748181 0.750504 0.276571 -0.315162
C29   C     C_2   0.967054 0.396061 0.180627 0.914448
O13   O     O_2   0.988254 0.296608 0.132523 -0.504169
O14   O     O_R   0.890820 0.469167 0.108905 -0.747452
H12   H     H_    0.857534 0.428369 0.020212 0.323611
C30   C     C_2   0.032490 0.487113 0.825095 0.859258
O15   O     O_2   0.022216 0.560497 0.918537 -0.498750
O16   O     O_R   0.096043 0.384532 0.849029 -0.692489
H13   H     H_    0.126029 0.375428 0.949686 0.407018
N5    N     N_R   0.184369 0.423510 0.207846 0.100708
O17   O     O_R   0.210744 0.513905 0.129300 -0.323322
O18   O     O_R   0.219220 0.313426 0.190594 -0.327810
N6    N     N_R   0.571641 0.123846 0.261232 0.147472
O19   O     O_R   0.652247 0.195954 0.279041 -0.345032
O20   O     O_R   0.537124 0.089399 0.134850 -0.333627
N7    N     N_R   0.349802 0.866547 0.757401 0.190293
O21   O     O_R   0.334111 0.789308 0.857047 -0.296284
O22   O     O_R   0.277883 0.881839 0.653371 -0.266658

loop_
_geom_bond_atom_site_label_1
_geom_bond_atom_site_label_2
_geom_bond_distance
_ccdc_geom_bond_type
C28   N4    1.462766 S    
N5    O18   1.300843 A    
N4    O11   1.302191 A    
C24   H7    1.079379 S    
C21   C22   1.551658 S    
Cu1   Cu2   2.698329 S    
C27   H9    1.107194 S    
N2    C26   1.362280 A    
Cu1   O7    1.971166 S    
C16   C17   1.427534 A    
Cu1   N2    2.027028 S    
C15   C16   1.390224 A    
C21   H5    1.112564 S    
O4    C2    1.298450 A    
O7    C4    1.301782 A    
C29   O14   1.396007 S    
N6    O20   1.301123 A    
C20   C21   1.492303 S    
C13   H2    1.079065 S    
C1    C16   1.446577 S    
O5    C3    1.294040 A    
C30   O16   1.397349 S    
C5    C12   1.398765 A    
C27   C28   1.517601 S    
C12   H1    1.077252 S    
C13   C14   1.391653 A    
C18   C19   1.405267 A    
C9    H3    1.083128 S    
C22   N3    1.465785 S    
C7    C29   1.484040 S    
C5    C13   1.396744 A    
N5    O17   1.301570 A    
C15   C20   1.349594 A    
C11   C12   1.400017 A    
C24   C25   1.423071 A    
O3    Cu1   1.964191 S    
N3    O10   1.302216 A    
C19   C20   1.383259 A    
C27   H10   1.111201 S    
C28   H11   1.107748 S    
C10   C14   1.408237 A    
N7    O22   1.302485 A    
C23   N1    1.369164 A    
C29   O13   1.222707 D    
C7    C11   1.415295 A    
O14   H12   1.013531 S    
O1    C1    1.300876 A    
C25   H8    1.078993 S    
C3    C19   1.438682 S    
C30   O15   1.221565 D    
C18   H4    1.078339 S    
Cu2   O8    1.964191 S    
C7    C8    1.407398 A    
C25   N2    1.368874 A    
C23   C26   1.415231 A    
Cu2   O6    1.971521 S    
N1    C24   1.369538 A    
O8    C4    1.298830 A    
C21   N7    1.466187 S    
N4    O12   1.300555 A    
O3    C2    1.305366 A    
C17   N6    1.435572 S    
N3    O9    1.300715 A    
Cu1   O5    1.969482 S    
C26   C27   1.485801 S    
C14   C30   1.469091 S    
O1    Cu1   1.971523 S    
O2    Cu2   1.969482 S    
N7    O21   1.300592 A    
O6    C3    1.295828 A    
O4    Cu2   1.971163 S    
C8    N5    1.427546 S    
O16   H13   1.005472 S    
C9    C10   1.394754 A    
C22   H6    1.111669 S    
O2    C1    1.292146 A    
C17   C18   1.406128 A    
C6    C9    1.391027 A    
N6    O19   1.301560 A    
C2    C6    1.471992 S    
C10   C11   1.414365 A    
C15   C22   1.500462 S    
C6    C8    1.412184 A    
C4    C5    1.462734 S    
Cu2   N1    2.027674 S    
C23   C28   1.495749 S    
