data_mof_unit_59765.cif
_audit_creation_date              2012-12-10T17:24:14-0500
_audit_creation_method            fapswitch 2.2
_symmetry_space_group_name_H-M    P1
_symmetry_Int_Tables_number       1
_space_group_crystal_system       triclinic
_cell_length_a                    10.105314
_cell_length_b                    10.713211
_cell_length_c                    16.85895
_cell_angle_alpha                 90.970937
_cell_angle_beta                  77.320537
_cell_angle_gamma                 95.675333
_cell_volume                      1771.89683601

loop_
_atom_site_label
_atom_site_type_symbol
_atom_type_description
_atom_site_fract_x
_atom_site_fract_y
_atom_site_fract_z
_atom_type_partial_charge
C1    C     C_R   0.557681 0.733549 0.491907 0.881150
C2    C     C_R   0.514454 0.488478 0.345744 0.900601
C3    C     C_R   0.474235 0.496209 0.741430 -0.123784
C4    C     C_R   0.507611 0.444514 0.263666 -0.098620
C5    C     C_R   0.548889 0.407076 0.766386 -0.289960
C6    C     C_R   0.379242 0.434164 0.243699 -0.308996
C7    C     C_R   0.543707 0.387605 0.847867 0.086907
C8    C     C_R   0.361201 0.383150 0.170522 0.091275
C9    C     C_R   0.455610 0.453375 0.906387 0.093522
C10   C     C_R   0.473774 0.346005 0.114178 0.090297
C11   C     C_R   0.378609 0.543234 0.882458 0.190372
C12   C     C_R   0.442891 0.266275 0.502703 0.883501
C13   C     C_R   0.603118 0.350978 0.133283 0.163139
C14   C     C_R   0.392578 0.569870 0.799360 0.042312
C15   C     C_R   0.619517 0.397601 0.209755 0.029706
C16   C     C_2   0.454572 0.442888 0.992729 -0.180891
C17   C     C_2   0.462950 0.335652 0.029783 -0.120324
C18   C     C_3   0.155065 0.538907 0.970482 -0.788404
C19   C     C_3   0.794395 0.407736 0.020963 -0.782957
C20   C     C_2   0.592793 0.867201 0.476477 -0.084543
C21   C     C_2   0.410816 0.131911 0.494041 -0.079969
C22   C     C_2   0.497987 0.931664 0.456037 -0.171283
C23   C     C_2   0.512629 0.066810 0.455512 -0.136177
C24   C     C_2   0.926611 0.510721 0.506605 -0.131466
C25   C     C_2   0.073519 0.489521 0.493197 -0.136482
C26   C     C_R   0.483754 0.505311 0.654483 0.879615
H1    H     H_    0.613532 0.352190 0.722105 0.175018
H2    H     H_    0.888323 0.383207 0.425894 0.161674
H3    H     H_    0.773575 0.305640 0.232740 0.168055
H4    H     H_    0.823168 0.450896 0.190946 0.186154
H5    H     H_    0.353053 0.690667 0.714242 0.196860
H6    H     H_    0.366501 0.754410 0.801232 0.156137
H7    H     H_    0.282189 0.700112 0.931334 0.231206
H8    H     H_    0.099817 0.530240 0.920150 0.250264
H9    H     H_    0.094845 0.590213 0.021504 0.229187
H10   H     H_    0.164959 0.443873 0.992573 0.260200
H11   H     H_    0.776311 0.256491 0.098925 0.218568
H12   H     H_    0.290726 0.465134 0.285098 0.176909
H13   H     H_    0.847790 0.478099 0.054972 0.223255
H14   H     H_    0.728330 0.456289 0.989663 0.264849
H15   H     H_    0.871622 0.364943 0.974037 0.240059
H16   H     H_    0.160939 0.320964 0.195750 0.177867
H17   H     H_    0.197912 0.465833 0.153708 0.189187
H18   H     H_    0.611663 0.216172 0.846487 0.179984
H19   H     H_    0.733069 0.337681 0.843232 0.191306
H20   H     H_    0.210405 0.137589 0.551890 0.196359
H21   H     H_    0.284191 0.014906 0.576024 0.190415
H22   H     H_    0.773688 0.866697 0.512569 0.190146
H23   H     H_    0.467782 0.245872 0.999160 0.170173
H24   H     H_    0.780585 0.950566 0.428340 0.185726
H25   H     H_    0.447542 0.529042 0.028028 0.170419
H26   H     H_    0.613551 0.112985 0.430281 0.172928
H27   H     H_    0.400660 0.885264 0.448809 0.187038
H28   H     H_    0.114547 0.420351 0.449206 0.160217
H29   H     H_    0.885668 0.580064 0.550479 0.161814
H30   H     H_    0.111610 0.616675 0.574169 0.164639
N1    N     N_2   0.846390 0.448330 0.467170 -0.190030
N2    N     N_3   0.721548 0.928548 0.486393 -0.455975
N3    N     N_2   0.153610 0.551670 0.532830 -0.190910
N4    N     N_3   0.748149 0.397834 0.232758 -0.435817
N5    N     N_3   0.326535 0.672857 0.776477 -0.449767
N6    N     N_2   0.287781 0.606951 0.942957 -0.316043
N7    N     N_2   0.715578 0.310599 0.075030 -0.302416
N8    N     N_3   0.229384 0.375466 0.151063 -0.462135
N9    N     N_3   0.632630 0.304859 0.870305 -0.460301
N10   N     N_3   0.276782 0.071070 0.527348 -0.463359
O1    O     O_R   0.430310 0.692580 0.506610 -0.618834
O2    O     O_R   0.569690 0.307420 0.493390 -0.614986
O3    O     O_R   0.652740 0.659410 0.485540 -0.611436
O4    O     O_R   0.347260 0.340590 0.514460 -0.608487
O5    O     O_R   0.375640 0.518570 0.627580 -0.601908
O6    O     O_R   0.624360 0.481430 0.372420 -0.581488
O7    O     O_R   0.598070 0.485390 0.606510 -0.611964
O8    O     O_R   0.401930 0.514610 0.393490 -0.626034
Zn1   Zn    Zn3+2 0.351480 0.522150 0.514070 0.934867
Zn2   Zn    Zn3+2 0.648520 0.477850 0.485930 0.941868

loop_
_geom_bond_atom_site_label_1
_geom_bond_atom_site_label_2
_ccdc_geom_bond_type
H17   N8    S    
C2    C4    S    
C6    H12   S    
O7    Zn2   S    
H22   N2    S    
N3    Zn1   S    
C21   N10   S    
O2    Zn2   S    
C18   H8    S    
C15   N4    S    
H5    N5    S    
H21   N10   S    
C13   N7    S    
C16   H25   S    
O6    Zn2   S    
C11   N6    S    
C12   O2    A    
C4    C15   A    
C21   C23   D    
H18   N9    S    
H2    N1    S    
C25   H28   S    
C24   H29   S    
O5    Zn1   S    
C26   O5    A    
C9    C11   A    
C23   H26   S    
C16   C17   D    
C3    C14   A    
C19   H13   S    
C8    N8    S    
C2    O6    A    
N1    Zn2   S    
C4    C6    A    
H3    N4    S    
H11   N7    S    
C9    C16   S    
C20   C22   D    
H6    N5    S    
H20   N10   S    
C22   H27   S    
C7    C9    A    
C13   C15   A    
H19   N9    S    
C11   C14   A    
C1    O3    A    
C7    N9    S    
O8    Zn1   S    
C10   C17   S    
C20   N2    S    
H24   N2    S    
H16   N8    S    
H4    N4    S    
C26   O7    A    
O1    Zn1   S    
C24   C25   S    
C18   H9    S    
O3    Zn2   S    
C8    C10   A    
C19   H14   S    
C17   H23   S    
O4    Zn1   S    
C5    C7    A    
H30   N3    S    
C12   O4    A    
C22   C23   S    
C24   N1    D    
C1    C20   S    
C6    C8    A    
C25   N3    D    
C1    O1    A    
C5    H1    S    
C14   N5    S    
C18   H10   S    
C12   C21   S    
C3    C26   S    
C18   N6    S    
C19   H15   S    
C19   N7    S    
H7    N6    S    
C3    C5    A    
C10   C13   A    
C2    O8    A    
