data_mof_unit_8715.cif
_audit_creation_date              2012-12-10T17:53:22-0500
_audit_creation_method            fapswitch 2.2
_symmetry_space_group_name_H-M    P1
_symmetry_Int_Tables_number       1
_space_group_crystal_system       triclinic
_cell_length_a                    23.426725
_cell_length_b                    10.718812
_cell_length_c                    9.875741
_cell_angle_alpha                 89.306818
_cell_angle_beta                  89.919099
_cell_angle_gamma                 91.827199
_cell_volume                      2478.41802501

loop_
_atom_site_label
_atom_site_type_symbol
_atom_type_description
_atom_site_fract_x
_atom_site_fract_y
_atom_site_fract_z
_atom_type_partial_charge
C1    C     C_R   0.503530 0.259837 0.501914 0.872248
C2    C     C_R   0.122220 0.609916 0.514456 0.515271
C3    C     C_R   0.237807 0.485720 0.378220 -0.102662
C4    C     C_R   0.389331 0.499090 0.500149 0.850576
C5    C     C_R   0.297046 0.486586 0.377940 -0.218184
C6    C     C_R   0.327084 0.497072 0.500426 -0.037060
C7    C     C_R   0.297148 0.505568 0.623120 -0.223362
C8    C     C_R   0.237887 0.505060 0.622923 -0.096087
C9    C     C_R   0.208378 0.495505 0.500519 0.320380
C10   C     C_R   0.762679 0.508322 0.619901 -0.090518
C11   C     C_R   0.703373 0.505799 0.621442 -0.215233
C12   C     C_R   0.965700 0.282219 0.458575 -0.128430
C13   C     C_R   0.672977 0.502618 0.498997 -0.045684
C14   C     C_R   0.702610 0.502144 0.375282 -0.211056
C15   C     C_R   0.761843 0.504557 0.374177 -0.111880
C16   C     C_R   0.494073 0.738837 0.499779 0.893614
C17   C     C_R   0.791735 0.507614 0.496316 0.329534
C18   C     C_R   0.510342 0.107588 0.762019 -0.158300
C19   C     C_R   0.491492 0.044472 0.878907 -0.148726
C20   C     C_R   0.461373 0.931342 0.868351 -0.165314
C21   C     C_R   0.455343 0.875692 0.742238 -0.142201
C22   C     C_R   0.479338 0.933825 0.624649 0.100632
C23   C     C_R   0.024893 0.279586 0.460991 -0.127462
C24   C     C_R   0.498830 0.058042 0.631702 0.098032
C25   C     C_R   0.505650 0.125818 0.507500 -0.118857
C26   C     C_R   0.505190 0.064241 0.383528 -0.213015
C27   C     C_R   0.497855 0.937286 0.380719 -0.208698
C28   C     C_R   0.610685 0.500660 0.499821 0.886337
C29   C     C_R   0.486721 0.871242 0.500878 -0.129603
C30   C     C_R   0.424638 0.336593 0.142539 -0.167828
C31   C     C_R   0.387416 0.256596 0.073105 -0.210300
C32   C     C_R   0.387337 0.257008 0.932995 -0.173317
C33   C     C_R   0.424613 0.337133 0.861609 -0.156212
C34   C     C_R   0.057426 0.390095 0.478839 -0.027812
C35   C     C_R   0.462863 0.419571 0.928665 0.106898
C36   C     C_R   0.462883 0.419484 0.073451 0.163153
C37   C     C_R   0.535338 0.577369 0.070793 -0.186925
C38   C     C_R   0.535450 0.577651 0.926969 0.150992
C39   C     C_R   0.882153 0.618404 0.513065 0.490763
C40   C     C_R   0.878671 0.398374 0.474441 0.513072
C41   C     C_R   0.938001 0.395363 0.474218 -0.022986
C42   C     C_R   0.970076 0.507941 0.490888 -0.013234
C43   C     C_R   0.942372 0.622900 0.505686 -0.104549
C44   C     C_2   0.951798 0.861982 0.512027 0.470878
C45   C     C_R   0.030053 0.504643 0.493484 -0.016959
C46   C     C_R   0.062688 0.615440 0.511287 -0.061317
C47   C     C_R   0.035621 0.729325 0.522366 -0.129229
C48   C     C_R   0.976057 0.735574 0.516338 -0.017141
C49   C     C_R   0.117001 0.389238 0.482333 0.510187
H1    H     H_    0.941730 0.195139 0.445262 0.210704
H2    H     H_    0.502021 0.890932 0.284439 0.168416
H3    H     H_    0.564060 0.640287 0.124655 0.150054
H4    H     H_    0.045004 0.190732 0.449261 0.211435
H5    H     H_    0.421993 0.330564 0.249907 0.208573
H6    H     H_    0.358508 0.193803 0.128542 0.164457
H7    H     H_    0.358529 0.194229 0.879093 0.165009
H8    H     H_    0.422535 0.330753 0.754339 0.210717
H9    H     H_    0.061149 0.814985 0.531259 0.223442
H10   H     H_    0.214676 0.478483 0.283624 0.139764
H11   H     H_    0.319192 0.479283 0.282144 0.166292
H12   H     H_    0.681459 0.506301 0.718049 0.160725
H13   H     H_    0.319403 0.513412 0.718859 0.165297
H14   H     H_    0.214817 0.512559 0.717431 0.140996
H15   H     H_    0.786129 0.510352 0.714308 0.140817
H16   H     H_    0.564719 0.752106 0.882445 0.179686
H17   H     H_    0.615093 0.642795 0.883888 0.160390
H18   H     H_    0.914181 0.880398 0.452274 0.123619
H19   H     H_    0.680153 0.499837 0.279512 0.161945
H20   H     H_    0.784633 0.503886 0.278719 0.136871
H21   H     H_    0.511273 0.113832 0.288032 0.171371
H22   H     H_    0.535501 0.192384 0.776777 0.171515
H23   H     H_    0.499289 0.084730 0.977469 0.146052
H24   H     H_    0.444449 0.884599 0.958246 0.142393
H25   H     H_    0.431758 0.787407 0.737739 0.160011
N1    N     N_R   0.852426 0.508233 0.494526 -0.351795
N2    N     N_R   0.147766 0.498102 0.499918 -0.359370
N3    N     N_R   0.499460 0.498800 0.142780 -0.124746
N4    N     N_R   0.499440 0.498720 0.857170 -0.123947
N5    N     N_3   0.573372 0.661021 0.853877 -0.383968
O1    O     O_R   0.500000 0.316780 0.614690 -0.654860
O2    O     O_R   0.583850 0.500050 0.614640 -0.600279
O3    O     O_R   0.583840 0.500030 0.385310 -0.618844
O4    O     O_2   0.853059 0.721289 0.541823 -0.572309
O5    O     O_2   0.974953 0.948702 0.572076 -0.577764
O6    O     O_2   0.847133 0.292188 0.456665 -0.548520
O7    O     O_2   0.144128 0.280839 0.468740 -0.544707
O8    O     O_2   0.154501 0.715250 0.530774 -0.545541
O9    O     O_R   0.500000 0.316750 0.385360 -0.637656
O10   O     O_R   0.416160 0.499970 0.614690 -0.648893
O11   O     O_R   0.416150 0.499950 0.385360 -0.638138
O12   O     O_R   0.500000 0.683250 0.614640 -0.603676
O13   O     O_R   0.500000 0.683220 0.385310 -0.618371
Zn1   Zn    Zn3+2 0.500000 0.500020 0.653130 0.942556
Zn2   Zn    Zn3+2 0.500000 0.499980 0.346870 0.937846

loop_
_geom_bond_atom_site_label_1
_geom_bond_atom_site_label_2
_ccdc_geom_bond_type
O3    Zn2   S    
C22   C29   A    
C27   C29   A    
C41   C42   A    
C19   C20   A    
C7    C8    A    
C45   C46   A    
C2    C46   A    
H17   N5    S    
C30   H5    S    
C12   C23   A    
C26   C27   A    
C37   C38   A    
H16   N5    S    
C36   N3    A    
C30   C31   A    
C38   N5    S    
N4    Zn1   S    
N3    Zn2   S    
C18   C19   A    
C31   C32   A    
C8    C9    A    
C13   C28   S    
C23   H4    S    
C18   C24   A    
C9    N2    S    
C39   N1    A    
C43   C48   A    
C1    O9    A    
C13   C14   A    
C1    C25   S    
C19   H23   S    
C27   H2    S    
O11   Zn2   S    
C4    O11   A    
C15   H20   S    
O9    Zn2   S    
C28   O3    A    
C24   C25   A    
C4    C6    S    
C37   H3    S    
C39   C43   A    
C38   N4    A    
C11   H12   S    
C16   C29   S    
C37   N3    A    
C21   H25   S    
C35   C36   A    
C40   O6    S    
C7    H13   S    
C12   C41   A    
C3    C9    A    
O12   Zn1   S    
O2    Zn1   S    
C47   C48   A    
C23   C34   A    
O13   Zn2   S    
C49   N2    A    
C2    O8    S    
C34   C45   A    
C40   C41   A    
C16   O13   A    
C26   H21   S    
C22   C24   A    
C42   C43   A    
C3    C5    A    
C2    N2    A    
C4    O10   A    
C18   H22   S    
C15   C17   A    
C46   C47   A    
C34   C49   A    
C33   H8    S    
C5    H11   S    
C28   O2    A    
C49   O7    S    
C10   H15   S    
C44   O5    D    
C12   H1    S    
C6    C7    A    
C35   N4    A    
C40   N1    A    
C30   C36   A    
C32   C33   A    
C25   C26   A    
C39   O4    S    
C47   H9    S    
C11   C13   A    
C5    C6    A    
C33   C35   A    
C32   H7    S    
C20   H24   S    
O10   Zn1   S    
C10   C11   A    
C8    H14   S    
C20   C21   A    
C16   O12   A    
C17   N1    S    
C1    O1    A    
C14   H19   S    
C14   C15   A    
C44   H18   S    
C10   C17   A    
C31   H6    S    
O1    Zn1   S    
C21   C22   A    
C42   C45   A    
C44   C48   S    
C3    H10   S    
