data_mof_unit_42961.cif
_audit_creation_date              2012-12-11T14:21:10-0500
_audit_creation_method            fapswitch 2.2
_symmetry_space_group_name_H-M    P1
_symmetry_Int_Tables_number       1
_space_group_crystal_system       triclinic
_cell_length_a                    11.63653
_cell_length_b                    11.545047
_cell_length_c                    19.48657
_cell_angle_alpha                 90.841021
_cell_angle_beta                  90.16019
_cell_angle_gamma                 59.956829
_cell_volume                      2265.91359469

loop_
_atom_site_label
_atom_site_type_symbol
_atom_type_description
_atom_site_fract_x
_atom_site_fract_y
_atom_site_fract_z
_atom_type_partial_charge
C1    C     C_R   0.640285 0.117884 0.599012 0.545004
C2    C     C_1   0.652362 0.150689 0.668463 -0.000185
C3    C     C_R   0.664227 0.657631 0.197319 0.002422
C4    C     C_R   0.612130 0.746389 0.598476 0.539229
C5    C     C_R   0.547523 0.683665 0.232541 -0.011566
C6    C     C_R   0.556752 0.649667 0.301826 0.058583
C7    C     C_R   0.769471 0.639508 0.305797 -0.193463
C8    C     C_R   0.777450 0.627533 0.235080 -0.158919
C9    C     C_R   0.424393 0.736445 0.200076 -0.106809
C10   C     C_R   0.320504 0.733226 0.232062 -0.192828
C11   C     C_R   0.335768 0.677118 0.296345 -0.139172
C12   C     C_1   0.640953 0.704123 0.667833 0.003365
C13   C     C_R   0.456480 0.629756 0.332137 0.308984
C14   C     C_R   0.657340 0.656048 0.339996 0.015602
C15   C     C_R   0.146800 0.200957 0.194227 -0.008326
C16   C     C_R   0.297595 0.120615 0.605352 0.561285
C17   C     C_R   0.146050 0.301362 0.237071 0.022961
C18   C     C_R   0.125969 0.299088 0.308290 0.057263
C19   C     C_R   0.187896 0.064920 0.294801 -0.154318
C20   C     C_R   0.173399 0.080771 0.223969 -0.163941
C21   C     C_R   0.174105 0.398192 0.212023 -0.096990
C22   C     C_R   0.166426 0.498286 0.255310 -0.164206
C23   C     C_1   0.146584 0.187832 0.863344 0.000503
C24   C     C_R   0.117125 0.512332 0.321911 -0.140638
C25   C     C_R   0.087765 0.417896 0.348327 0.056876
C26   C     C_R   0.167709 0.172604 0.337457 -0.005912
C27   C     C_R   0.731390 0.218179 0.208179 -0.008724
C28   C     C_R   0.642212 0.109329 0.400543 0.547465
C29   C     C_R   0.817311 0.090886 0.237833 0.040333
C30   C     C_R   0.767217 0.050067 0.291291 0.030367
C31   C     C_R   0.592683 0.278995 0.309771 -0.136034
C32   C     C_R   0.620405 0.312581 0.245771 -0.153166
C33   C     C_R   0.939522 0.993393 0.208289 -0.079122
C34   C     C_1   0.227291 0.145327 0.735687 -0.033149
C35   C     C_R   0.977639 0.859299 0.211389 -0.128787
C36   C     C_R   0.912828 0.819653 0.255543 -0.138949
C37   C     C_R   0.810200 0.912610 0.296379 -0.088240
C38   C     C_R   0.667553 0.147714 0.333532 -0.005083
C39   C     C_R   0.084285 0.229474 0.929413 0.549892
C40   C     C_R   0.619488 0.731161 0.404983 0.563478
C41   C     C_R   0.684007 0.603968 0.929612 0.546439
C42   C     C_R   0.708611 0.206110 0.930348 0.558101
C43   C     C_R   0.085584 0.235487 0.125281 0.527610
C44   C     C_R   0.682499 0.611541 0.126147 0.532495
C45   C     C_1   0.187753 0.163936 0.805204 -0.030468
C46   C     C_R   0.744168 0.237904 0.134310 0.553761
C47   C     C_R   0.238966 0.142633 0.402957 0.550775
C48   C     C_1   0.670227 0.646383 0.860268 0.005100
C49   C     C_1   0.654490 0.683841 0.728365 -0.033013
C50   C     C_1   0.663178 0.666770 0.799747 -0.031654
C51   C     C_3   0.015765 0.448943 0.417914 -0.268527
C52   C     C_3   0.921917 0.392520 0.424835 -0.415210
C53   C     C_3   0.378501 0.560638 0.428374 0.001509
C54   C     C_3   0.284114 0.694170 0.464616 -0.252849
C55   C     C_3   0.172457 0.687747 0.502049 -0.481185
C56   C     C_1   0.258413 0.133637 0.675993 0.001499
C57   C     C_1   0.679011 0.190027 0.861020 0.003181
C58   C     C_1   0.658050 0.167718 0.729032 -0.033587
C59   C     C_1   0.665671 0.180241 0.800464 -0.031918
Cr1   Cr    Cr6+3 0.404720 0.198220 0.499960 0.991412
Cr2   Cr    Cr6+3 0.698290 0.897110 0.500380 0.999312
Cr3   Cr    Cr6+3 0.396970 0.904720 0.499610 1.000199
Cr4   Cr    Cr6+3 0.926180 0.151990 0.028120 1.011556
Cr5   Cr    Cr6+3 0.921330 0.451820 0.027470 1.022438
Cr6   Cr    Cr6+3 0.626260 0.446870 0.028710 1.025461
H1    H     H_    0.846918 0.643765 0.333274 0.130455
H2    H     H_    0.407915 0.780453 0.149728 0.141217
H3    H     H_    0.871118 0.596237 0.209674 0.155660
H4    H     H_    0.228659 0.773923 0.205731 0.108824
H5    H     H_    0.250583 0.677336 0.317815 0.100056
H6    H     H_    0.221111 0.967071 0.315909 0.149265
H7    H     H_    0.209505 0.392970 0.160172 0.146616
H8    H     H_    0.187887 0.997939 0.191712 0.113836
H9    H     H_    0.846593 0.449338 0.465316 0.153776
H10   H     H_    0.869783 0.399869 0.375943 0.166449
H11   H     H_    0.977269 0.286262 0.440233 0.151393
H12   H     H_    0.190062 0.570440 0.235214 0.115191
H13   H     H_    0.084848 0.417364 0.461836 0.185941
H14   H     H_    0.956007 0.558831 0.426108 0.122449
H15   H     H_    0.422823 0.483079 0.468479 0.162692
H16   H     H_    0.325887 0.525358 0.394026 0.111325
H17   H     H_    0.340892 0.717382 0.502752 0.213079
H18   H     H_    0.240074 0.776859 0.427279 0.159276
H19   H     H_    0.111481 0.667562 0.465246 0.133827
H20   H     H_    0.107312 0.785022 0.528441 0.162330
H21   H     H_    0.213948 0.607797 0.541033 0.151443
H22   H     H_    0.098218 0.599333 0.352224 0.092410
H23   H     H_    0.508065 0.352287 0.338536 0.163049
H24   H     H_    0.994554 0.019508 0.174113 0.151502
H25   H     H_    0.553748 0.410183 0.224979 0.147573
H26   H     H_    0.050432 0.786979 0.176190 0.099444
H27   H     H_    0.941680 0.717161 0.257200 0.118416
H28   H     H_    0.757845 0.877134 0.327069 0.157707
O1    O     O_R   0.267740 0.231960 0.575440 -0.517874
O2    O     O_R   0.596130 0.579390 0.952730 -0.506304
O3    O     O_R   0.639060 0.321160 0.958670 -0.488152
O4    O     O_R   0.527280 0.186640 0.570530 -0.513637
O5    O     O_R   0.821240 0.124200 0.104370 -0.519995
O6    O     O_R   0.036890 0.167040 0.097840 -0.533606
O7    O     O_R   0.056180 0.349610 0.102880 -0.523735
O8    O     O_R   0.797660 0.564870 0.097950 -0.503133
O9    O     O_R   0.595880 0.584250 0.104270 -0.529667
O10   O     O_R   0.638830 0.325670 0.099150 -0.490622
O11   O     O_3   0.824590 0.350230 0.028100 -0.273685
O12   O     O_R   0.685970 0.784660 0.430010 -0.528014
O13   O     O_R   0.728090 0.003450 0.576380 -0.501692
O14   O     O_R   0.682970 0.789190 0.570490 -0.496515
O15   O     O_R   0.499290 0.771880 0.575530 -0.529164
O16   O     O_R   0.285330 0.030870 0.569730 -0.496983
O17   O     O_R   0.270980 0.227080 0.423890 -0.519395
O18   O     O_R   0.530280 0.182120 0.430050 -0.504681
O19   O     O_R   0.731330 0.998570 0.424830 -0.524079
O20   O     O_3   0.485162 0.564035 0.395302 -0.571075
O21   O     O_R   0.502530 0.767000 0.423990 -0.480219
O22   O     O_R   0.288330 0.026350 0.429250 -0.507849
O23   O     O_3   0.499990 0.000020 0.499980 -0.266954
O24   O     O_R   0.821500 0.119340 0.952830 -0.499573
O25   O     O_R   0.037130 0.162530 0.957360 -0.493357
O26   O     O_R   0.056440 0.344740 0.951340 -0.502495
O27   O     O_R   0.797900 0.560360 0.957470 -0.490266

loop_
_geom_bond_atom_site_label_1
_geom_bond_atom_site_label_2
_ccdc_geom_bond_type
C34   C56   T    
C23   C45   T    
C27   C29   A    
C19   H6    S    
C19   C20   A    
C18   C26   A    
C52   H10   S    
C9    H2    S    
C12   C49   T    
C11   H5    S    
C7    C8    A    
C53   C54   S    
C28   O19   A    
C47   O22   A    
C4    O15   A    
Cr5   O26   S    
C42   O3    A    
C36   C37   A    
C43   O6    A    
Cr3   O21   S    
Cr4   O5    S    
C52   H9    S    
C5    C6    A    
Cr4   O24   S    
C39   O26   A    
C57   C59   T    
Cr3   O15   S    
C29   C33   A    
C30   C38   A    
C53   H16   S    
C1    C2    S    
C19   C26   A    
Cr4   O6    S    
C7    C14   A    
C32   H25   S    
C35   C36   A    
C4    C12   S    
Cr2   O12   S    
C9    C10   A    
Cr6   O2    S    
C1    O13   A    
C36   H27   S    
C48   C50   T    
C46   O5    A    
C21   C22   A    
Cr5   O8    S    
C18   C25   A    
Cr6   O9    S    
C42   C57   S    
C54   H18   S    
C53   O20   S    
C16   O16   A    
Cr6   O3    S    
C28   O18   A    
C15   C20   A    
C4    O14   A    
C40   O21   A    
C3    C44   S    
C21   H7    S    
C51   C52   S    
C16   C56   S    
C53   H15   S    
C43   O7    A    
C3    C8    A    
C10   C11   A    
C1    O4    A    
Cr4   O25   S    
C44   O9    A    
C3    C5    A    
C58   C59   S    
C17   C21   A    
C30   C37   A    
C55   H20   S    
C25   C51   S    
C5    C9    A    
C29   C30   A    
C33   H24   S    
C6    C14   A    
C31   C32   A    
C28   C38   S    
Cr2   O23   S    
C17   C18   A    
C37   H28   S    
C34   C45   S    
C24   C25   A    
Cr2   O13   S    
C26   C47   S    
C27   C46   S    
Cr1   O4    S    
C22   C24   A    
Cr1   O23   S    
Cr6   O10   S    
C47   O17   A    
C54   H17   S    
Cr5   O11   S    
C54   C55   S    
C31   H23   S    
C27   C32   A    
C22   H12   S    
Cr4   O11   S    
C52   H11   S    
C44   O8    A    
C2    C58   T    
C42   O24   A    
C8    H3    S    
C39   O25   A    
C46   O10   A    
C16   O1    A    
Cr5   O27   S    
C31   C38   A    
C55   H21   S    
C51   H13   S    
C15   C43   S    
Cr3   O22   S    
Cr1   O18   S    
C7    H1    S    
C11   C13   A    
C41   O2    A    
Cr3   O16   S    
C23   C39   S    
C33   C35   A    
C41   C48   S    
C20   H8    S    
C41   O27   A    
Cr2   O14   S    
C24   H22   S    
C51   H14   S    
Cr1   O17   S    
Cr3   O23   S    
C14   C40   S    
C10   H4    S    
Cr5   O7    S    
C49   C50   S    
Cr6   O11   S    
C55   H19   S    
C15   C17   A    
Cr2   O19   S    
C13   O20   S    
C35   H26   S    
C40   O12   A    
C6    C13   A    
Cr1   O1    S    
