data_mof_unit_15393.cif
_audit_creation_date              2012-12-11T14:15:38-0500
_audit_creation_method            fapswitch 2.2
_symmetry_space_group_name_H-M    P1
_symmetry_Int_Tables_number       1
_space_group_crystal_system       triclinic
_cell_length_a                    11.12225
_cell_length_b                    12.76431
_cell_length_c                    23.537945
_cell_angle_alpha                 90.401579
_cell_angle_beta                  96.611694
_cell_angle_gamma                 69.261177
_cell_volume                      3102.27291671

loop_
_atom_site_label
_atom_site_type_symbol
_atom_type_description
_atom_site_fract_x
_atom_site_fract_y
_atom_site_fract_z
_atom_type_partial_charge
C1    C     C_R   0.149245 0.616609 0.429293 0.555557
C2    C     C_2   0.207213 0.215060 0.230300 0.274505
C3    C     C_2   0.115849 0.194633 0.257465 -0.019099
C4    C     C_R   0.748510 0.603822 0.403550 0.559174
C5    C     C_1   0.111686 0.214116 0.317931 0.099496
C6    C     C_1   0.221831 0.188621 0.171237 0.008588
C7    C     C_1   0.108735 0.238214 0.367453 0.093157
C8    C     C_1   0.182894 0.765014 0.127902 0.019886
C9    C     C_2   0.206737 0.739008 0.239816 0.202235
C10   C     C_2   0.186192 0.653033 0.263468 -0.088650
C11   C     C_1   0.190057 0.639521 0.324046 0.115930
C12   C     C_R   0.621852 0.576768 0.310563 0.286032
C13   C     C_1   0.190134 0.751419 0.178698 -0.042365
C14   C     C_1   0.181835 0.628861 0.373798 0.123266
C15   C     C_1   0.574727 0.779514 0.855056 0.058899
C16   C     C_R   0.100422 0.282105 0.423580 0.555836
C17   C     C_2   0.634850 0.750152 0.748843 -0.028818
C18   C     C_2   0.613570 0.666261 0.719166 0.251682
C19   C     C_1   0.650326 0.646804 0.662273 -0.057034
C20   C     C_1   0.605039 0.767984 0.807211 0.044267
C21   C     C_1   0.689676 0.630905 0.616451 0.000615
C22   C     C_R   0.221251 0.170839 0.849514 -0.008001
C23   C     C_R   0.707624 0.728640 0.317886 -0.105266
C24   C     C_R   0.099136 0.214534 0.636249 0.011559
C25   C     C_R   0.974329 0.244111 0.716581 0.024823
C26   C     C_R   0.982033 0.226269 0.657755 0.284684
C27   C     C_R   0.212685 0.177177 0.672053 -0.153704
C28   C     C_R   0.145494 0.613672 0.592618 0.530733
C29   C     C_R   0.212473 0.171970 0.731012 -0.013865
C30   C     C_R   0.092277 0.210309 0.755423 0.038294
C31   C     C_R   0.098242 0.206588 0.816676 -0.040651
C32   C     C_R   0.333921 0.162960 0.822945 0.236172
C33   C     C_R   0.332321 0.142521 0.765090 -0.019005
C34   C     C_R   0.690925 0.744059 0.258092 -0.022718
C35   C     C_R   0.106354 0.744960 0.856027 -0.007753
C36   C     C_R   0.174986 0.622959 0.654409 -0.028731
C37   C     C_R   0.235425 0.525848 0.747557 0.032444
C38   C     C_R   0.235350 0.525829 0.688251 -0.085572
C39   C     C_R   0.113840 0.722708 0.680047 -0.072471
C40   C     C_R   0.748803 0.601301 0.565320 0.556019
C41   C     C_R   0.101653 0.725967 0.738829 0.006034
C42   C     C_R   0.168355 0.627131 0.774782 0.067127
C43   C     C_R   0.170244 0.638610 0.835573 -0.020147
C44   C     C_R   0.006342 0.824290 0.820141 -0.029234
C45   C     C_R   0.665106 0.659939 0.225244 -0.007911
C46   C     C_R   0.017715 0.824529 0.761610 0.216621
C47   C     C_R   0.265766 0.110488 0.069054 0.541900
C48   C     C_R   0.602523 0.774408 0.081051 0.582500
C49   C     C_R   0.190166 0.789010 0.069792 0.557080
C50   C     C_R   0.244347 0.114484 0.906708 0.538192
C51   C     C_R   0.529705 0.792434 0.910289 0.553126
C52   C     C_R   0.098476 0.275605 0.583750 0.541076
C53   C     C_R   0.160191 0.785735 0.908473 0.551150
C54   C     C_R   0.680023 0.751452 0.138511 -0.011875
C55   C     C_R   0.685174 0.639910 0.344175 0.004104
C56   C     C_R   0.688802 0.653640 0.167929 -0.050008
C57   C     C_R   0.613149 0.586596 0.250056 0.001491
C58   C     C_3   0.752832 0.541071 0.142081 -0.377373
C59   C     C_3   0.696634 0.822258 0.722538 -0.394370
C60   C     C_3   0.979465 0.239263 0.848358 -0.365558
C61   C     C_3   0.843948 0.317808 0.732794 -0.297292
C62   C     C_3   0.458636 0.088154 0.739908 -0.348370
C63   C     C_3   0.230658 0.543828 0.880272 -0.344082
C64   C     C_3   0.892869 0.907542 0.845742 -0.294276
C65   C     C_3   0.308319 0.415265 0.777848 -0.298819
C66   C     C_3   0.538781 0.527861 0.212120 -0.314423
C67   C     C_R   0.708896 0.836311 0.169702 0.221338
C68   C     C_3   0.010398 0.158726 0.226927 -0.388100
C69   C     C_R   0.710869 0.834907 0.230463 0.183715
C70   C     C_1   0.239344 0.159039 0.123261 0.015835
Cr1   Cr    Cr6+3 0.189770 0.415650 0.511620 1.096492
Cr2   Cr    Cr6+3 0.930400 0.667320 0.496770 1.094575
Cr3   Cr    Cr6+3 0.879870 0.417010 0.491650 1.161760
Cr4   Cr    Cr6+3 0.149500 0.973980 0.985330 1.040208
Cr5   Cr    Cr6+3 0.457000 0.976510 0.994660 1.192142
Cr6   Cr    Cr6+3 0.411170 0.724270 0.995270 1.044470
H1    H     H_    0.300985 0.163579 0.653213 0.147880
H2    H     H_    0.478103 0.530636 0.665984 0.343314
H3    H     H_    0.686786 0.897402 0.746876 0.128255
H4    H     H_    0.800581 0.772803 0.720940 0.162370
H5    H     H_    0.648607 0.852090 0.678607 0.169798
H6    H     H_    0.002228 0.237907 0.895364 0.145248
H7    H     H_    0.918181 0.327994 0.839365 0.138649
H8    H     H_    0.925396 0.181956 0.838429 0.178814
H9    H     H_    0.632924 0.233248 0.839769 0.378460
H10   H     H_    0.853382 0.393164 0.753514 0.128365
H11   H     H_    0.771512 0.352980 0.695077 0.221811
H12   H     H_    0.280196 0.447546 0.667765 0.152202
H13   H     H_    0.801673 0.271990 0.759340 0.207338
H14   H     H_    0.540154 0.048085 0.773382 0.187867
H15   H     H_    0.451876 0.019829 0.711731 0.126958
H16   H     H_    0.481602 0.151062 0.715249 0.174694
H17   H     H_    0.834307 0.111745 0.537695 0.374042
H18   H     H_    0.192057 0.475805 0.871918 0.130795
H19   H     H_    0.337736 0.514564 0.884282 0.191843
H20   H     H_    0.203072 0.570322 0.923392 0.137172
H21   H     H_    0.926258 0.987405 0.148165 0.360178
H22   H     H_    0.801080 0.922101 0.818743 0.134950
H23   H     H_    0.068089 0.795781 0.652079 0.225196
H24   H     H_    0.880253 0.873996 0.887199 0.153211
H25   H     H_    0.907008 0.988595 0.852876 0.206660
H26   H     H_    0.356177 0.350003 0.748133 0.176332
H27   H     H_    0.387451 0.422267 0.808659 0.243317
H28   H     H_    0.240427 0.384735 0.797166 0.106814
H29   H     H_    0.759540 0.064467 0.743779 0.367544
H30   H     H_    0.436968 0.557238 0.221028 0.189556
H31   H     H_    0.529331 0.549028 0.166037 0.132577
H32   H     H_    0.585003 0.435579 0.218863 0.176586
H33   H     H_    0.927842 0.858129 0.283571 0.344660
H34   H     H_    0.750648 0.778645 0.344299 0.202323
H35   H     H_    0.641876 0.313853 0.379059 0.389936
H36   H     H_    0.012251 0.080001 0.247168 0.234377
H37   H     H_    0.914715 0.224632 0.230548 0.162760
H38   H     H_    0.019024 0.144647 0.180815 0.107938
H39   H     H_    0.500251 0.276930 0.244074 0.402898
H40   H     H_    0.157149 0.594502 0.236530 0.128393
H41   H     H_    0.786435 0.471990 0.175202 0.133404
H42   H     H_    0.687241 0.521559 0.108069 0.171885
H43   H     H_    0.839895 0.541272 0.123284 0.142337
H44   H     H_    0.231033 0.952964 0.210303 0.322370
O1    O     O_R   0.196340 0.303200 0.448500 -0.470374
O2    O     O_R   0.555390 0.700940 0.062700 -0.527331
O3    O     O_R   0.295020 0.731920 0.049950 -0.506674
O4    O     O_R   0.199310 0.519670 0.454880 -0.470144
O5    O     O_R   0.094290 0.884230 0.921550 -0.517296
O6    O     O_R   0.168980 0.069410 0.926940 -0.511971
O7    O     O_R   0.358400 0.089990 0.927950 -0.426165
O8    O     O_R   0.544850 0.873850 0.939920 -0.466673
O9    O     O_R   0.536020 0.701900 0.936430 -0.482915
O10   O     O_R   0.277070 0.732810 0.932890 -0.500022
O11   O     O_3   0.339220 0.891590 0.991750 -0.296519
O12   O     O_R   0.811960 0.658090 0.547150 -0.492419
O13   O     O_R   0.045660 0.691380 0.441680 -0.493510
O14   O     O_R   0.811930 0.659460 0.430950 -0.513983
O15   O     O_R   0.757900 0.507620 0.421760 -0.423672
O16   O     O_R   0.988630 0.322990 0.439840 -0.485945
O17   O     O_R   0.196380 0.301720 0.573850 -0.527450
O18   O     O_R   0.199350 0.518300 0.571080 -0.504030
O19   O     O_R   0.045700 0.689900 0.567030 -0.489983
O20   O     O_2   0.151711 0.909076 0.311591 -0.261368
O21   O     O_2   0.371529 0.772073 0.324254 -0.217486
O22   O     O_3   0.307878 0.914212 0.238115 -0.483303
O23   O     O_R   0.757930 0.506140 0.547110 -0.447137
O24   O     O_2   0.637177 0.511668 0.799782 -0.283419
O25   O     O_2   0.420419 0.644866 0.768523 -0.292339
O26   O     O_3   0.525578 0.484134 0.700594 -0.513082
O27   O     O_2   0.437754 0.263820 0.906932 -0.285254
O28   O     O_2   0.569905 0.071600 0.885707 -0.277802
O29   O     O_3   0.555001 0.230333 0.815775 -0.569167
O30   O     O_2   0.773278 0.161342 0.645785 -0.209030
O31   O     O_2   0.761274 0.317264 0.584944 -0.275512
O32   O     O_3   0.911094 0.118778 0.560858 -0.478661
O33   O     O_2   0.815401 0.874273 0.078455 -0.302189
O34   O     O_R   0.988670 0.321620 0.556040 -0.445974
O35   O     O_2   0.660254 0.037220 0.118509 -0.202781
O36   O     O_3   0.891544 0.946524 0.173627 -0.521553
O37   O     O_2   0.044789 0.982030 0.696488 -0.235482
O38   O     O_2   0.856574 0.929431 0.668342 -0.292280
O39   O     O_3   0.850429 0.059038 0.754260 -0.541526
O40   O     O_2   0.688992 0.055968 0.235557 -0.164853
O41   O     O_2   0.627196 0.975200 0.315248 -0.194117
O42   O     O_3   0.871607 0.917275 0.306170 -0.467464
O43   O     O_2   0.511534 0.531553 0.399491 -0.248008
O44   O     O_2   0.449302 0.465308 0.307967 -0.268224
O45   O     O_3   0.000020 0.499990 0.500010 -0.302455
O46   O     O_3   0.679230 0.359060 0.357661 -0.499482
O47   O     O_2   0.248836 0.377594 0.292020 -0.292304
O48   O     O_2   0.401436 0.186205 0.313851 -0.193214
O49   O     O_3   0.416503 0.288002 0.220672 -0.487108
O50   O     O_R   0.113660 0.883270 0.047820 -0.483299
O51   O     O_R   0.186930 0.068530 0.043990 -0.517119
O52   O     O_R   0.377770 0.089040 0.054220 -0.446303
O53   O     O_R   0.562800 0.872960 0.056970 -0.429722
S1    S     S_3+6 0.259786 0.835047 0.280663 0.040105
S2    S     S_3+6 0.547309 0.575438 0.748909 -0.013345
S3    S     S_3+6 0.476400 0.182111 0.860133 -0.027323
S4    S     S_3+6 0.851037 0.207715 0.612264 0.078857
S5    S     S_3+6 0.767578 0.926373 0.132908 0.055673
S6    S     S_3+6 0.940519 0.950281 0.718655 -0.000152
S7    S     S_3+6 0.721179 0.950849 0.271572 0.099524
S8    S     S_3+6 0.559155 0.484068 0.344191 0.045947
S9    S     S_3+6 0.320553 0.268118 0.266593 0.075480

loop_
_geom_bond_atom_site_label_1
_geom_bond_atom_site_label_2
_ccdc_geom_bond_type
C24   C52   S    
C8    C13   T    
C29   C33   A    
C35   C53   S    
C41   C42   A    
C3    C68   S    
C24   C27   A    
C66   H31   S    
H39   O49   S    
C47   O52   A    
C51   O9    A    
C43   C63   S    
C39   C41   A    
O38   S6    D    
Cr4   O6    S    
C44   C64   S    
C48   C54   S    
C32   S3    S    
C63   H18   S    
C45   C57   A    
O28   S3    D    
C22   C32   A    
Cr6   O11   S    
C51   O8    A    
O21   S1    D    
C19   C21   T    
C24   C26   A    
C18   C19   S    
H33   O42   S    
C69   S7    S    
C48   O2    A    
C30   C31   A    
C60   H7    S    
O31   S4    D    
O47   S9    D    
C27   C29   A    
C52   O34   A    
C49   O3    A    
C63   H19   S    
C58   H42   S    
C17   C20   S    
Cr5   O8    S    
O37   S6    D    
H21   O36   S    
C37   C42   A    
C9    C13   S    
O40   S7    D    
O44   S8    D    
C61   H11   S    
O36   S5    S    
Cr2   O19   S    
O25   S2    D    
C45   C56   A    
C44   C46   A    
C33   C62   S    
C62   H16   S    
Cr3   O34   S    
C41   C46   A    
C50   O6    A    
C15   C51   S    
C29   C30   A    
C35   C43   A    
C9    C10   D    
C57   C66   S    
O42   S7    S    
O35   S5    D    
C68   H37   S    
C22   C50   S    
C18   S2    S    
O22   S1    S    
C64   H22   S    
C40   O12   A    
Cr4   O11   S    
C62   H15   S    
C2    C6    S    
C28   O19   A    
Cr6   O10   S    
C65   H26   S    
C66   H30   S    
C1    O13   A    
Cr5   O11   S    
C61   H13   S    
Cr2   O12   S    
Cr1   O18   S    
Cr5   O53   S    
C64   H25   S    
C54   C56   A    
C22   C31   A    
C2    S9    S    
Cr1   O4    S    
C28   O18   A    
O43   S8    D    
Cr1   O17   S    
C61   H10   S    
C50   O7    A    
C59   H3    S    
C5    C7    T    
O27   S3    D    
C54   C67   A    
C3    C5    S    
C25   C26   A    
C63   H20   S    
C58   H41   S    
Cr3   O15   S    
C38   H12   S    
C15   C20   T    
C67   C69   A    
C31   C60   S    
C52   O17   A    
C16   O1    A    
C47   C70   S    
C37   C38   A    
Cr6   O9    S    
Cr2   O14   S    
C12   S8    S    
Cr3   O16   S    
O46   S8    S    
C23   C34   A    
O26   S2    S    
C17   C18   D    
H44   O22   S    
C9    S1    S    
C34   C45   A    
C25   C61   S    
O41   S7    D    
C35   C44   A    
C34   C69   A    
Cr4   O51   S    
C53   O5    A    
C17   C59   S    
O30   S4    D    
C12   C57   A    
C37   C65   S    
C7    C16   S    
Cr3   O45   S    
O48   S9    D    
C4    O15   A    
C4    C55   S    
C49   O50   A    
C42   C43   A    
C65   H27   S    
C16   O16   A    
C10   H40   S    
C4    O14   A    
C48   O53   A    
Cr3   O23   S    
C26   S4    S    
C25   C30   A    
C6    C70   T    
C23   H34   S    
O33   S5    D    
Cr6   O3    S    
H35   O46   S    
C46   S6    S    
Cr1   O1    S    
C36   C39   A    
C59   H5    S    
C66   H32   S    
C27   H1    S    
C67   S5    S    
C59   H4    S    
C47   O51   A    
C23   C55   A    
C1    C14   S    
Cr2   O45   S    
O29   S3    S    
Cr6   O2    S    
C32   C33   A    
C60   H6    S    
C36   C38   A    
C2    C3    D    
O32   S4    S    
C1    O4    A    
C60   H8    S    
Cr2   O13   S    
H29   O39   S    
C21   C40   S    
C62   H14   S    
O24   S2    D    
C58   H43   S    
C11   C14   T    
C56   C58   S    
Cr5   O7    S    
H9    O29   S    
O49   S9    S    
Cr4   O50   S    
C12   C55   A    
C10   C11   S    
H2    O26   S    
Cr4   O5    S    
C39   H23   S    
C64   H24   S    
O39   S6    S    
C28   C36   S    
O20   S1    D    
Cr1   O45   S    
C40   O23   A    
Cr5   O52   S    
H17   O32   S    
C53   O10   A    
C65   H28   S    
C8    C49   S    
C68   H36   S    
C68   H38   S    
