data_mof_unit_29826.cif
_audit_creation_date              2012-12-10T20:31:51-0500
_audit_creation_method            fapswitch 2.2
_symmetry_space_group_name_H-M    P1
_symmetry_Int_Tables_number       1
_space_group_crystal_system       triclinic
_cell_length_a                    9.930538
_cell_length_b                    10.721955
_cell_length_c                    15.20696
_cell_angle_alpha                 91.430397
_cell_angle_beta                  69.313116
_cell_angle_gamma                 89.216267
_cell_volume                      1513.85224201

loop_
_atom_site_label
_atom_site_type_symbol
_atom_type_description
_atom_site_fract_x
_atom_site_fract_y
_atom_site_fract_z
_atom_type_partial_charge
C1    C     C_R   0.502131 0.739797 0.495444 0.896231
C2    C     C_R   0.449533 0.357907 0.892552 0.075315
C3    C     C_R   0.307175 0.323498 0.944937 0.118434
C4    C     C_R   0.554903 0.367202 0.935630 0.085382
C5    C     C_R   0.509739 0.361531 0.034683 0.070641
C6    C     C_R   0.371924 0.314426 0.084033 -0.219919
C7    C     C_R   0.273555 0.293054 0.039230 -0.219682
C8    C     C_R   0.700793 0.392958 0.884215 -0.205475
C9    C     C_R   0.792527 0.432214 0.929250 -0.208591
C10   C     C_R   0.743631 0.444167 0.026704 0.185400
C11   C     C_R   0.602088 0.407992 0.080633 0.091078
C12   C     C_R   0.412298 0.482994 0.674272 0.901351
C13   C     C_R   0.834842 0.492953 0.070752 -0.184499
C14   C     C_R   0.785708 0.510124 0.167949 -0.193851
C15   C     C_R   0.554114 0.429121 0.178253 -0.245008
C16   C     C_R   0.381791 0.940079 0.499360 0.080011
C17   C     C_R   0.509811 0.871428 0.479966 -0.169647
C18   C     C_R   0.642863 0.933534 0.443310 -0.015063
C19   C     C_R   0.641624 0.063539 0.445944 -0.261459
C20   C     C_R   0.509859 0.129128 0.482026 -0.101285
C21   C     C_R   0.382561 0.066997 0.499299 0.144736
C22   C     C_3   0.243914 0.082849 0.579937 -0.503324
C23   C     C_R   0.502831 0.260483 0.496291 0.877213
C24   C     C_3   0.241112 0.941655 0.580238 -0.223561
C25   C     C_R   0.912990 0.603923 0.529200 0.199538
C26   C     C_R   0.951697 0.405645 0.457356 -0.178783
C27   C     C_R   0.096517 0.406966 0.454988 0.014475
C28   C     C_R   0.051567 0.600452 0.533457 0.179867
C29   C     C_3   0.004320 0.661779 0.628375 -0.543429
C30   C     C_3   0.859988 0.686046 0.617153 -0.263090
C31   C     C_R   0.589441 0.497544 0.323770 0.864274
C32   C     C_R   0.369360 0.425344 0.767066 -0.076027
C33   C     C_R   0.644249 0.480489 0.221646 -0.059140
C34   C     C_R   0.201785 0.324135 0.901793 0.004062
C35   C     C_R   0.230740 0.382624 0.815401 -0.262022
C36   C     C_R   0.478950 0.395624 0.800919 -0.226218
H1    H     H_    0.943648 0.519101 0.029843 0.145956
H2    H     H_    0.742282 0.112791 0.423665 0.163991
H3    H     H_    0.257306 0.128787 0.642753 0.200368
H4    H     H_    0.157939 0.125292 0.558520 0.202224
H5    H     H_    0.152961 0.905821 0.558793 0.154454
H6    H     H_    0.915728 0.329006 0.424144 0.149334
H7    H     H_    0.001659 0.593654 0.683091 0.204000
H8    H     H_    0.445312 0.409379 0.221954 0.162942
H9    H     H_    0.060667 0.746971 0.632851 0.201056
H10   H     H_    0.846697 0.784538 0.599635 0.157047
H11   H     H_    0.857152 0.548603 0.200893 0.166318
H12   H     H_    0.901386 0.456687 0.887275 0.139351
H13   H     H_    0.148217 0.389905 0.784360 0.152223
H14   H     H_    0.587728 0.408458 0.755739 0.170435
H15   H     H_    0.336840 0.293862 0.157664 0.159398
H16   H     H_    0.747968 0.384716 0.808695 0.141572
N1    N     N_R   0.856900 0.500860 0.500610 -0.113915
N2    N     N_R   0.142540 0.500820 0.500610 -0.124807
O1    O     O_R   0.385310 0.683210 0.499990 -0.605597
O2    O     O_R   0.614650 0.683240 0.500000 -0.607882
O3    O     O_R   0.319830 0.499970 0.632240 -0.612459
O4    O     O_R   0.549170 0.500000 0.632250 -0.611768
O5    O     O_R   0.385350 0.316760 0.500000 -0.612930
O6    O     O_R   0.614690 0.316790 0.500010 -0.631970
O7    O     O_R   0.450830 0.500000 0.367750 -0.612022
O8    O     O_R   0.680170 0.500030 0.367760 -0.612292
Zn1   Zn    Zn3+2 0.346870 0.499980 0.499990 0.958205
Zn2   Zn    Zn3+2 0.653130 0.500020 0.500010 0.955968
H17   H     H_    0.167536 0.261567 0.080886 0.162617
C37   C     C_1   0.780913 0.868707 0.405621 0.195854
N3    N     N_1   0.891602 0.817104 0.375239 -0.215682
C38   C     C_1   0.251724 0.890571 0.666805 0.213476
N4    N     N_1   0.260151 0.850299 0.734612 -0.199579
C39   C     C_1   0.194417 0.309943 0.401159 0.200701
N5    N     N_1   0.272211 0.231671 0.357019 -0.230771
C40   C     C_1   0.738940 0.650483 0.699620 0.276207
N6    N     N_1   0.643761 0.629853 0.767433 -0.212169
C41   C     C_1   0.067247 0.261385 0.942993 0.126381
N7    N     N_1   0.960726 0.209151 0.975943 -0.184168

loop_
_geom_bond_atom_site_label_1
_geom_bond_atom_site_label_2
_ccdc_geom_bond_type
C8    C9    A    
C16   C21   A    
C31   O7    A    
C19   C20   A    
C4    C8    A    
C14   C33   A    
C27   N2    A    
C25   C28   A    
C23   O5    A    
C26   C27   A    
C32   C36   A    
C28   C29   S    
C1    O2    A    
C25   N1    A    
C15   H8    S    
C5    C11   A    
C3    C7    A    
C5    C6    A    
C34   C35   A    
N1    Zn2   S    
N2    Zn1   S    
C18   C19   A    
O7    Zn1   S    
O8    Zn2   S    
C38   N4    T    
C11   C15   A    
C16   C17   A    
O1    Zn1   S    
C35   H13   S    
O2    Zn2   S    
C39   N5    T    
C6    H15   S    
C9    C10   A    
C8    H16   S    
C13   H1    S    
C12   O4    A    
C37   N3    T    
C16   C24   S    
C21   C22   S    
C29   H7    S    
C24   H5    S    
C31   O8    A    
O3    Zn1   S    
O4    Zn2   S    
C23   O6    A    
C41   N7    T    
C32   C35   A    
C28   N2    A    
C40   N6    T    
C3    C34   A    
C29   H9    S    
C2    C4    A    
C29   C30   S    
C19   H2    S    
C7    H17   S    
C20   C23   S    
C22   H4    S    
C31   C33   S    
C17   C18   A    
C14   H11   S    
C27   C39   S    
C34   C41   S    
C12   O3    A    
C22   C24   S    
C26   N1    A    
C36   H14   S    
C26   H6    S    
C2    C36   A    
C25   C30   S    
C1    C17   S    
C30   H10   S    
C4    C5    A    
C10   C13   A    
C30   C40   S    
C6    C7    A    
C18   C37   S    
O5    Zn1   S    
O6    Zn2   S    
C2    C3    A    
C1    O1    A    
C22   H3    S    
C10   C11   A    
C24   C38   S    
C20   C21   A    
C9    H12   S    
C13   C14   A    
C15   C33   A    
C12   C32   S    
