data_mof_unit_67428.cif
_audit_creation_date              2013-03-05T15:40:04-0500
_audit_creation_method            fapswitch 2.2
_symmetry_space_group_name_H-M    P1
_symmetry_Int_Tables_number       1
_space_group_crystal_system       triclinic
_cell_length_a                    7.526919
_cell_length_b                    8.708315
_cell_length_c                    10.866856
_cell_angle_alpha                 87.728479
_cell_angle_beta                  73.806202
_cell_angle_gamma                 102.878715
_cell_volume                      662.8654465

loop_
_atom_site_label
_atom_site_type_symbol
_atom_site_description
_atom_site_fract_x
_atom_site_fract_y
_atom_site_fract_z
_atom_type_partial_charge
O1    O     O_R   0.622710 0.286400 0.490790 -0.542828
O2    O     O_R   0.377290 0.713600 0.509210 -0.597452
O3    O     O_R   0.303660 0.256330 0.514730 -0.572743
O4    O     O_R   0.696340 0.743670 0.485270 -0.603032
C1    C     C_R   0.451871 0.200291 0.511429 0.827196
C2    C     C_R   0.547805 0.799817 0.489340 0.838693
O5    O     O_R   0.600900 0.509520 0.671740 -0.613715
O6    O     O_R   0.399100 0.490480 0.328260 -0.547702
O7    O     O_R   0.281840 0.479450 0.695690 -0.598568
O8    O     O_R   0.718160 0.520550 0.304310 -0.565531
C3    C     C_R   0.424759 0.491564 0.743051 0.780573
C4    C     C_R   0.574020 0.504622 0.256845 0.787011
Cu1   Cu    Cu3+1 0.688910 0.517800 0.485820 0.995474
Cu2   Cu    Cu3+1 0.311090 0.482200 0.514180 0.999381
H1    H     H_    0.318775 0.364935 0.148601 0.179305
H2    H     H_    0.557903 0.333208 0.893125 0.121788
C5    C     C_2   0.387885 0.492405 0.882093 0.055119
C6    C     C_2   0.604522 0.494261 0.118315 0.031013
C7    C     C_2   0.471508 0.407382 0.943575 -0.181140
C8    C     C_2   0.457324 0.416615 0.079629 -0.138632
C9    C     C_2   0.432470 0.033255 0.537636 -0.011361
C10   C     C_2   0.566397 0.966948 0.463590 0.000980
N1    N     N_2   0.027170 0.455360 0.535550 0.124853
N2    N     N_2   0.972830 0.544640 0.464450 0.124591
C11   C     C_3   0.793613 0.574354 0.022606 -0.880651
H3    H     H_    0.891492 0.642621 0.071309 0.232721
H4    H     H_    0.859435 0.484140 0.970950 0.242405
H5    H     H_    0.773147 0.659084 0.951683 0.248747
C12   C     C_3   0.272748 0.600596 0.950549 -0.885858
H6    H     H_    0.206140 0.654769 0.886583 0.235551
H7    H     H_    0.159108 0.532956 0.036059 0.258445
H8    H     H_    0.368888 0.697208 0.981547 0.240558
C13   C     C_3   0.293967 0.952048 0.665369 -0.905443
H9    H     H_    0.264233 0.039672 0.734638 0.208812
H10   H     H_    0.158484 0.886248 0.650640 0.248036
H11   H     H_    0.355358 0.869855 0.711969 0.235894
C14   C     C_3   0.701054 0.048449 0.334786 -0.859583
H12   H     H_    0.740371 0.960928 0.267856 0.209977
H13   H     H_    0.631758 0.121612 0.285977 0.216537
H14   H     H_    0.831257 0.124686 0.348977 0.287815
O9    O     O_3   0.918865 0.306057 0.562824 -0.484989
C15   C     C_3   0.838251 0.275121 0.697651 0.188832
H15   H     H_    0.682364 0.229280 0.715966 0.133708
H16   H     H_    0.862475 0.381803 0.750298 0.114090
C16   C     C_3   0.912944 0.146159 0.751056 -0.364031
H17   H     H_    0.905227 0.045326 0.691534 0.232720
H18   H     H_    0.063183 0.196347 0.746973 0.236850
C17   C     C_3   0.798783 0.085760 0.890990 -0.975511
H19   H     H_    0.806557 0.184226 0.952746 0.263896
H20   H     H_    0.858843 0.993696 0.926821 0.267000
H21   H     H_    0.647071 0.032448 0.898460 0.260158
O10   O     O_3   0.106044 0.608476 0.352486 -0.491330
C18   C     C_3   0.139606 0.775185 0.346230 0.197396
H22   H     H_    0.293879 0.823423 0.332125 0.150349
H23   H     H_    0.060757 0.820004 0.434818 0.130815
C19   C     C_3   0.097070 0.840173 0.228240 -0.383660
H24   H     H_    0.162366 0.784219 0.143420 0.225279
H25   H     H_    0.941409 0.809580 0.244051 0.231368
C20   C     C_3   0.177894 0.019221 0.199362 -0.957293
H26   H     H_    0.134282 0.079111 0.287173 0.274515
H27   H     H_    0.125572 0.065795 0.123063 0.266946
H28   H     H_    0.336266 0.047133 0.164705 0.255656

loop_
_geom_bond_atom_site_label_1
_geom_bond_atom_site_label_2
_geom_bond_distance
_ccdc_geom_bond_type
Cu2   N1    2.042484 S    
N2    O10   1.346183 S    
O1    Cu1   1.959746 S    
O7    Cu2   1.921266 S    
C14   H12   1.105392 S    
O3    Cu2   1.954966 S    
C11   H4    1.109546 S    
C12   H6    1.109467 S    
C5    C12   1.500680 S    
O9    C15   1.409753 S    
C18   H23   1.116090 S    
C20   H27   1.110727 S    
C7    C8    1.459103 S    
N1    O9    1.343527 S    
C19   C20   1.526958 S    
O6    C4    1.304270 A    
N1    N2    1.280285 D    
C12   H7    1.109386 S    
C17   H20   1.110727 S    
C13   H9    1.107538 S    
C20   H26   1.109673 S    
C14   H13   1.111282 S    
Cu1   Cu2   2.718266 S    
O10   C18   1.412494 S    
C11   H5    1.110845 S    
O5    C3    1.306760 A    
O7    C3    1.302210 A    
O2    C2    1.288642 A    
C6    C11   1.506055 S    
C15   H16   1.117332 S    
H2    C7    1.075688 S    
O1    C1    1.289215 A    
O8    C4    1.308847 A    
C9    C10   1.356806 D    
C17   H19   1.110942 S    
C13   H10   1.109824 S    
C19   H25   1.103725 S    
C12   H8    1.109943 S    
C6    C8    1.345312 D    
C16   H18   1.105416 S    
H1    C8    1.086240 S    
O2    Cu2   1.959747 S    
C16   C17   1.527641 S    
C9    C13   1.516595 S    
C15   H15   1.109221 S    
C14   H14   1.107874 S    
C2    C10   1.439178 S    
C16   H17   1.111767 S    
O5    Cu1   1.935602 S    
C13   H11   1.109727 S    
C1    C9    1.437903 S    
C19   H24   1.103737 S    
O4    C2    1.307207 A    
C18   C19   1.522827 S    
C4    C6    1.467733 S    
O4    Cu1   1.954965 S    
C3    C5    1.458748 S    
C20   H28   1.111346 S    
O6    Cu2   1.935601 S    
C5    C7    1.339344 D    
C11   H3    1.106106 S    
C18   H22   1.107480 S    
C10   C14   1.516394 S    
O8    Cu1   1.921266 S    
C17   H21   1.111350 S    
Cu1   N2    2.042484 S    
O3    C1    1.306022 A    
C15   C16   1.525073 S    
