data_mof_unit_63926.cif
_audit_creation_date              2012-12-10T18:42:53-0500
_audit_creation_method            fapswitch 2.2
_symmetry_space_group_name_H-M    P1
_symmetry_Int_Tables_number       1
_space_group_crystal_system       triclinic
_cell_length_a                    45.105554
_cell_length_b                    31.864916
_cell_length_c                    31.867476
_cell_angle_alpha                 90.000202
_cell_angle_beta                  135.086126
_cell_angle_gamma                 89.999987
_cell_volume                      32338.6333781

loop_
_atom_site_label
_atom_site_type_symbol
_atom_type_description
_atom_site_fract_x
_atom_site_fract_y
_atom_site_fract_z
_atom_type_partial_charge
C1    C     C_R   0.581369 0.000000 0.581407 0.908939
C2    C     C_3   0.999992 0.208679 0.499974 0.082190
C3    C     C_R   0.581380 0.500000 0.081460 0.909728
C4    C     C_3   0.020617 0.034150 0.784514 0.194039
C5    C     C_3   0.020174 0.965603 0.784069 0.193435
C6    C     C_3   0.520614 0.534152 0.784511 0.194034
C7    C     C_3   0.520177 0.465604 0.784072 0.193440
C8    C     C_3   0.480969 0.534704 0.716820 -0.192184
C9    C     C_3   0.480529 0.465555 0.716379 -0.192083
C10   C     C_3   0.980972 0.034706 0.716823 -0.192185
C11   C     C_3   0.980525 0.965556 0.716376 -0.192083
C12   C     C_1   0.500137 0.500001 0.626040 -0.186704
C13   C     C_3   0.465520 0.236406 0.446420 0.173023
C14   C     C_1   0.000137 0.000002 0.626040 -0.186704
C15   C     C_1   0.000001 0.000001 0.874243 -0.187186
C16   C     C_1   0.500001 0.500000 0.874243 -0.187186
C17   C     C_3   0.540629 0.499750 0.777012 0.183963
C18   C     C_3   0.040629 0.999746 0.777012 0.183964
C19   C     C_3   0.500881 0.500001 0.709725 0.065254
C20   C     C_3   0.000881 0.000001 0.709725 0.065254
C21   C     C_3   0.000460 0.000004 0.791765 0.141766
C22   C     C_3   0.500460 0.500004 0.791765 0.141766
C23   C     C_3   0.533702 0.236409 0.513434 0.172508
C24   C     C_3   0.465311 0.763593 0.446593 0.173022
C25   C     C_3   0.533474 0.763591 0.512833 0.172480
C26   C     C_3   0.033699 0.736409 0.513427 0.172510
C27   C     C_3   0.033501 0.263591 0.512902 0.172481
C28   C     C_3   0.960741 0.000260 0.724460 -0.229705
C29   C     C_3   0.460741 0.500256 0.724460 -0.229705
C30   C     C_1   0.500397 0.500002 0.663790 -0.059146
C31   C     C_1   0.000397 0.000002 0.663790 -0.059146
C32   C     C_1   0.000136 0.000002 0.836895 -0.037894
C33   C     C_1   0.500136 0.500002 0.836895 -0.037894
C34   C     C_3   0.019232 0.965930 0.255474 0.175440
C35   C     C_3   0.965518 0.736406 0.446422 0.173024
C36   C     C_3   0.018889 0.034256 0.255133 0.175568
C37   C     C_3   0.519317 0.465987 0.255561 0.175587
C38   C     C_3   0.518804 0.534313 0.255045 0.175420
C39   C     C_3   0.479740 0.465449 0.243716 0.185196
C40   C     C_3   0.479224 0.534262 0.243196 0.185876
C41   C     C_3   0.979654 0.965485 0.243628 0.185850
C42   C     C_3   0.979309 0.034299 0.243285 0.185222
C43   C     C_1   0.499911 0.500003 0.374220 -0.187967
C44   C     C_1   0.999911 0.999997 0.374220 -0.187966
C45   C     C_1   0.999811 1.000000 0.125601 -0.186243
C46   C     C_3   0.965335 0.263593 0.446573 0.173019
C47   C     C_1   0.499811 0.500000 0.125601 -0.186243
C48   C     C_3   0.539530 0.500305 0.303685 -0.248229
C49   C     C_3   0.039530 0.000194 0.303685 -0.248229
C50   C     C_3   0.499532 0.500006 0.290999 0.061621
C51   C     C_3   0.999532 0.999992 0.290999 0.061620
C52   C     C_3   0.999116 0.999995 0.207783 0.030647
C53   C     C_3   0.499116 0.499998 0.207783 0.030647
C54   C     C_1   0.499996 0.125783 0.499997 -0.184470
C55   C     C_1   0.499996 0.874217 0.499996 -0.184460
C56   C     C_1   0.999996 0.625783 0.499997 -0.184471
C57   C     C_3   0.499212 0.264266 0.459124 -0.171745
C58   C     C_1   0.999996 0.374217 0.499997 -0.184460
C59   C     C_3   0.959297 0.999792 0.195527 0.114180
C60   C     C_3   0.459298 0.499703 0.195528 0.114179
C61   C     C_1   0.499796 0.500005 0.336655 -0.014690
C62   C     C_1   0.999796 0.999995 0.336655 -0.014689
C63   C     C_1   0.999528 0.999999 0.162761 -0.034037
C64   C     C_1   0.499528 0.499999 0.162761 -0.034037
C65   C     C_1   0.499990 0.374180 0.500002 -0.187109
C66   C     C_1   0.499990 0.625820 0.500003 -0.187101
C67   C     C_1   0.999990 0.874180 0.500003 -0.187109
C68   C     C_3   0.498768 0.735733 0.458689 -0.171753
C69   C     C_1   0.999990 0.125820 0.500003 -0.187102
C70   C     C_3   0.500761 0.236413 0.540088 0.169860
C71   C     C_3   0.501198 0.763587 0.540514 0.169865
C72   C     C_3   0.000767 0.736413 0.540093 0.169861
C73   C     C_3   0.001148 0.263587 0.540466 0.169864
C74   C     C_3   0.499995 0.208711 0.499985 0.152269
C75   C     C_3   0.499996 0.791288 0.499984 0.152266
C76   C     C_3   0.999996 0.708712 0.499985 0.152269
C77   C     C_3   0.999996 0.291288 0.499984 0.152267
C78   C     C_3   0.572168 0.220349 0.528794 -0.923198
C79   C     C_3   0.999207 0.764266 0.459119 -0.171744
C80   C     C_3   0.571682 0.779650 0.527509 -0.923169
C81   C     C_3   0.072163 0.720349 0.528780 -0.923200
C82   C     C_3   0.071738 0.279650 0.527657 -0.923173
C83   C     C_3   0.218985 0.003795 0.134736 -0.432069
C84   C     C_3   0.254326 0.005240 0.137908 -0.865671
C85   C     C_3   0.718985 0.503669 0.134730 -0.432070
C86   C     C_3   0.754326 0.505066 0.137900 -0.865669
C87   C     C_3   0.041584 0.073658 0.822246 -0.926563
C88   C     C_3   0.040639 0.925825 0.821280 -0.926344
C89   C     C_3   0.541578 0.573662 0.822240 -0.926562
C90   C     C_3   0.998819 0.235733 0.458739 -0.171751
C91   C     C_3   0.540645 0.425828 0.821287 -0.926345
C92   C     C_3   0.584693 0.499439 0.801824 -0.401244
C93   C     C_3   0.619552 0.499414 0.869583 -0.862634
C94   C     C_3   0.084693 0.999431 0.801824 -0.401245
C95   C     C_3   0.119551 0.999407 0.869583 -0.862634
C96   C     C_3   0.459207 0.425730 0.239969 -0.902666
C97   C     C_3   0.458108 0.573667 0.238881 -0.902792
C98   C     C_3   0.959033 0.925818 0.239806 -0.902828
C99   C     C_3   0.958281 0.073758 0.239044 -0.902635
C100  C     C_3   0.041995 0.927332 0.261861 -0.891118
C101  C     C_1   0.499996 0.163253 0.499991 -0.034031
C102  C     C_3   0.041262 0.073083 0.261136 -0.891138
C103  C     C_3   0.542175 0.427444 0.262049 -0.891129
C104  C     C_3   0.541081 0.573192 0.260946 -0.891129
C105  C     C_3   0.915282 0.999607 0.131958 -0.391211
C106  C     C_3   0.880335 0.999216 0.129638 -0.849987
C107  C     C_3   0.415284 0.499331 0.131960 -0.391210
C108  C     C_3   0.380335 0.499323 0.129637 -0.849985
C109  C     C_3   0.426180 0.220343 0.385304 -0.924131
C110  C     C_3   0.425733 0.779655 0.385675 -0.924101
C111  C     C_3   0.926175 0.720343 0.385309 -0.924134
C112  C     C_R   0.081369 0.500000 0.581407 0.908939
C113  C     C_1   0.499996 0.836747 0.499991 -0.034029
C114  C     C_3   0.925784 0.279655 0.385632 -0.924094
C115  C     C_3   0.501639 0.220366 0.585861 -0.919713
C116  C     C_3   0.502573 0.779635 0.586773 -0.919715
C117  C     C_3   0.001650 0.720366 0.585871 -0.919709
C118  C     C_3   0.002466 0.279635 0.586669 -0.919716
C119  C     C_3   0.779869 0.927354 0.822658 -0.931628
C120  C     C_3   0.779867 0.073221 0.821663 -0.931553
C121  C     C_3   0.279868 0.427198 0.822391 -0.931624
C122  C     C_3   0.279867 0.573067 0.821932 -0.931560
C123  C     C_1   0.999996 0.663253 0.499992 -0.034031
C124  C     C_1   0.999997 0.336747 0.499991 -0.034028
C125  C     C_1   0.499990 0.336700 0.499984 -0.039585
C126  C     C_1   0.499991 0.663300 0.499984 -0.039583
C127  C     C_1   0.999990 0.836700 0.499984 -0.039586
C128  C     C_1   0.999991 0.163300 0.499984 -0.039583
C129  C     C_3   0.763681 0.966107 0.783827 0.209018
C130  C     C_3   0.763680 0.034163 0.783363 0.208972
C131  C     C_3   0.263681 0.466033 0.783702 0.209011
C132  C     C_3   0.465660 0.264269 0.486274 -0.172387
C133  C     C_3   0.263680 0.534091 0.783488 0.208978
C134  C     C_3   0.735779 0.965284 0.716290 -0.161543
C135  C     C_3   0.735778 0.034446 0.715818 -0.161554
C136  C     C_3   0.235779 0.465356 0.716162 -0.161545
C137  C     C_3   0.235779 0.534519 0.715945 -0.161549
C138  C     C_1   0.625836 0.000000 0.625963 -0.185888
C139  C     C_1   0.125836 0.500000 0.625963 -0.185888
C140  C     C_1   0.874160 1.000000 0.874214 -0.185678
C141  C     C_1   0.374160 0.500000 0.874214 -0.185678
C142  C     C_R   0.499995 0.081355 0.500003 0.907973
C143  C     C_3   0.465892 0.735731 0.486885 -0.172375
C144  C     C_R   0.499995 0.918645 0.500003 0.907980
C145  C     C_R   0.999995 0.581355 0.500003 0.907973
C146  C     C_R   0.999995 0.418645 0.500003 0.907980
C147  C     C_3   0.735902 0.000274 0.776237 -0.180685
C148  C     C_3   0.235902 0.500126 0.776237 -0.180683
C149  C     C_3   0.708751 0.000001 0.709073 0.123346
C150  C     C_3   0.208750 0.500000 0.709072 0.123345
C151  C     C_3   0.791200 0.000000 0.791365 0.171614
C152  C     C_3   0.291200 0.500000 0.791365 0.171614
C153  C     C_3   0.763726 0.999729 0.724089 -0.246429
C154  C     C_3   0.965663 0.764269 0.486282 -0.172387
C155  C     C_3   0.263726 0.499875 0.724088 -0.246429
C156  C     C_1   0.663339 0.000001 0.663560 -0.052392
C157  C     C_1   0.163339 0.500000 0.663559 -0.052392
C158  C     C_1   0.836664 1.000000 0.836737 -0.048275
C159  C     C_1   0.336664 0.500000 0.836737 -0.048275
C160  C     C_3   0.236146 0.033578 0.257359 -0.196940
C161  C     C_3   0.236136 0.964637 0.254239 -0.197036
C162  C     C_3   0.736146 0.533610 0.257308 -0.196941
C163  C     C_3   0.736136 0.464664 0.254292 -0.197034
C164  C     C_3   0.263984 0.035496 0.245385 -0.174983
C165  C     C_3   0.965865 0.235731 0.486815 -0.172374
C166  C     C_3   0.263974 0.966309 0.242254 -0.175054
C167  C     C_3   0.763984 0.535469 0.245331 -0.174983
C168  C     C_3   0.763974 0.466277 0.242304 -0.175054
C169  C     C_1   0.374093 0.000002 0.373966 -0.186636
C170  C     C_1   0.874093 0.500002 0.373966 -0.186636
C171  C     C_1   0.125878 0.999999 0.125935 -0.185294
C172  C     C_1   0.625878 0.499999 0.125935 -0.185294
C173  C     C_R   0.418600 0.000000 0.418569 0.909600
C174  C     C_R   0.918600 0.500000 0.418569 0.909600
C175  C     C_3   0.264127 0.998211 0.303629 -0.149599
C176  C     C_3   0.499992 0.291321 0.499974 0.082189
C177  C     C_3   0.764127 0.498270 0.303631 -0.149601
C178  C     C_3   0.291114 0.000007 0.290795 0.173384
C179  C     C_3   0.791114 0.500007 0.290795 0.173384
C180  C     C_3   0.208879 0.000003 0.208718 0.145334
C181  C     C_3   0.708879 0.500002 0.208718 0.145334
C182  C     C_3   0.236201 0.001777 0.196681 0.221207
C183  C     C_3   0.736201 0.501718 0.196679 0.221207
C184  C     C_1   0.336566 0.000004 0.336341 -0.066233
C185  C     C_1   0.836566 0.500004 0.336341 -0.066233
C186  C     C_1   0.163399 0.999999 0.163403 -0.080902
C187  C     C_3   0.499992 0.708679 0.499973 0.082190
C188  C     C_1   0.663399 0.499999 0.163403 -0.080902
C189  C     C_R   0.500010 0.500000 0.581453 0.908511
C190  C     C_R   0.000010 0.000001 0.581453 0.908511
C191  C     C_R   0.499990 0.418619 0.500028 0.908452
C192  C     C_R   0.499990 0.581381 0.500028 0.908459
C193  C     C_R   0.999990 0.918619 0.500028 0.908452
C194  C     C_R   0.999990 0.081381 0.500028 0.908458
C195  C     C_R   0.499984 0.500000 0.418688 0.907759
C196  C     C_R   0.999983 1.000000 0.418688 0.907761
C197  C     C_R   0.000040 0.000000 0.081441 0.906921
C198  C     C_3   0.999992 0.791321 0.499974 0.082188
C199  C     C_R   0.500040 0.500000 0.081441 0.906921
C200  C     C_3   0.535108 0.264272 0.554533 -0.172378
C201  C     C_3   0.535320 0.735728 0.554355 -0.172376
C202  C     C_3   0.035110 0.764272 0.554531 -0.172378
C203  C     C_3   0.035296 0.235728 0.554376 -0.172376
C204  C     C_R   0.918620 1.000000 0.918669 0.907667
C205  C     C_R   0.418620 0.500000 0.918669 0.907667
C206  C     C_R   0.999926 0.000000 0.918620 0.906617
C207  C     C_R   0.499926 0.500000 0.918620 0.906617
C208  C     C_R   0.081380 1.000000 0.081460 0.909728
H1    H     H_    0.724043 0.000497 0.797111 0.141397
H2    H     H_    0.724003 0.435760 0.257334 0.144769
H3    H     H_    0.019216 0.092028 0.219843 0.246201
H4    H     H_    0.553792 0.408438 0.300460 0.242162
H5    H     H_    0.520368 0.408224 0.220995 0.246202
H6    H     H_    0.569186 0.437340 0.269476 0.243749
H7    H     H_    0.552413 0.592373 0.299068 0.242140
H8    H     H_    0.568237 0.563699 0.268517 0.243761
H9    H     H_    0.518988 0.592080 0.219603 0.246222
H10   H     H_    0.882108 0.970617 0.151081 0.262856
H11   H     H_    0.882009 0.027401 0.151578 0.263023
H12   H     H_    0.849460 0.999323 0.082511 0.244362
H13   H     H_    0.276465 0.996741 0.348542 0.139177
H14   H     H_    0.911752 0.027927 0.108401 0.207028
H15   H     H_    0.912103 0.971452 0.108463 0.207027
H16   H     H_    0.382380 0.471201 0.152004 0.263044
H17   H     H_    0.381730 0.527980 0.150647 0.262832
H18   H     H_    0.349464 0.498779 0.082515 0.244362
H19   H     H_    0.411758 0.527426 0.108092 0.206983
H20   H     H_    0.412103 0.470951 0.108779 0.207072
H21   H     H_    0.406861 0.247296 0.355290 0.246513
H22   H     H_    0.435097 0.200958 0.366718 0.247541
H23   H     H_    0.407640 0.200961 0.388944 0.245491
H24   H     H_    0.776466 0.496849 0.348547 0.139178
H25   H     H_    0.406298 0.752701 0.355759 0.246520
H26   H     H_    0.407440 0.799037 0.389767 0.245549
H27   H     H_    0.434344 0.799040 0.366686 0.247504
H28   H     H_    0.906855 0.747296 0.355295 0.246512
H29   H     H_    0.935088 0.700958 0.366718 0.247541
H30   H     H_    0.907637 0.700961 0.388953 0.245492
H31   H     H_    0.906362 0.252702 0.355704 0.246518
H32   H     H_    0.907463 0.299038 0.389672 0.245547
H33   H     H_    0.934431 0.299040 0.366689 0.247506
H34   H     H_    0.502069 0.247326 0.608327 0.244940
H35   H     H_    0.464970 0.563137 0.688546 0.151529
H36   H     H_    0.473326 0.200984 0.563531 0.247409
H37   H     H_    0.530167 0.200985 0.619396 0.247459
H38   H     H_    0.503247 0.752675 0.609479 0.244943
H39   H     H_    0.531154 0.799016 0.620045 0.247438
H40   H     H_    0.474330 0.799017 0.564826 0.247427
H41   H     H_    0.002082 0.747326 0.608341 0.244939
H42   H     H_    0.973338 0.700984 0.563547 0.247407
H43   H     H_    0.030178 0.700985 0.619404 0.247458
H44   H     H_    0.003112 0.252675 0.609347 0.244943
H45   H     H_    0.031041 0.299016 0.619972 0.247440
H46   H     H_    0.464170 0.437327 0.687744 0.151540
H47   H     H_    0.974215 0.299018 0.564678 0.247425
H48   H     H_    0.752955 0.908310 0.806930 0.244903
H49   H     H_    0.799184 0.908272 0.820201 0.248850
H50   H     H_    0.799369 0.936971 0.869418 0.245487
H51   H     H_    0.752953 0.092415 0.805674 0.244884
H52   H     H_    0.799367 0.063976 0.868552 0.245513
H53   H     H_    0.799182 0.092005 0.818948 0.248849
H54   H     H_    0.252955 0.408113 0.806592 0.244898
H55   H     H_    0.299184 0.408195 0.819864 0.248852
H56   H     H_    0.299368 0.436714 0.869186 0.245489
H57   H     H_    0.964976 0.063141 0.688552 0.151530
H58   H     H_    0.252953 0.592222 0.806012 0.244890
H59   H     H_    0.299367 0.563723 0.868786 0.245511
H60   H     H_    0.299183 0.591932 0.819286 0.248848
H61   H     H_    0.964164 0.937330 0.687739 0.151540
H62   H     H_    0.928004 0.000471 0.703603 0.154038
H63   H     H_    0.428004 0.500464 0.703603 0.154038
H64   H     H_    0.563778 0.276233 0.599077 0.146098
H65   H     H_    0.224042 0.500229 0.797112 0.141396
H66   H     H_    0.564165 0.723767 0.598755 0.146115
H67   H     H_    0.063783 0.776233 0.599073 0.146098
H68   H     H_    0.064121 0.223767 0.598792 0.146114
H69   H     H_    0.572340 0.500551 0.348340 0.159815
H70   H     H_    0.072341 0.000358 0.348341 0.159815
H71   H     H_    0.498573 0.276224 0.425766 0.145268
H72   H     H_    0.497766 0.723775 0.424977 0.145258
H73   H     H_    0.998564 0.776224 0.425757 0.145265
H74   H     H_    0.997859 0.223775 0.425067 0.145260
H75   H     H_    0.437626 0.276228 0.475084 0.146050
H76   H     H_    0.276077 0.064426 0.242314 0.135055
H77   H     H_    0.438047 0.723772 0.476194 0.146044
H78   H     H_    0.937631 0.776228 0.475097 0.146050
H79   H     H_    0.937998 0.223772 0.476067 0.146045
H80   H     H_    0.723624 0.936746 0.688237 0.143250
H81   H     H_    0.723622 0.062765 0.687378 0.143274
H82   H     H_    0.223623 0.436876 0.688005 0.143255
H83   H     H_    0.223623 0.562898 0.687609 0.143269
H84   H     H_    0.775723 0.999507 0.703409 0.151570
H85   H     H_    0.275723 0.499772 0.703408 0.151570
H86   H     H_    0.591055 0.247303 0.536331 0.246355
H87   H     H_    0.276059 0.938862 0.236631 0.135179
H88   H     H_    0.591562 0.200970 0.569719 0.245751
H89   H     H_    0.562187 0.200962 0.491634 0.247591
H90   H     H_    0.590441 0.752696 0.534709 0.246338
H91   H     H_    0.561400 0.799037 0.490160 0.247609
H92   H     H_    0.591313 0.799030 0.568456 0.245744
H93   H     H_    0.091048 0.747303 0.536312 0.246354
H94   H     H_    0.091560 0.700970 0.569705 0.245749
H95   H     H_    0.062178 0.700962 0.491617 0.247591
H96   H     H_    0.090512 0.252696 0.534895 0.246341
H97   H     H_    0.061491 0.299036 0.490329 0.247607
H98   H     H_    0.776077 0.564375 0.242217 0.135056
H99   H     H_    0.091342 0.299030 0.568601 0.245745
H100  H     H_    0.274172 0.033464 0.162786 0.258668
H101  H     H_    0.274159 0.976673 0.160215 0.258680
H102  H     H_    0.240746 0.006687 0.092240 0.252522
H103  H     H_    0.199132 0.975738 0.108978 0.209721
H104  H     H_    0.199146 0.032274 0.111540 0.209949
H105  H     H_    0.774171 0.533298 0.162735 0.258668
H106  H     H_    0.774158 0.476502 0.160249 0.258680
H107  H     H_    0.740745 0.506465 0.092230 0.252522
H108  H     H_    0.699132 0.475603 0.109015 0.209725
H109  H     H_    0.776059 0.438803 0.236722 0.135177
H110  H     H_    0.699145 0.532143 0.111491 0.209945
H111  H     H_    0.056849 0.090816 0.811368 0.244989
H112  H     H_    0.017608 0.094170 0.812974 0.247101
H113  H     H_    0.065385 0.065278 0.870078 0.243906
H114  H     H_    0.055670 0.908478 0.810158 0.244977
H115  H     H_    0.064556 0.933888 0.869220 0.243797
H116  H     H_    0.016406 0.905619 0.811754 0.247111
H117  H     H_    0.556841 0.590821 0.811360 0.244990
H118  H     H_    0.517600 0.594171 0.812966 0.247101
H119  H     H_    0.565380 0.565283 0.870072 0.243905
H120  H     H_    0.224022 0.061025 0.262910 0.144654
H121  H     H_    0.555679 0.408483 0.810167 0.244977
H122  H     H_    0.564562 0.433894 0.869226 0.243798
H123  H     H_    0.516414 0.405621 0.811763 0.247111
H124  H     H_    0.618033 0.528008 0.887760 0.262958
H125  H     H_    0.617505 0.471232 0.887768 0.263081
H126  H     H_    0.650475 0.498982 0.884500 0.247883
H127  H     H_    0.587957 0.471089 0.785075 0.208695
H128  H     H_    0.588253 0.527564 0.785108 0.208724
H129  H     H_    0.118037 0.028004 0.887759 0.262956
H130  H     H_    0.117501 0.971228 0.887769 0.263082
H131  H     H_    0.224003 0.935711 0.257237 0.144771
H132  H     H_    0.150475 0.998968 0.884500 0.247884
H133  H     H_    0.087955 0.971079 0.785075 0.208695
H134  H     H_    0.088254 0.027555 0.785107 0.208724
H135  H     H_    0.444417 0.408173 0.198959 0.244411
H136  H     H_    0.483334 0.405671 0.279281 0.245324
H137  H     H_    0.435093 0.433927 0.239517 0.240950
H138  H     H_    0.443051 0.591009 0.197612 0.244381
H139  H     H_    0.434128 0.565101 0.238569 0.241176
H140  H     H_    0.481939 0.594078 0.277895 0.245288
H141  H     H_    0.944192 0.908293 0.198752 0.244402
H142  H     H_    0.724022 0.561083 0.262819 0.144656
H143  H     H_    0.983117 0.905704 0.279070 0.245300
H144  H     H_    0.934950 0.934083 0.239393 0.241134
H145  H     H_    0.943274 0.091130 0.197817 0.244391
H146  H     H_    0.934271 0.065259 0.238694 0.240991
H147  H     H_    0.982155 0.094115 0.278105 0.245315
H148  H     H_    0.053566 0.908294 0.300222 0.242155
H149  H     H_    0.020140 0.908169 0.220757 0.246223
H150  H     H_    0.069030 0.937164 0.269311 0.243759
H151  H     H_    0.052641 0.092233 0.299307 0.242147
H152  H     H_    0.068395 0.063525 0.268684 0.243750
O1    O     O_R   0.561630 0.000000 0.596420 -0.617786
O2    O     O_R   0.965230 0.000000 0.403640 -0.617716
O3    O     O_R   0.000030 0.965220 0.061700 -0.617695
O4    O     O_R   0.000030 0.034780 0.061700 -0.617686
O5    O     O_R   0.500030 0.465220 0.061700 -0.617702
O6    O     O_R   0.500030 0.534780 0.061700 -0.617680
O7    O     O_R   0.938380 0.965210 0.938430 -0.617559
O8    O     O_R   0.938380 0.034790 0.938430 -0.617546
O9    O     O_R   0.438380 0.465210 0.938430 -0.617559
O10   O     O_R   0.438380 0.534790 0.938430 -0.617546
O11   O     O_R   0.999950 0.965200 0.938400 -0.617340
O12   O     O_R   0.061630 0.500000 0.596420 -0.617786
O13   O     O_R   0.999950 0.034800 0.938400 -0.617359
O14   O     O_R   0.499950 0.465200 0.938400 -0.617340
O15   O     O_R   0.499950 0.534800 0.938400 -0.617360
O16   O     O_R   0.061600 0.965210 0.061670 -0.617845
O17   O     O_R   0.061600 0.034790 0.061670 -0.617976
O18   O     O_R   0.561600 0.465210 0.061670 -0.617847
O19   O     O_R   0.561600 0.534790 0.061670 -0.617974
O20   O     O_R   0.561580 0.000000 0.526800 -0.617359
O21   O     O_R   0.061580 0.500000 0.526800 -0.617359
O22   O     O_R   0.500020 0.061610 0.534810 -0.617438
O23   O     O_R   0.465210 0.438380 0.465220 -0.617593
O24   O     O_R   0.500020 0.938390 0.534810 -0.617445
O25   O     O_R   0.000020 0.561610 0.534810 -0.617438
O26   O     O_R   0.000020 0.438390 0.534810 -0.617445
O27   O     O_R   0.499970 0.061600 0.465200 -0.617586
O28   O     O_R   0.499970 0.938400 0.465200 -0.617594
O29   O     O_R   0.999970 0.561600 0.465200 -0.617586
O30   O     O_R   0.999970 0.438400 0.465200 -0.617594
O31   O     O_R   0.438410 0.000000 0.473200 -0.617841
O32   O     O_R   0.938410 0.500000 0.473200 -0.617841
O33   O     O_R   0.438360 0.000000 0.403580 -0.617718
O34   O     O_R   0.465210 0.561620 0.465220 -0.617585
O35   O     O_R   0.938360 0.500000 0.403580 -0.617717
O36   O     O_R   0.534760 0.500000 0.596460 -0.620541
O37   O     O_R   0.034760 0.000000 0.596460 -0.620541
O38   O     O_R   0.465190 0.500000 0.526830 -0.616282
O39   O     O_R   0.965190 0.000000 0.526830 -0.616282
O40   O     O_R   0.534770 0.438380 0.534860 -0.617845
O41   O     O_R   0.534770 0.561620 0.534860 -0.617847
O42   O     O_R   0.034770 0.938380 0.534860 -0.617846
O43   O     O_R   0.034770 0.061620 0.534860 -0.617845
O44   O     O_R   0.965210 0.938380 0.465220 -0.617591
O45   O     O_R   0.965210 0.061620 0.465220 -0.617586
O46   O     O_R   0.534790 0.500000 0.473270 -0.617677
O47   O     O_R   0.034790 0.000000 0.473270 -0.617677
O48   O     O_R   0.465230 0.500000 0.403640 -0.617715
Zn1   Zn    Zn3+2 0.500030 0.000000 0.546480 0.962787
Zn2   Zn    Zn3+2 0.999990 0.046460 0.000050 0.961695
Zn3   Zn    Zn3+2 0.499990 0.453540 0.000050 0.961753
Zn4   Zn    Zn3+2 0.499990 0.546460 0.000050 0.961702
Zn5   Zn    Zn3+2 0.000030 0.500000 0.546480 0.962787
Zn6   Zn    Zn3+2 0.499960 0.000000 0.453520 0.962718
Zn7   Zn    Zn3+2 0.999960 0.500000 0.453520 0.962718
Zn8   Zn    Zn3+2 0.546440 0.500000 0.546540 0.960546
Zn9   Zn    Zn3+2 0.046440 0.000000 0.546540 0.960546
Zn10  Zn    Zn3+2 0.453540 0.500000 0.453560 0.962922
Zn11  Zn    Zn3+2 0.953540 0.000000 0.453560 0.962922
Zn12  Zn    Zn3+2 0.999990 0.953540 0.000050 0.961760

loop_
_geom_bond_atom_site_label_1
_geom_bond_atom_site_label_2
_ccdc_geom_bond_type
C82   H99   S    
C133  C137  S    
O15   Zn4   S    
C10   H57   S    
C90   H74   S    
C36   C42   S    
C96   H136  S    
C35   C154  S    
O25   Zn5   S    
C15   C32   T    
C92   H127  S    
C195  O46   A    
C87   H113  S    
C111  H29   S    
C114  H32   S    
C126  C187  S    
C22   C29   S    
C108  H16   S    
C53   C64   S    
C105  H14   S    
C112  O12   A    
C167  H98   S    
C27   C90   S    
C200  H64   S    
O39   Zn11  S    
O11   Zn12  S    
C2    C90   S    
C97   H138  S    
C162  C177  S    
C5    C88   S    
C9    C19   S    
C78   H89   S    
C68   C187  S    
C10   C20   S    
C87   H112  S    
C49   C51   S    
C70   C74   S    
C134  H80   S    
C133  C152  S    
C4    C18   S    
C48   C50   S    
O30   Zn7   S    
C197  O3    A    
C99   H145  S    
C122  H59   S    
C180  C182  S    
C181  C183  S    
C166  H87   S    
C11   C20   S    
C44   C196  S    
C72   C154  S    
C190  O37   A    
C207  O14   A    
C24   C110  S    
C104  H8    S    
O43   Zn9   S    
C47   C64   T    
C4    C87   S    
O41   Zn8   S    
C5    C18   S    
C120  H52   S    
O28   Zn6   S    
C69   C194  S    
O29   Zn7   S    
C109  H22   S    
C116  H39   S    
C111  H28   S    
O45   Zn11  S    
C135  H81   S    
C2    C165  S    
C60   C107  S    
O24   Zn1   S    
C74   C101  S    
C46   C90   S    
O32   Zn5   S    
C82   H97   S    
C21   C28   S    
C83   H104  S    
C26   C81   S    
C144  O28   A    
C174  O32   A    
C120  H51   S    
C127  C198  S    
C110  H27   S    
C43   C61   T    
C71   C143  S    
C151  C158  S    
C170  C174  S    
C93   H124  S    
C70   C200  S    
C193  O42   A    
C91   H123  S    
C52   C63   S    
C81   H93   S    
C46   C77   S    
C37   C103  S    
C117  H42   S    
O21   Zn7   S    
C129  C151  S    
C68   H72   S    
C70   C115  S    
C79   H73   S    
C7    C22   S    
O31   Zn1   S    
C3    O18   A    
C44   C62   T    
C97   H140  S    
O12   Zn5   S    
C77   C124  S    
C161  H131  S    
C38   C53   S    
C39   C60   S    
C170  C185  T    
C13   C132  S    
C151  C153  S    
O5    Zn3   S    
C104  H9    S    
C129  C147  S    
C15   C206  S    
O6    Zn4   S    
C118  H47   S    
O22   Zn1   S    
C132  H75   S    
C5    C21   S    
O3    Zn12  S    
C139  C157  T    
C120  H53   S    
O13   Zn2   S    
C73   C77   S    
C19   C30   S    
C41   C51   S    
C162  H142  S    
C191  O40   A    
O37   Zn9   S    
C40   C60   S    
C150  C157  S    
C163  C181  S    
C89   H117  S    
C54   C101  T    
C166  C182  S    
C14   C31   T    
C119  H48   S    
C85   H108  S    
C100  H150  S    
C122  H60   S    
C86   H107  S    
C122  C133  S    
C85   C86   S    
C102  H152  S    
C73   C203  S    
O33   Zn6   S    
C27   C203  S    
C8    C29   S    
C148  C150  S    
C25   C201  S    
C142  O27   A    
C140  C204  S    
C154  C198  S    
C102  H3    S    
C94   H134  S    
C134  C153  S    
C13   C57   S    
C95   H132  S    
C153  H84   S    
C145  O25   A    
C164  H76   S    
C43   C195  S    
C56   C145  S    
C160  C180  S    
C13   C109  S    
C140  C158  T    
C141  C159  T    
C65   C191  S    
C69   C128  T    
C7    C17   S    
C66   C192  S    
C198  C202  S    
C107  C108  S    
C75   C113  S    
O40   Zn8   S    
C38   C48   S    
C36   C52   S    
C110  H25   S    
C37   C53   S    
C98   H143  S    
C173  O33   A    
C152  C159  S    
C79   C198  S    
C193  O44   A    
C47   C199  S    
C194  O43   A    
C91   H121  S    
C51   C62   S    
O9    Zn3   S    
C81   H95   S    
O10   Zn4   S    
C84   H101  S    
C53   C60   S    
C82   H96   S    
O19   Zn4   S    
O42   Zn9   S    
C35   C76   S    
C8    C19   S    
O17   Zn2   S    
C96   H137  S    
C29   H63   S    
C199  O6    A    
C162  C181  S    
C73   C165  S    
C131  C136  S    
C136  C155  S    
C46   C165  S    
C134  C149  S    
C23   C200  S    
C66   C126  T    
C161  C180  S    
C207  O15   A    
C169  C184  T    
C118  H45   S    
C121  H54   S    
C83   C84   S    
C103  H6    S    
C168  C183  S    
C119  H50   S    
C70   C132  S    
C175  H13   S    
O14   Zn3   S    
O2    Zn11  S    
C88   H115  S    
C180  C186  S    
C116  H38   S    
C89   H119  S    
C160  C175  S    
C137  C150  S    
C23   C74   S    
C189  O38   A    
C164  C178  S    
C122  H58   S    
C86   H105  S    
C72   C202  S    
C23   C57   S    
C6    C17   S    
C34   C49   S    
C73   C118  S    
C130  C147  S    
O44   Zn11  S    
C27   C82   S    
C2    C203  S    
C174  O35   A    
C42   C59   S    
C96   H135  S    
C92   H128  S    
C203  H68   S    
C165  H79   S    
C163  C168  S    
C136  H82   S    
C35   C79   S    
C119  C129  S    
C3    O19   A    
C71   C116  S    
C154  H78   S    
C141  C205  S    
O35   Zn7   S    
C115  H36   S    
C14   C190  S    
C98   H141  S    
C160  H120  S    
C50   C61   S    
C169  C173  S    
C125  C176  S    
C2    C128  S    
C106  H12   S    
C25   C80   S    
O18   Zn3   S    
C130  C135  S    
C16   C207  S    
C177  H24   S    
C48   H69   S    
C12   C189  S    
C34   C41   S    
C59   C105  S    
C204  O7    A    
C160  C164  S    
C147  C149  S    
C5    C11   S    
C121  H56   S    
C3    C172  S    
C108  H17   S    
C6    C22   S    
C71   C201  S    
C132  C176  S    
C80   H91   S    
C109  H21   S    
C181  C188  S    
C116  H40   S    
C142  O22   A    
C163  C177  S    
C34   C100  S    
C208  O16   A    
C166  C178  S    
C1    O20   A    
C83   H103  S    
C85   C183  S    
O8    Zn2   S    
C11   H61   S    
C131  C152  S    
C25   C68   S    
C176  C200  S    
C84   H102  S    
C163  H2    S    
C175  C178  S    
C145  O29   A    
C146  O26   A    
C111  H30   S    
C168  H109  S    
C28   H62   S    
C40   C97   S    
C84   H100  S    
C117  H41   S    
C6    C8    S    
C8    H35   S    
C105  H15   S    
C1    O1    A    
C25   C75   S    
O27   Zn6   S    
C56   C123  T    
C115  H34   S    
C78   H88   S    
C152  C155  S    
C7    C91   S    
O34   Zn10  S    
C196  O47   A    
C106  H10   S    
C197  O4    A    
C167  C179  S    
C143  H77   S    
C192  O41   A    
C106  H11   S    
C99   H146  S    
C88   H114  S    
C206  O13   A    
C100  H148  S    
C10   C28   S    
C171  C186  T    
C12   C30   T    
C104  H7    S    
C24   C75   S    
C179  C185  S    
C168  C179  S    
C105  C106  S    
C187  C201  S    
C34   C52   S    
C26   C79   S    
C37   C39   S    
C192  O34   A    
C38   C40   S    
C109  H23   S    
C11   C28   S    
C40   C50   S    
C95   H130  S    
C92   C93   S    
C23   C78   S    
C94   C95   S    
C164  C182  S    
C24   C68   S    
C129  C134  S    
O4    Zn2   S    
C13   C74   S    
C130  C151  S    
C148  H65   S    
C24   C143  S    
C147  H1    S    
C45   C197  S    
C121  H55   S    
C36   C49   S    
C110  H26   S    
C114  H31   S    
C115  H37   S    
C98   H144  S    
C9    H46   S    
C72   C76   S    
C81   H94   S    
C97   H139  S    
C117  H43   S    
C137  C155  S    
C112  O21   A    
O46   Zn8   S    
C155  H85   S    
O26   Zn5   S    
C120  C130  S    
C199  O5    A    
C26   C202  S    
C149  C156  S    
C161  C175  S    
C173  O31   A    
C95   H129  S    
C194  O45   A    
C36   C102  S    
C137  H83   S    
C38   C104  S    
C85   H110  S    
C167  C183  S    
C72   C117  S    
C26   C76   S    
C103  H5    S    
C206  O11   A    
C119  H49   S    
C80   H90   S    
C201  H66   S    
C89   H118  S    
C112  C139  S    
C17   C92   S    
C121  C131  S    
C100  H149  S    
O1    Zn1   S    
C86   H106  S    
C102  H151  S    
C21   C32   S    
C191  O23   A    
C46   C114  S    
C41   C59   S    
O16   Zn12  S    
C94   H133  S    
C55   C113  T    
O47   Zn9   S    
C195  O48   A    
C135  C149  S    
C45   C63   T    
C205  O10   A    
C83   C182  S    
C107  H19   S    
C65   C125  T    
C189  O36   A    
C52   C59   S    
C67   C127  T    
C16   C33   T    
C57   C176  S    
C107  H20   S    
C114  H33   S    
C131  C148  S    
C133  C148  S    
C37   C48   S    
C196  O2    A    
C205  O9    A    
C93   H126  S    
C57   H71   S    
C87   H111  S    
C146  O30   A    
O23   Zn10  S    
C208  O17   A    
C18   C94   S    
C91   H122  S    
C4    C10   S    
C35   C111  S    
C138  C156  T    
C7    C9    S    
C22   C33   S    
C88   H116  S    
C55   C144  S    
C54   C142  S    
C76   C123  S    
C143  C187  S    
C99   H147  S    
O7    Zn12  S    
C161  C166  S    
C27   C77   S    
C103  H4    S    
O38   Zn10  S    
C136  C150  S    
C58   C146  S    
C9    C29   S    
C6    C89   S    
C42   C51   S    
C58   C124  T    
C135  C153  S    
C190  O39   A    
C204  O8    A    
C93   H125  S    
C118  H44   S    
C42   C99   S    
O36   Zn8   S    
C71   C75   S    
C4    C21   S    
C144  O24   A    
C108  H18   S    
C49   H70   S    
C172  C188  T    
C17   C19   S    
C78   H86   S    
C177  C179  S    
C18   C20   S    
C178  C184  S    
C39   C96   S    
C80   H92   S    
C162  C167  S    
C202  H67   S    
C39   C50   S    
C41   C98   S    
C171  C208  S    
C67   C193  S    
O48   Zn10  S    
C1    C138  S    
O20   Zn6   S    
C20   C31   S    
