data_mof_unit_30349.cif
_audit_creation_date              2012-12-10T19:09:37-0500
_audit_creation_method            fapswitch 2.2
_symmetry_space_group_name_H-M    P1
_symmetry_Int_Tables_number       1
_space_group_crystal_system       triclinic
_cell_length_a                    9.53619
_cell_length_b                    10.826746
_cell_length_c                    17.060156
_cell_angle_alpha                 89.258724
_cell_angle_beta                  93.776052
_cell_angle_gamma                 90.195043
_cell_volume                      1757.41460047

loop_
_atom_site_label
_atom_site_type_symbol
_atom_type_description
_atom_site_fract_x
_atom_site_fract_y
_atom_site_fract_z
_atom_type_partial_charge
C1    C     C_R   0.499946 0.262294 0.501550 0.787792
C2    C     C_R   0.654258 0.474702 0.780044 -0.221645
C3    C     C_R   0.531673 0.420648 0.138612 -0.208727
C4    C     C_R   0.539803 0.409970 0.220527 0.114780
C5    C     C_R   0.456172 0.517566 0.099548 0.299505
C6    C     C_R   0.471947 0.499559 0.263912 -0.097624
C7    C     C_R   0.391761 0.592601 0.225188 -0.285982
C8    C     C_R   0.381957 0.601996 0.143255 0.152352
C9    C     C_R   0.626525 0.064012 0.511316 0.122802
C10   C     C_R   0.500308 0.129128 0.509437 -0.097996
C11   C     C_R   0.374664 0.063670 0.518400 -0.218680
C12   C     C_R   0.517246 0.498375 0.651008 0.795441
C13   C     C_R   0.374820 0.934890 0.518100 -0.221516
C14   C     C_R   0.500613 0.870767 0.508802 -0.100130
C15   C     C_R   0.626630 0.936854 0.510782 0.136947
C16   C     C_3   0.743320 0.932854 0.456655 -0.483834
C17   C     C_3   0.743976 0.072919 0.457798 -0.466146
C18   C     C_R   0.070112 0.595214 0.465698 0.259975
C19   C     C_R   0.078866 0.412556 0.540413 -0.083891
C20   C     C_R   0.929909 0.412472 0.540359 -0.083915
C21   C     C_R   0.922734 0.595497 0.465877 0.259072
C22   C     C_3   0.907824 0.636129 0.381812 -0.504909
C23   C     C_R   0.500185 0.737745 0.501193 0.799878
C24   C     C_3   0.066904 0.635292 0.381718 -0.514918
C25   C     C_R   0.482607 0.499281 0.349452 0.802327
C26   C     C_R   0.525908 0.496929 0.737160 -0.026775
C27   C     C_R   0.404229 0.516237 0.777243 -0.237548
C28   C     C_R   0.410472 0.513450 0.858809 -0.166167
C29   C     C_R   0.539285 0.490996 0.901998 0.382182
C30   C     C_R   0.660314 0.470984 0.861933 -0.197859
Cu1   Cu    Cu3+1 0.640670 0.499980 0.500000 0.939385
Cu2   Cu    Cu3+1 0.359330 0.500020 0.500000 0.935844
H1    H     H_    0.275800 0.886370 0.521329 0.162934
H2    H     H_    0.840424 0.891231 0.485232 0.196698
H3    H     H_    0.708778 0.895112 0.398207 0.191489
H4    H     H_    0.840978 0.112268 0.487553 0.194977
H5    H     H_    0.711291 0.115779 0.399971 0.200083
H6    H     H_    0.138151 0.340485 0.571930 0.135808
H7    H     H_    0.877514 0.340328 0.571824 0.137163
H8    H     H_    0.856650 0.565964 0.342776 0.219515
H9    H     H_    0.862878 0.730115 0.374267 0.189981
H10   H     H_    0.106868 0.563633 0.342844 0.223225
H11   H     H_    0.581387 0.350880 0.104983 0.165903
H12   H     H_    0.113070 0.728858 0.374568 0.191016
H13   H     H_    0.759683 0.452700 0.894396 0.138646
H14   H     H_    0.749459 0.458833 0.750409 0.156590
H15   H     H_    0.338199 0.659698 0.259171 0.155432
H16   H     H_    0.314208 0.527553 0.887752 0.151915
H17   H     H_    0.303804 0.533481 0.745635 0.161326
H18   H     H_    0.275593 0.111325 0.521762 0.159981
N1    N     N_2   0.550444 0.484252 0.985217 -0.265136
N2    N     N_2   0.446961 0.527404 0.016459 -0.268327
N3    N     N_R   0.147870 0.500930 0.499500 -0.182976
N4    N     N_R   0.851960 0.500890 0.499500 -0.182091
O1    O     O_R   0.618810 0.319640 0.500000 -0.583962
O2    O     O_R   0.381230 0.319680 0.499990 -0.587095
O3    O     O_R   0.631790 0.498830 0.613930 -0.584536
O4    O     O_R   0.394210 0.498870 0.613920 -0.585203
O5    O     O_R   0.618770 0.680320 0.500010 -0.575903
O6    O     O_R   0.381190 0.680360 0.500000 -0.586643
O7    O     O_R   0.605790 0.501130 0.386080 -0.573328
O8    O     O_R   0.368210 0.501170 0.386070 -0.579842
C31   C     C_3   0.611058 0.297069 0.258447 -0.402110
C32   C     C_3   0.769758 0.300062 0.251389 -0.806828
H19   H     H_    0.795049 0.302447 0.188787 0.244289
H20   H     H_    0.816330 0.382086 0.281278 0.255241
H21   H     H_    0.817796 0.215980 0.279592 0.232944
H22   H     H_    0.589938 0.287098 0.321353 0.198444
H23   H     H_    0.567169 0.212875 0.229259 0.192511
C33   C     C_3   0.293897 0.704470 0.104388 -0.400683
C34   C     C_3   0.137403 0.677479 0.108992 -0.824420
H24   H     H_    0.109430 0.589271 0.079203 0.255954
H25   H     H_    0.109743 0.671133 0.171171 0.251625
H26   H     H_    0.075067 0.753095 0.079315 0.241174
H27   H     H_    0.320265 0.793226 0.133995 0.194799
H28   H     H_    0.315790 0.717609 0.041713 0.219402

loop_
_geom_bond_atom_site_label_1
_geom_bond_atom_site_label_2
_ccdc_geom_bond_type
C18   C21   A    
C24   H10   S    
Cu1   O7    S    
C30   H13   S    
C19   C20   A    
Cu2   O4    S    
C7    C8    A    
C2    H14   S    
C23   O5    A    
C4    C31   S    
C3    H11   S    
C26   C27   A    
C18   C24   S    
C28   C29   A    
C1    O2    A    
C16   H3    S    
C21   N4    A    
C22   H9    S    
C15   C16   S    
Cu1   O5    S    
C18   N3    A    
C16   H2    S    
C31   H23   S    
C16   C17   S    
C5    N2    S    
C33   C34   S    
C17   H4    S    
C9    C10   A    
C12   O4    A    
C19   N3    A    
C13   C14   A    
C23   O6    A    
N1    N2    D    
C32   H21   S    
C20   N4    A    
C34   H25   S    
C20   H7    S    
C17   H5    S    
C12   C26   S    
C7    H15   S    
C14   C23   S    
C13   H1    S    
C29   C30   A    
C19   H6    S    
C5    C8    A    
Cu1   Cu2   S    
C22   H8    S    
C2    C26   A    
C25   O7    A    
C12   O3    A    
C9    C17   S    
C33   H28   S    
C24   H12   S    
C22   C24   S    
C4    C6    A    
Cu2   O6    S    
C3    C4    A    
Cu2   N3    S    
C33   H27   S    
C29   N1    S    
C31   H22   S    
C28   H16   S    
C1    C10   S    
C3    C5    A    
C34   H26   S    
C6    C7    A    
C8    C33   S    
C2    C30   A    
C32   H19   S    
Cu1   O3    S    
C9    C15   A    
Cu2   O8    S    
C34   H24   S    
C11   H18   S    
C11   C13   A    
C25   O8    A    
Cu1   N4    S    
C1    O1    A    
C10   C11   A    
C31   C32   S    
C6    C25   S    
C27   C28   A    
C14   C15   A    
Cu1   O1    S    
C21   C22   S    
Cu2   O2    S    
C27   H17   S    
C32   H20   S    
