data_mof_unit_37837.cif
_audit_creation_date              2012-12-10T22:16:24-0500
_audit_creation_method            fapswitch 2.2
_symmetry_space_group_name_H-M    P1
_symmetry_Int_Tables_number       1
_space_group_crystal_system       triclinic
_cell_length_a                    27.398226
_cell_length_b                    27.355528
_cell_length_c                    27.450973
_cell_angle_alpha                 90.059194
_cell_angle_beta                  90.036445
_cell_angle_gamma                 89.996493
_cell_volume                      20574.2952383

loop_
_atom_site_label
_atom_site_type_symbol
_atom_type_description
_atom_site_fract_x
_atom_site_fract_y
_atom_site_fract_z
_atom_type_partial_charge
C1    C     C_R   0.572160 0.296249 0.296225 0.852519
C2    C     C_R   0.428741 0.296996 0.297241 0.859913
C3    C     C_R   0.179179 0.885359 0.321891 -0.156697
C4    C     C_R   0.321868 0.114077 0.821624 -0.158968
C5    C     C_R   0.679411 0.884252 0.179428 -0.161385
C6    C     C_R   0.178412 0.114402 0.321505 -0.156748
C7    C     C_R   0.821879 0.884527 0.679168 -0.155996
C8    C     C_R   0.679430 0.884213 0.820529 -0.161192
C9    C     C_R   0.321712 0.114609 0.178988 -0.158207
C10   C     C_R   0.819161 0.883520 0.319650 -0.160508
C11   C     C_R   0.179001 0.115417 0.678756 -0.162593
C12   C     C_R   0.320223 0.884414 0.179851 -0.155135
C13   C     C_R   0.703872 0.703792 0.427833 0.848498
C14   C     C_R   0.679181 0.115427 0.821218 -0.156283
C15   C     C_R   0.179131 0.884190 0.679419 -0.162079
C16   C     C_R   0.821559 0.114393 0.321259 -0.158914
C17   C     C_R   0.882591 0.818005 0.681819 -0.159542
C18   C     C_R   0.114574 0.178651 0.321356 -0.157404
C19   C     C_R   0.884432 0.320967 0.821155 -0.163169
C20   C     C_R   0.114589 0.678863 0.178413 -0.158313
C21   C     C_R   0.885390 0.178137 0.320910 -0.157446
C22   C     C_R   0.114388 0.821154 0.677931 -0.157153
C23   C     C_R   0.885897 0.677978 0.178240 -0.158036
C24   C     C_R   0.296002 0.296048 0.572269 0.846955
C25   C     C_R   0.115701 0.320778 0.820695 -0.162160
C26   C     C_R   0.114685 0.179169 0.678651 -0.157694
C27   C     C_R   0.884375 0.820827 0.321088 -0.161643
C28   C     C_R   0.115478 0.679686 0.820327 -0.156305
C29   C     C_R   0.884589 0.320328 0.179655 -0.156283
C30   C     C_R   0.115664 0.821049 0.320876 -0.162284
C31   C     C_R   0.885835 0.177697 0.677972 -0.159192
C32   C     C_R   0.114132 0.321622 0.177512 -0.158592
C33   C     C_R   0.885650 0.677810 0.821334 -0.157317
C34   C     C_R   0.179572 0.320228 0.884553 -0.159008
C35   C     C_R   0.428141 0.703497 0.296319 0.861573
C36   C     C_R   0.819892 0.680012 0.116404 -0.157918
C37   C     C_R   0.679352 0.179559 0.884520 -0.155444
C38   C     C_R   0.320771 0.821130 0.115095 -0.160470
C39   C     C_R   0.821932 0.678573 0.885359 -0.162584
C40   C     C_R   0.179142 0.320732 0.115045 -0.155505
C41   C     C_R   0.322358 0.822446 0.886271 -0.158114
C42   C     C_R   0.679282 0.180084 0.115598 -0.158625
C43   C     C_R   0.822137 0.321648 0.114290 -0.155971
C44   C     C_R   0.178692 0.679099 0.885092 -0.160279
C45   C     C_R   0.321172 0.178082 0.114766 -0.160830
C46   C     C_R   0.571642 0.296673 0.703178 0.857126
C47   C     C_R   0.677047 0.822392 0.886520 -0.155187
C48   C     C_R   0.177618 0.677810 0.113647 -0.157309
C49   C     C_R   0.820046 0.320985 0.884594 -0.157796
C50   C     C_R   0.679794 0.820452 0.115481 -0.158275
C51   C     C_R   0.319845 0.180148 0.883531 -0.157560
C52   C     C_R   0.178841 0.615068 0.178557 -0.159455
C53   C     C_R   0.819650 0.384066 0.820173 -0.158941
C54   C     C_R   0.821328 0.614573 0.178614 -0.158849
C55   C     C_R   0.179298 0.385036 0.821801 -0.159006
C56   C     C_R   0.821960 0.613836 0.822140 -0.157960
C57   C     C_R   0.296595 0.703213 0.571791 0.849560
C58   C     C_R   0.178918 0.384831 0.178920 -0.162035
C59   C     C_R   0.178924 0.615307 0.820751 -0.156468
C60   C     C_R   0.822409 0.386026 0.178105 -0.160378
C61   C     C_R   0.384673 0.821073 0.179313 -0.157578
C62   C     C_R   0.612573 0.176640 0.823186 -0.161997
C63   C     C_R   0.386112 0.822146 0.822243 -0.160132
C64   C     C_R   0.616374 0.180655 0.180210 -0.158824
C65   C     C_R   0.384990 0.178913 0.821182 -0.157418
C66   C     C_R   0.615071 0.820766 0.178335 -0.159733
C67   C     C_R   0.385926 0.178066 0.177994 -0.158870
C68   C     C_R   0.703002 0.297036 0.428765 0.858160
C69   C     C_R   0.617772 0.818371 0.818462 -0.157241
C70   C     C_R   0.179458 0.821046 0.385061 -0.158916
C71   C     C_R   0.819709 0.179527 0.616066 -0.158235
C72   C     C_R   0.178490 0.178559 0.385485 -0.158018
C73   C     C_R   0.821795 0.820827 0.615260 -0.163170
C74   C     C_R   0.821403 0.179055 0.384612 -0.161990
C75   C     C_R   0.179069 0.820425 0.615141 -0.158345
C76   C     C_R   0.819669 0.820451 0.384111 -0.155908
C77   C     C_R   0.177802 0.178625 0.614248 -0.157151
C78   C     C_R   0.678475 0.614411 0.677978 -0.160128
C79   C     C_R   0.703807 0.427795 0.703831 0.855645
C80   C     C_R   0.322338 0.386306 0.322481 -0.158943
C81   C     C_R   0.320143 0.616201 0.680507 -0.158348
C82   C     C_R   0.678880 0.385011 0.321381 -0.159841
C83   C     C_R   0.319555 0.616637 0.319194 -0.160566
C84   C     C_R   0.680361 0.383515 0.680204 -0.159499
C85   C     C_R   0.678613 0.614634 0.321687 -0.160968
C86   C     C_R   0.320881 0.385380 0.678122 -0.154603
C87   C     C_R   0.385186 0.321532 0.678242 -0.162677
C88   C     C_R   0.614373 0.678594 0.322024 -0.157264
C89   C     C_R   0.385792 0.321641 0.322492 -0.159335
C90   C     C_R   0.296105 0.572211 0.296107 0.857434
C91   C     C_R   0.614014 0.677799 0.678262 -0.155911
C92   C     C_R   0.384140 0.679732 0.319725 -0.157967
C93   C     C_R   0.615263 0.320856 0.678900 -0.160847
C94   C     C_R   0.383246 0.680800 0.680849 -0.160234
C95   C     C_R   0.616190 0.319873 0.320136 -0.159123
C96   C     C_R   0.678600 0.321457 0.385582 -0.156625
C97   C     C_R   0.320676 0.679216 0.615717 -0.161573
C98   C     C_R   0.679987 0.679985 0.384092 -0.156745
C99   C     C_R   0.319349 0.319767 0.616205 -0.155909
C100  C     C_R   0.321119 0.679203 0.384413 -0.161371
C101  C     C_R   0.703016 0.571423 0.296883 0.848669
C102  C     C_R   0.678699 0.321204 0.614655 -0.157597
C103  C     C_R   0.321558 0.322075 0.385939 -0.158404
C104  C     C_R   0.677839 0.678730 0.614500 -0.161569
C105  C     C_R   0.697608 0.135623 0.135010 -0.064649
C106  C     C_R   0.303362 0.866284 0.866190 -0.077717
C107  C     C_R   0.866647 0.132669 0.695269 -0.073844
C108  C     C_R   0.135546 0.865202 0.302662 -0.067231
C109  C     C_R   0.300831 0.136038 0.863231 -0.080532
C110  C     C_R   0.700521 0.862310 0.137273 -0.088142
C111  C     C_R   0.135899 0.135736 0.300865 -0.088508
C112  C     C_R   0.427748 0.703974 0.703919 0.855595
C113  C     C_R   0.296768 0.428574 0.703057 0.858391
C114  C     C_R   0.860458 0.859632 0.703308 -0.102300
C115  C     C_R   0.693371 0.868104 0.867848 -0.074447
C116  C     C_R   0.301947 0.134806 0.135622 -0.070426
C117  C     C_R   0.862305 0.862999 0.300150 -0.083284
C118  C     C_R   0.136774 0.137510 0.699633 -0.086544
C119  C     C_R   0.299218 0.862803 0.137626 -0.089788
C120  C     C_R   0.702289 0.139685 0.860846 -0.101137
C121  C     C_R   0.134646 0.864707 0.697332 -0.067407
C122  C     C_R   0.865425 0.134359 0.302028 -0.079340
C123  C     C_R   0.864653 0.302946 0.865363 -0.063637
C124  C     C_R   0.296387 0.572034 0.703836 0.859179
C125  C     C_R   0.133986 0.697097 0.133846 -0.075001
C126  C     C_R   0.863910 0.699099 0.136712 -0.081812
C127  C     C_R   0.137675 0.299538 0.862778 -0.087210
C128  C     C_R   0.136844 0.700509 0.862773 -0.088023
C129  C     C_R   0.863031 0.299494 0.137054 -0.091597
C130  C     C_R   0.134149 0.302729 0.133867 -0.076702
C131  C     C_R   0.865587 0.697285 0.864860 -0.068696
C132  C     C_R   0.197248 0.634371 0.134293 -0.077005
C133  C     C_R   0.799162 0.362928 0.863054 -0.086417
C134  C     C_R   0.866533 0.633153 0.195949 -0.071687
C135  C     C_R   0.703266 0.428445 0.296894 0.853725
C136  C     C_R   0.135614 0.364994 0.802551 -0.067499
C137  C     C_R   0.802369 0.634924 0.865270 -0.068109
C138  C     C_R   0.201326 0.361407 0.138298 -0.096400
C139  C     C_R   0.137227 0.637252 0.799377 -0.091696
C140  C     C_R   0.863193 0.362780 0.200475 -0.090645
C141  C     C_R   0.198308 0.364500 0.865244 -0.067266
C142  C     C_R   0.798432 0.638516 0.138581 -0.094192
C143  C     C_R   0.862345 0.363096 0.800194 -0.084272
C144  C     C_R   0.136596 0.637190 0.199395 -0.086211
C145  C     C_R   0.804948 0.367013 0.133186 -0.071352
C146  C     C_R   0.297356 0.429021 0.297278 0.859502
C147  C     C_R   0.197952 0.635573 0.864797 -0.078702
C148  C     C_R   0.134202 0.365431 0.196550 -0.063020
C149  C     C_R   0.865735 0.633910 0.802709 -0.080565
C150  C     C_R   0.362780 0.862859 0.200697 -0.091379
C151  C     C_R   0.632662 0.132341 0.805142 -0.061545
C152  C     C_R   0.365806 0.802765 0.865681 -0.075927
C153  C     C_R   0.637279 0.200923 0.137083 -0.085455
C154  C     C_R   0.366386 0.133676 0.803746 -0.073401
C155  C     C_R   0.635428 0.864291 0.197846 -0.070702
C156  C     C_R   0.365120 0.197215 0.134543 -0.066630
C157  C     C_R   0.703063 0.571292 0.702852 0.862517
C158  C     C_R   0.636516 0.800082 0.863401 -0.095877
C159  C     C_R   0.637821 0.138384 0.200709 -0.086763
C160  C     C_R   0.365818 0.865946 0.802833 -0.080474
C161  C     C_R   0.633688 0.196679 0.866051 -0.072944
C162  C     C_R   0.364383 0.801959 0.135271 -0.077306
C163  C     C_R   0.644427 0.855937 0.794482 -0.074650
C164  C     C_R   0.365456 0.134650 0.197826 -0.081061
C165  C     C_R   0.635492 0.801843 0.134764 -0.065841
C166  C     C_R   0.361198 0.201729 0.861305 -0.095365
C167  C     C_R   0.137590 0.800169 0.363164 -0.085150
C168  C     C_R   0.071790 0.796829 0.296636 0.852101
C169  C     C_R   0.863734 0.198740 0.636511 -0.082127
C170  C     C_R   0.198800 0.135690 0.364424 -0.087286
C171  C     C_R   0.809695 0.868848 0.631233 -0.053332
C172  C     C_R   0.865183 0.197708 0.364354 -0.067871
C173  C     C_R   0.134387 0.802142 0.634288 -0.078072
C174  C     C_R   0.797941 0.861517 0.361669 -0.088276
C175  C     C_R   0.197135 0.134984 0.634495 -0.068352
C176  C     C_R   0.860706 0.796972 0.639519 -0.094818
C177  C     C_R   0.135938 0.199401 0.363840 -0.087627
C178  C     C_R   0.798121 0.137734 0.637954 -0.090622
C179  C     C_R   0.928856 0.202707 0.702821 0.859840
C180  C     C_R   0.198396 0.865240 0.365367 -0.077327
C181  C     C_R   0.134115 0.197695 0.634254 -0.077159
C182  C     C_R   0.864501 0.802639 0.365195 -0.065744
C183  C     C_R   0.200683 0.861501 0.637848 -0.088025
C184  C     C_R   0.801509 0.135755 0.363817 -0.076604
C185  C     C_R   0.697438 0.635129 0.634573 -0.069599
C186  C     C_R   0.302614 0.365890 0.365886 -0.079783
C187  C     C_R   0.361088 0.638761 0.702143 -0.088981
C188  C     C_R   0.637761 0.361927 0.299464 -0.087675
C189  C     C_R   0.300201 0.636950 0.362430 -0.083349
C190  C     C_R   0.703593 0.796555 0.071775 0.858948
C191  C     C_R   0.700005 0.362638 0.636802 -0.084447
C192  C     C_R   0.633535 0.633647 0.304453 -0.063615
C193  C     C_R   0.366349 0.366871 0.694962 -0.062112
C194  C     C_R   0.696643 0.366157 0.366156 -0.073422
C195  C     C_R   0.302327 0.635139 0.635766 -0.065387
C196  C     C_R   0.365988 0.365753 0.303669 -0.069719
C197  C     C_R   0.634749 0.634398 0.697321 -0.074332
C198  C     C_R   0.298471 0.362382 0.637624 -0.095101
C199  C     C_R   0.701397 0.638259 0.362008 -0.093408
C200  C     C_R   0.638362 0.361968 0.700916 -0.086476
C201  C     C_R   0.296158 0.203850 0.927689 0.849182
C202  C     C_R   0.361478 0.638859 0.297901 -0.089437
C203  C     C_R   0.364990 0.302220 0.365708 -0.070361
C204  C     C_R   0.633869 0.697206 0.634596 -0.063773
C205  C     C_R   0.362862 0.700408 0.637636 -0.082101
C206  C     C_R   0.637021 0.300140 0.363547 -0.083954
C207  C     C_R   0.636225 0.699714 0.363721 -0.085084
C208  C     C_R   0.361280 0.298647 0.638193 -0.091502
C209  C     C_R   0.634055 0.303216 0.634025 -0.074648
C210  C     C_R   0.365250 0.697525 0.364535 -0.063474
C211  C     C_R   0.726951 0.105480 0.101908 0.168361
C212  C     C_R   0.927299 0.795522 0.704496 0.849863
C213  C     C_R   0.704526 0.089373 0.058801 -0.212066
C214  C     C_R   0.732934 0.072560 0.020415 -0.128208
C215  C     C_R   0.783787 0.071005 0.024926 -0.101144
C216  C     C_R   0.806176 0.086999 0.067425 -0.190319
C217  C     C_R   0.777974 0.104462 0.106060 -0.035346
C218  C     C_R   0.272464 0.897935 0.896737 0.184277
C219  C     C_R   0.221785 0.898410 0.890446 -0.013029
C220  C     C_R   0.194265 0.937485 0.908601 -0.172687
C221  C     C_R   0.217176 0.974596 0.934892 -0.122613
C222  C     C_R   0.267252 0.971757 0.944694 -0.152677
C223  C     C_R   0.703037 0.296949 0.571317 0.857319
C224  C     C_R   0.071647 0.203351 0.296678 0.844092
C225  C     C_R   0.294931 0.933870 0.925266 -0.190069
C226  C     C_R   0.898601 0.101708 0.725260 0.176743
C227  C     C_R   0.934114 0.073046 0.702410 -0.187523
C228  C     C_R   0.971495 0.052467 0.729888 -0.150389
C229  C     C_R   0.974277 0.061478 0.780045 -0.124075
C230  C     C_R   0.937663 0.088114 0.803203 -0.173664
C231  C     C_R   0.899170 0.107371 0.775864 -0.006539
C232  C     C_R   0.105330 0.898437 0.273669 0.169891
C233  C     C_R   0.088877 0.941178 0.296637 -0.216666
C234  C     C_R   0.071511 0.979766 0.268879 -0.132394
C235  C     C_R   0.297225 0.797306 0.928917 0.856877
C236  C     C_R   0.070325 0.976104 0.218019 -0.097600
C237  C     C_R   0.086886 0.933966 0.195049 -0.189736
C238  C     C_R   0.104339 0.894866 0.222728 -0.034196
C239  C     C_R   0.264589 0.108963 0.891756 0.213938
C240  C     C_R   0.280716 0.089910 0.935949 -0.187154
C241  C     C_R   0.248461 0.088058 0.974673 -0.113221
C242  C     C_R   0.199055 0.097815 0.968521 -0.080875
C243  C     C_R   0.181999 0.111062 0.923026 -0.183474
C244  C     C_R   0.214574 0.117443 0.884302 -0.051285
C245  C     C_R   0.736876 0.890764 0.110214 0.216716
C246  C     C_R   0.703411 0.203634 0.071816 0.858051
C247  C     C_R   0.720650 0.934616 0.090108 -0.175172
C248  C     C_R   0.752716 0.973599 0.087497 -0.115797
C249  C     C_R   0.802092 0.967837 0.097709 -0.084245
C250  C     C_R   0.819286 0.922489 0.111826 -0.177507
C251  C     C_R   0.786873 0.883575 0.118799 -0.053546
C252  C     C_R   0.114226 0.114971 0.255946 0.198165
C253  C     C_R   0.134823 0.126407 0.210531 -0.055173
C254  C     C_R   0.108484 0.117435 0.168023 -0.147549
C255  C     C_R   0.060389 0.101798 0.170136 -0.152646
C256  C     C_R   0.039533 0.092094 0.215153 -0.115409
C257  C     C_R   0.071368 0.203185 0.703115 0.863088
C258  C     C_R   0.067309 0.094556 0.257729 -0.118625
C259  C     C_R   0.880269 0.880511 0.748916 0.206330
C260  C     C_R   0.867822 0.860501 0.794221 -0.075332
C261  C     C_R   0.878315 0.886649 0.836703 -0.146153
C262  C     C_R   0.897709 0.933415 0.834469 -0.152267
C263  C     C_R   0.909207 0.953237 0.789471 -0.123835
C264  C     C_R   0.904323 0.925656 0.747069 -0.091410
C265  C     C_R   0.722903 0.899472 0.899755 0.172516
C266  C     C_R   0.699830 0.927590 0.935496 -0.193207
C267  C     C_R   0.727359 0.948478 0.972693 -0.148862
C268  C     C_R   0.928305 0.796720 0.296881 0.852957
C269  C     C_R   0.777719 0.939994 0.975199 -0.122869
C270  C     C_R   0.801013 0.913614 0.938534 -0.176635
C271  C     C_R   0.773649 0.894333 0.900130 -0.005732
C272  C     C_R   0.271807 0.101871 0.106039 0.172679
C273  C     C_R   0.220809 0.106397 0.105346 -0.035576
C274  C     C_R   0.192272 0.068107 0.087281 -0.191514
C275  C     C_R   0.214347 0.025780 0.070006 -0.100251
C276  C     C_R   0.265169 0.020992 0.071260 -0.128121
C277  C     C_R   0.293848 0.058714 0.089255 -0.211948
C278  C     C_R   0.890826 0.890287 0.264035 0.215426
C279  C     C_R   0.703413 0.203478 0.928198 0.852782
C280  C     C_R   0.934661 0.910301 0.280326 -0.185321
C281  C     C_R   0.973631 0.912832 0.248385 -0.117379
C282  C     C_R   0.968003 0.902585 0.199106 -0.082280
C283  C     C_R   0.922770 0.888327 0.181857 -0.180000
C284  C     C_R   0.883809 0.881513 0.214108 -0.050028
C285  C     C_R   0.109983 0.109296 0.736279 0.214441
C286  C     C_R   0.089504 0.065472 0.720415 -0.176957
C287  C     C_R   0.086879 0.026703 0.752601 -0.118021
C288  C     C_R   0.097499 0.032608 0.801765 -0.084234
C289  C     C_R   0.112292 0.077890 0.818588 -0.175951
C290  C     C_R   0.296657 0.796672 0.071689 0.848594
C291  C     C_R   0.119201 0.116630 0.786054 -0.051218
C292  C     C_R   0.254051 0.883308 0.116312 0.200577
C293  C     C_R   0.208541 0.872004 0.136844 -0.062159
C294  C     C_R   0.165956 0.882594 0.111088 -0.145901
C295  C     C_R   0.168105 0.899987 0.063697 -0.153993
C296  C     C_R   0.213247 0.909834 0.043039 -0.120835
C297  C     C_R   0.255955 0.905384 0.070328 -0.104542
C298  C     C_R   0.748047 0.119052 0.880705 0.202326
C299  C     C_R   0.793389 0.139579 0.868840 -0.073000
C300  C     C_R   0.836068 0.113865 0.879718 -0.144835
C301  C     C_R   0.928531 0.203000 0.296649 0.856968
C302  C     C_R   0.834053 0.066800 0.898311 -0.154925
C303  C     C_R   0.789028 0.046382 0.908997 -0.123121
C304  C     C_R   0.746383 0.073693 0.904326 -0.091548
C305  C     C_R   0.101784 0.894656 0.727217 0.170063
C306  C     C_R   0.106360 0.895416 0.778127 -0.033309
C307  C     C_R   0.067958 0.912923 0.806685 -0.190021
C308  C     C_R   0.025214 0.929048 0.784795 -0.101303
C309  C     C_R   0.020260 0.927647 0.734082 -0.128263
C310  C     C_R   0.058409 0.910884 0.705319 -0.213774
C311  C     C_R   0.896130 0.102572 0.271384 0.188283
C312  C     C_R   0.071356 0.796792 0.702934 0.857178
C313  C     C_R   0.889797 0.101784 0.220799 -0.017427
C314  C     C_R   0.907753 0.062438 0.193542 -0.176008
C315  C     C_R   0.934065 0.025443 0.216579 -0.120290
C316  C     C_R   0.943831 0.028519 0.266580 -0.151693
C317  C     C_R   0.924519 0.066650 0.294009 -0.194091
C318  C     C_R   0.895008 0.274400 0.898729 0.165892
C319  C     C_R   0.910911 0.297435 0.941536 -0.212938
C320  C     C_R   0.927671 0.269491 0.980246 -0.132352
C321  C     C_R   0.928873 0.218434 0.976486 -0.099205
C322  C     C_R   0.913062 0.195487 0.934150 -0.187670
C323  C     C_R   0.296767 0.202932 0.071504 0.853456
C324  C     C_R   0.896281 0.223405 0.895032 -0.035853
C325  C     C_R   0.102188 0.727872 0.103351 0.184536
C326  C     C_R   0.066270 0.705259 0.074961 -0.190784
C327  C     C_R   0.028388 0.732912 0.055523 -0.151888
C328  C     C_R   0.025564 0.783109 0.065169 -0.122314
C329  C     C_R   0.062589 0.806138 0.091436 -0.174620
C330  C     C_R   0.101619 0.778643 0.109611 -0.014836
C331  C     C_R   0.890921 0.735451 0.108235 0.213258
C332  C     C_R   0.882595 0.785558 0.115808 -0.050963
C333  C     C_R   0.889301 0.818266 0.077217 -0.181909
C334  C     C_R   0.296908 0.703272 0.428314 0.851115
C335  C     C_R   0.702534 0.797438 0.929132 0.853940
C336  C     C_R   0.902700 0.801258 0.031715 -0.083594
C337  C     C_R   0.912328 0.751768 0.025461 -0.113724
C338  C     C_R   0.910065 0.719351 0.064055 -0.184784
C339  C     C_R   0.109168 0.263225 0.889878 0.217349
C340  C     C_R   0.116155 0.213103 0.881390 -0.052027
C341  C     C_R   0.077290 0.180732 0.888826 -0.177918
C342  C     C_R   0.032201 0.198080 0.903445 -0.086507
C343  C     C_R   0.026647 0.247567 0.913499 -0.117667
C344  C     C_R   0.065546 0.279641 0.910222 -0.179344
C345  C     C_R   0.116225 0.745577 0.884279 0.200412
C346  C     C_R   0.202672 0.702742 0.070977 0.857014
C347  C     C_R   0.094818 0.743628 0.930592 -0.109983
C348  C     C_R   0.091291 0.786302 0.958226 -0.119471
C349  C     C_R   0.101331 0.831521 0.937682 -0.152291
C350  C     C_R   0.118048 0.833717 0.890049 -0.146935
C351  C     C_R   0.127657 0.791139 0.863860 -0.060972
C352  C     C_R   0.884518 0.254459 0.116240 0.200770
C353  C     C_R   0.931082 0.256467 0.095137 -0.111911
C354  C     C_R   0.958902 0.213856 0.092103 -0.118350
C355  C     C_R   0.938165 0.168591 0.101610 -0.155085
C356  C     C_R   0.890208 0.166303 0.117593 -0.148117
C357  C     C_R   0.796406 0.296667 0.928242 0.857209
C358  C     C_R   0.863942 0.208845 0.127273 -0.061509
C359  C     C_R   0.103612 0.271751 0.102256 0.187057
C360  C     C_R   0.075079 0.294122 0.066372 -0.191416
C361  C     C_R   0.055532 0.266224 0.028734 -0.151354
C362  C     C_R   0.065263 0.216020 0.026096 -0.121518
C363  C     C_R   0.091749 0.193249 0.063065 -0.175640
C364  C     C_R   0.109953 0.220976 0.101894 -0.016480
C365  C     C_R   0.898782 0.726688 0.894690 0.167910
C366  C     C_R   0.894505 0.777636 0.895700 -0.036233
C367  C     C_R   0.933150 0.806105 0.912983 -0.187706
C368  C     C_R   0.203239 0.928179 0.703438 0.854137
C369  C     C_R   0.975486 0.783743 0.929747 -0.100256
C370  C     C_R   0.979840 0.732757 0.928670 -0.130429
C371  C     C_R   0.941830 0.704279 0.911027 -0.213377
C372  C     C_R   0.228262 0.603720 0.102859 0.192750
C373  C     C_R   0.279060 0.609888 0.102629 -0.024663
C374  C     C_R   0.306390 0.592536 0.063252 -0.173658
C375  C     C_R   0.283553 0.566806 0.025914 -0.118044
C376  C     C_R   0.233415 0.557478 0.028010 -0.152115
C377  C     C_R   0.205739 0.576186 0.066156 -0.191920
C378  C     C_R   0.762421 0.391345 0.890183 0.210841
C379  C     C_R   0.797005 0.071208 0.296987 0.862274
C380  C     C_R   0.712416 0.380057 0.886892 -0.042360
C381  C     C_R   0.677845 0.415663 0.898799 -0.186014
C382  C     C_R   0.692512 0.463517 0.906444 -0.115635
C383  C     C_R   0.742063 0.473852 0.910225 -0.096770
C384  C     C_R   0.776796 0.437135 0.907486 -0.176992
C385  C     C_R   0.898300 0.602322 0.226351 0.179788
C386  C     C_R   0.898838 0.608462 0.276954 -0.012305
C387  C     C_R   0.937875 0.590311 0.304355 -0.176216
C388  C     C_R   0.974854 0.563966 0.281395 -0.121354
C389  C     C_R   0.972009 0.554313 0.231352 -0.150738
C390  C     C_R   0.203470 0.296405 0.928220 0.859015
C391  C     C_R   0.934220 0.573960 0.203762 -0.194567
C392  C     C_R   0.105424 0.398301 0.773551 0.170529
C393  C     C_R   0.104306 0.394616 0.722615 -0.034088
C394  C     C_R   0.086717 0.433615 0.694897 -0.190278
C395  C     C_R   0.070364 0.475853 0.717772 -0.098540
C396  C     C_R   0.071842 0.479761 0.768600 -0.131378
C397  C     C_R   0.089090 0.441154 0.796442 -0.215735
C398  C     C_R   0.771668 0.605447 0.897891 0.168233
C399  C     C_R   0.720611 0.605315 0.893258 -0.035121
C400  C     C_R   0.691841 0.586347 0.930815 -0.189395
C401  C     C_R   0.796152 0.703795 0.072296 0.848855
C402  C     C_R   0.713620 0.568405 0.972884 -0.105485
C403  C     C_R   0.764462 0.568782 0.977706 -0.131902
C404  C     C_R   0.793432 0.587123 0.940446 -0.208969
C405  C     C_R   0.246221 0.382740 0.117802 0.203631
C406  C     C_R   0.291853 0.362869 0.129482 -0.067299
C407  C     C_R   0.334053 0.388897 0.118120 -0.146390
C408  C     C_R   0.331348 0.435737 0.098977 -0.155354
C409  C     C_R   0.285949 0.455672 0.088619 -0.122285
C410  C     C_R   0.243606 0.428101 0.094352 -0.094645
C411  C     C_R   0.115742 0.616341 0.754446 0.200443
C412  C     C_R   0.203224 0.071558 0.296699 0.843260
C413  C     C_R   0.136381 0.627302 0.708963 -0.060850
C414  C     C_R   0.110277 0.617205 0.666518 -0.147730
C415  C     C_R   0.062324 0.601134 0.668776 -0.154702
C416  C     C_R   0.041534 0.591765 0.713887 -0.117457
C417  C     C_R   0.069282 0.594954 0.756400 -0.110254
C418  C     C_R   0.883480 0.384051 0.245805 0.200757
C419  C     C_R   0.872045 0.363224 0.291091 -0.060198
C420  C     C_R   0.881746 0.389228 0.333743 -0.147184
C421  C     C_R   0.898328 0.437081 0.331867 -0.154864
C422  C     C_R   0.908266 0.458020 0.286963 -0.118725
C423  C     C_R   0.797038 0.928457 0.702952 0.858370
C424  C     C_R   0.904961 0.430536 0.244275 -0.109051
C425  C     C_R   0.228167 0.394416 0.898171 0.164985
C426  C     C_R   0.206056 0.412373 0.940703 -0.207141
C427  C     C_R   0.234770 0.431110 0.978066 -0.130730
C428  C     C_R   0.285666 0.431738 0.973513 -0.105055
C429  C     C_R   0.307724 0.413848 0.931553 -0.188350
C430  C     C_R   0.279123 0.395065 0.893724 -0.037811
C431  C     C_R   0.753389 0.617396 0.118018 0.203606
C432  C     C_R   0.755870 0.572151 0.094286 -0.093630
C433  C     C_R   0.713472 0.544737 0.088276 -0.123668
C434  C     C_R   0.797079 0.297042 0.071315 0.850312
C435  C     C_R   0.668119 0.564620 0.098858 -0.155222
C436  C     C_R   0.665474 0.611306 0.118440 -0.145815
C437  C     C_R   0.707771 0.637291 0.129854 -0.068186
C438  C     C_R   0.890768 0.390232 0.763890 0.215715
C439  C     C_R   0.934580 0.410415 0.780056 -0.182487
C440  C     C_R   0.973531 0.412860 0.748089 -0.117572
C441  C     C_R   0.967867 0.402355 0.698856 -0.082418
C442  C     C_R   0.922622 0.387999 0.681698 -0.178305
C443  C     C_R   0.883697 0.381257 0.714006 -0.050835
C444  C     C_R   0.109867 0.609092 0.236223 0.215011
C445  C     C_R   0.428534 0.297069 0.703067 0.847616
C446  C     C_R   0.203293 0.703289 0.928370 0.848214
C447  C     C_R   0.089723 0.565020 0.220612 -0.180143
C448  C     C_R   0.087395 0.526396 0.253016 -0.117905
C449  C     C_R   0.097937 0.532602 0.302140 -0.084517
C450  C     C_R   0.112378 0.578094 0.318723 -0.177421
C451  C     C_R   0.119038 0.616725 0.285982 -0.051436
C452  C     C_R   0.774160 0.397475 0.101573 0.185020
C453  C     C_R   0.723366 0.391554 0.101768 -0.020416
C454  C     C_R   0.695708 0.408971 0.062711 -0.174012
C455  C     C_R   0.718344 0.434483 0.025210 -0.117321
C456  C     C_R   0.768569 0.443545 0.026854 -0.150847
C457  C     C_R   0.796975 0.071226 0.703051 0.849273
C458  C     C_R   0.796550 0.424644 0.064671 -0.192534
C459  C     C_R   0.235144 0.607420 0.891441 0.203832
C460  C     C_R   0.221556 0.561213 0.908002 -0.185614
C461  C     C_R   0.256861 0.525042 0.910265 -0.095182
C462  C     C_R   0.306240 0.536016 0.906169 -0.112941
C463  C     C_R   0.320214 0.583990 0.898208 -0.185748
C464  C     C_R   0.285021 0.619187 0.887191 -0.036074
C465  C     C_R   0.101225 0.395264 0.226251 0.167359
C466  C     C_R   0.105361 0.395832 0.277202 -0.034201
C467  C     C_R   0.066678 0.413189 0.305483 -0.190968
C468  C     C_R   0.203325 0.928555 0.296984 0.856808
C469  C     C_R   0.024212 0.429621 0.283185 -0.098699
C470  C     C_R   0.019876 0.428589 0.232380 -0.130713
C471  C     C_R   0.058142 0.411613 0.203983 -0.217145
C472  C     C_R   0.896664 0.602015 0.772428 0.186652
C473  C     C_R   0.925306 0.566484 0.795359 -0.193193
C474  C     C_R   0.945283 0.528528 0.768155 -0.152392
C475  C     C_R   0.935841 0.525211 0.718118 -0.121788
C476  C     C_R   0.909226 0.561781 0.694820 -0.175363
C477  C     C_R   0.890670 0.600991 0.721841 -0.014200
C478  C     C_R   0.383794 0.884509 0.245595 0.201374
C479  C     C_R   0.797077 0.703161 0.928536 0.855635
C480  C     C_R   0.404937 0.931178 0.243674 -0.115124
C481  C     C_R   0.408021 0.958923 0.286266 -0.117463
C482  C     C_R   0.399143 0.937873 0.331378 -0.161496
C483  C     C_R   0.383868 0.889599 0.333614 -0.152872
C484  C     C_R   0.373395 0.863622 0.291132 -0.059466
C485  C     C_R   0.601702 0.096898 0.778801 0.160618
C486  C     C_R   0.591930 0.052273 0.802185 -0.187640
C487  C     C_R   0.582170 0.010749 0.774621 -0.120018
C488  C     C_R   0.575537 0.014737 0.724364 -0.092629
C489  C     C_R   0.580410 0.059832 0.701414 -0.161603
C490  C     C_R   0.203313 0.296674 0.071601 0.856383
C491  C     C_R   0.595822 0.100314 0.728173 -0.022263
C492  C     C_R   0.396016 0.771363 0.897127 0.193662
C493  C     C_R   0.423110 0.793688 0.934267 -0.194954
C494  C     C_R   0.441038 0.765819 0.972632 -0.152754
C495  C     C_R   0.431450 0.715635 0.974480 -0.116194
C496  C     C_R   0.406153 0.692982 0.936729 -0.175732
C497  C     C_R   0.389578 0.720513 0.897138 -0.029918
C498  C     C_R   0.608576 0.237267 0.109684 0.209907
C499  C     C_R   0.563011 0.222245 0.092519 -0.179107
C500  C     C_R   0.526043 0.256641 0.089379 -0.095328
C501  C     C_R   0.796182 0.927916 0.296207 0.857766
C502  C     C_R   0.535929 0.306409 0.092542 -0.114797
C503  C     C_R   0.583583 0.321659 0.099815 -0.186289
C504  C     C_R   0.619416 0.287529 0.112313 -0.040953
C505  C     C_R   0.398206 0.102364 0.774012 0.174815
C506  C     C_R   0.432914 0.073038 0.797107 -0.188483
C507  C     C_R   0.462650 0.042632 0.769509 -0.094235
C508  C     C_R   0.457812 0.041135 0.718795 -0.089984
C509  C     C_R   0.423296 0.070364 0.695661 -0.176470
C510  C     C_R   0.393853 0.101541 0.723251 0.000513
C511  C     C_R   0.602697 0.894428 0.227579 0.183992
C512  C     C_R   0.203314 0.071716 0.703161 0.855185
C513  C     C_R   0.560535 0.912211 0.204707 -0.217161
C514  C     C_R   0.520772 0.926544 0.232529 -0.136747
C515  C     C_R   0.523406 0.924926 0.283417 -0.094956
C516  C     C_R   0.565243 0.907834 0.306301 -0.187683
C517  C     C_R   0.605166 0.892571 0.278613 -0.034642
C518  C     C_R   0.394783 0.227308 0.101651 0.164535
C519  C     C_R   0.412740 0.205198 0.059108 -0.208660
C520  C     C_R   0.431315 0.233957 0.021771 -0.132764
C521  C     C_R   0.431908 0.284911 0.026411 -0.104960
C522  C     C_R   0.414066 0.306987 0.068378 -0.187037
C523  C     C_R   0.296276 0.928028 0.203703 0.845209
C524  C     C_R   0.395316 0.278361 0.106140 -0.034888
C525  C     C_R   0.614533 0.755775 0.884590 0.201115
C526  C     C_R   0.568298 0.758707 0.906064 -0.108347
C527  C     C_R   0.540256 0.716399 0.910381 -0.118503
C528  C     C_R   0.560260 0.670763 0.900732 -0.154954
C529  C     C_R   0.607742 0.667733 0.883456 -0.148969
C530  C     C_R   0.634308 0.709864 0.873263 -0.058844
C531  C     C_R   0.611595 0.110886 0.238474 0.213843
C532  C     C_R   0.623099 0.117589 0.287942 -0.051468
C533  C     C_R   0.616014 0.078847 0.320570 -0.158670
C534  C     C_R   0.703600 0.072036 0.796458 0.856846
C535  C     C_R   0.597359 0.034609 0.304496 -0.092752
C536  C     C_R   0.584331 0.029564 0.255894 -0.127648
C537  C     C_R   0.588576 0.068021 0.223407 -0.164120
C538  C     C_R   0.397391 0.895447 0.770754 0.188339
C539  C     C_R   0.393966 0.890707 0.719925 -0.037764
C540  C     C_R   0.433945 0.903025 0.690675 -0.151476
C541  C     C_R   0.476934 0.919535 0.711834 -0.095452
C542  C     C_R   0.479688 0.925808 0.762154 -0.124001
C543  C     C_R   0.439650 0.915528 0.791446 -0.163381
C544  C     C_R   0.603482 0.227579 0.897885 0.190198
C545  C     C_R   0.071275 0.296939 0.202803 0.856654
C546  C     C_R   0.609231 0.278473 0.897762 -0.023730
C547  C     C_R   0.591448 0.306088 0.936728 -0.175754
C548  C     C_R   0.565793 0.283343 0.974055 -0.117767
C549  C     C_R   0.557075 0.232991 0.972429 -0.149976
C550  C     C_R   0.576237 0.205055 0.934674 -0.189792
C551  C     C_R   0.392625 0.764817 0.108534 0.203685
C552  C     C_R   0.438839 0.778528 0.092225 -0.187706
C553  C     C_R   0.475017 0.743210 0.089911 -0.094040
C554  C     C_R   0.464093 0.693729 0.093731 -0.113361
C555  C     C_R   0.416148 0.679649 0.101393 -0.187646
C556  C     C_R   0.571285 0.703021 0.297084 0.860161
C557  C     C_R   0.928597 0.702901 0.796760 0.854996
C558  C     C_R   0.380927 0.714819 0.112491 -0.036362
C559  C     C_R   0.643780 0.859689 0.740549 0.168608
C560  C     C_R   0.683791 0.841527 0.714209 -0.180222
C561  C     C_R   0.689843 0.853982 0.665306 -0.119190
C562  C     C_R   0.655777 0.883970 0.642044 -0.119379
C563  C     C_R   0.615016 0.900598 0.667411 -0.175899
C564  C     C_R   0.609317 0.889073 0.716677 -0.018610
C565  C     C_R   0.396834 0.104137 0.229036 0.190054
C566  C     C_R   0.432555 0.075142 0.206887 -0.190610
C567  C     C_R   0.470226 0.055666 0.234705 -0.154670
C568  C     C_R   0.703379 0.071763 0.203219 0.852695
C569  C     C_R   0.473061 0.065869 0.284652 -0.120394
C570  C     C_R   0.436238 0.092774 0.307227 -0.171932
C571  C     C_R   0.397298 0.110907 0.279601 -0.016886
C572  C     C_R   0.605422 0.772419 0.101651 0.164734
C573  C     C_R   0.604710 0.721358 0.105492 -0.038668
C574  C     C_R   0.586020 0.693165 0.067284 -0.188810
C575  C     C_R   0.567978 0.715823 0.025674 -0.103178
C576  C     C_R   0.568409 0.766874 0.021898 -0.133448
C577  C     C_R   0.587326 0.795120 0.059526 -0.208785
C578  C     C_R   0.382404 0.246755 0.881892 0.203725
C579  C     C_R   0.297345 0.929059 0.797250 0.861761
C580  C     C_R   0.362797 0.292467 0.869831 -0.069372
C581  C     C_R   0.389075 0.334731 0.880795 -0.146721
C582  C     C_R   0.435710 0.331926 0.900317 -0.153569
C583  C     C_R   0.455294 0.286445 0.911161 -0.123157
C584  C     C_R   0.427595 0.244130 0.905564 -0.093589
C585  C     C_R   0.109117 0.763755 0.390119 0.214902
C586  C     C_R   0.065378 0.780013 0.410310 -0.180678
C587  C     C_R   0.026587 0.747808 0.413380 -0.117161
C588  C     C_R   0.032379 0.698326 0.403406 -0.085700
C589  C     C_R   0.077579 0.681143 0.388968 -0.178315
C590  C     C_R   0.928899 0.702785 0.202888 0.861708
C591  C     C_R   0.116300 0.713667 0.381574 -0.050428
C592  C     C_R   0.890784 0.235173 0.608184 0.212081
C593  C     C_R   0.910183 0.219123 0.564098 -0.183848
C594  C     C_R   0.912590 0.251549 0.525529 -0.115007
C595  C     C_R   0.902763 0.301008 0.531731 -0.083262
C596  C     C_R   0.889093 0.317979 0.577168 -0.180396
C597  C     C_R   0.882329 0.285265 0.615745 -0.050484
C598  C     C_R   0.243450 0.113723 0.385355 0.198046
C599  C     C_R   0.289076 0.134083 0.374052 -0.053951
C600  C     C_R   0.331433 0.107380 0.382781 -0.147576
C601  C     C_R   0.071777 0.296775 0.796589 0.853194
C602  C     C_R   0.328995 0.059189 0.398203 -0.151589
C603  C     C_R   0.283744 0.038598 0.407899 -0.115288
C604  C     C_R   0.241268 0.066661 0.405433 -0.123212
C605  C     C_R   0.814196 0.906555 0.593634 0.143362
C606  C     C_R   0.861255 0.922588 0.580612 -0.179474
C607  C     C_R   0.867387 0.956477 0.543268 -0.157268
C608  C     C_R   0.826658 0.974582 0.518906 -0.147235
C609  C     C_R   0.779903 0.959019 0.532294 -0.171893
C610  C     C_R   0.773557 0.924995 0.569405 -0.081241
C611  C     C_R   0.898350 0.227036 0.394365 0.170732
C612  C     C_R   0.703445 0.928143 0.796627 0.857014
C613  C     C_R   0.941276 0.204337 0.410652 -0.214398
C614  C     C_R   0.979601 0.232519 0.428050 -0.130093
C615  C     C_R   0.975512 0.283508 0.429407 -0.098822
C616  C     C_R   0.933214 0.306194 0.412971 -0.190689
C617  C     C_R   0.894387 0.278090 0.395483 -0.036792
C618  C     C_R   0.103652 0.771547 0.602502 0.186877
C619  C     C_R   0.075162 0.794275 0.566792 -0.188211
C620  C     C_R   0.055338 0.766674 0.529076 -0.151081
C621  C     C_R   0.064629 0.716405 0.526287 -0.123451
C622  C     C_R   0.090983 0.693293 0.563116 -0.173411
C623  C     C_R   0.296928 0.071493 0.203368 0.857580
C624  C     C_R   0.109677 0.720762 0.601879 -0.013232
C625  C     C_R   0.759638 0.888686 0.387671 0.202029
C626  C     C_R   0.774550 0.929746 0.413889 -0.133434
C627  C     C_R   0.741683 0.967325 0.422218 -0.132180
C628  C     C_R   0.693182 0.963430 0.408264 -0.105428
C629  C     C_R   0.677623 0.921520 0.384368 -0.144580
C630  C     C_R   0.710267 0.883204 0.374833 -0.051930
C631  C     C_R   0.226404 0.104506 0.601597 0.175799
C632  C     C_R   0.203595 0.087201 0.559290 -0.212570
C633  C     C_R   0.231591 0.071052 0.520412 -0.137577
C634  C     C_R   0.928302 0.296740 0.796888 0.853060
C635  C     C_R   0.282609 0.070773 0.523823 -0.102069
C636  C     C_R   0.305391 0.086466 0.566324 -0.188944
C637  C     C_R   0.277399 0.103728 0.605257 -0.031157
C638  C     C_R   0.882089 0.752187 0.618431 0.206429
C639  C     C_R   0.862346 0.706302 0.629495 -0.072013
C640  C     C_R   0.888906 0.664224 0.618456 -0.147240
C641  C     C_R   0.936173 0.667346 0.600649 -0.153388
C642  C     C_R   0.955846 0.712981 0.590724 -0.123381
C643  C     C_R   0.927624 0.755098 0.595427 -0.098058
C644  C     C_R   0.115566 0.244790 0.385091 0.197785
C645  C     C_R   0.071361 0.703118 0.203050 0.861894
C646  C     C_R   0.094719 0.243545 0.431714 -0.112441
C647  C     C_R   0.091578 0.286648 0.458767 -0.117565
C648  C     C_R   0.101176 0.331575 0.437379 -0.155338
C649  C     C_R   0.117273 0.333088 0.389510 -0.146730
C650  C     C_R   0.126904 0.290115 0.363989 -0.057653
C651  C     C_R   0.751862 0.117021 0.618303 0.195487
C652  C     C_R   0.706898 0.137261 0.632197 -0.066285
C653  C     C_R   0.663688 0.111592 0.623143 -0.144254
C654  C     C_R   0.664776 0.065280 0.602379 -0.155229
C655  C     C_R   0.709143 0.044632 0.589425 -0.119594
C656  C     C_R   0.297209 0.071041 0.797103 0.858158
C657  C     C_R   0.752464 0.071203 0.594949 -0.108186
C658  C     C_R   0.229471 0.895765 0.396942 0.187901
C659  C     C_R   0.280184 0.889278 0.397339 -0.020216
C660  C     C_R   0.307774 0.906918 0.436530 -0.173531
C661  C     C_R   0.284990 0.932859 0.473878 -0.119398
C662  C     C_R   0.234837 0.942569 0.471380 -0.154003
C663  C     C_R   0.207095 0.923767 0.433289 -0.191999
C664  C     C_R   0.102269 0.228231 0.603551 0.186538
C665  C     C_R   0.101339 0.278980 0.609818 -0.015512
C666  C     C_R   0.062203 0.306224 0.591501 -0.175384
C667  C     C_R   0.296854 0.297087 0.428702 0.856883
C668  C     C_R   0.703319 0.928197 0.203465 0.853769
C669  C     C_R   0.025511 0.282987 0.564954 -0.122443
C670  C     C_R   0.028718 0.232821 0.555259 -0.151302
C671  C     C_R   0.066662 0.205395 0.574928 -0.190825
C672  C     C_R   0.894630 0.773573 0.398437 0.164366
C673  C     C_R   0.895773 0.722533 0.394302 -0.034603
C674  C     C_R   0.913069 0.694303 0.432969 -0.188335
C675  C     C_R   0.929218 0.716816 0.475377 -0.102215
C676  C     C_R   0.927739 0.767793 0.479809 -0.128487
C677  C     C_R   0.910640 0.796153 0.441494 -0.209046
C678  C     C_R   0.239232 0.888406 0.612312 0.214605
C679  C     C_R   0.071948 0.703680 0.796348 0.845084
C680  C     C_R   0.288527 0.880953 0.624313 -0.053937
C681  C     C_R   0.321880 0.919081 0.617278 -0.155972
C682  C     C_R   0.306597 0.963591 0.598658 -0.094801
C683  C     C_R   0.257996 0.969491 0.585530 -0.129039
C684  C     C_R   0.224945 0.931428 0.589216 -0.162011
C685  C     C_R   0.769482 0.106657 0.395224 0.199329
C686  C     C_R   0.790488 0.088121 0.437776 -0.213468
C687  C     C_R   0.761291 0.078476 0.477780 -0.135821
C688  C     C_R   0.710646 0.083090 0.474587 -0.093158
C689  C     C_R   0.689345 0.098898 0.431549 -0.180227
C690  C     C_R   0.928009 0.296314 0.203749 0.845703
C691  C     C_R   0.718561 0.111024 0.391600 -0.038630
C692  C     C_R   0.726780 0.605142 0.601359 0.170560
C693  C     C_R   0.704141 0.588870 0.558415 -0.213722
C694  C     C_R   0.732319 0.571802 0.520007 -0.131418
C695  C     C_R   0.783214 0.570480 0.524181 -0.099841
C696  C     C_R   0.805814 0.586704 0.566502 -0.189250
C697  C     C_R   0.777767 0.604070 0.605322 -0.036692
C698  C     C_R   0.271454 0.397439 0.396304 0.187963
C699  C     C_R   0.220791 0.397856 0.389757 -0.013551
C700  C     C_R   0.193093 0.436707 0.408129 -0.173470
C701  C     C_R   0.573192 0.795359 0.795217 0.854603
C702  C     C_R   0.215784 0.473646 0.434869 -0.123007
C703  C     C_R   0.265845 0.470886 0.444804 -0.151737
C704  C     C_R   0.293703 0.433230 0.425187 -0.191055
C705  C     C_R   0.387661 0.613444 0.741252 0.216587
C706  C     C_R   0.378677 0.625173 0.790293 -0.057584
C707  C     C_R   0.415998 0.619016 0.824656 -0.158488
C708  C     C_R   0.461539 0.602033 0.810646 -0.100666
C709  C     C_R   0.469429 0.589951 0.762216 -0.122579
C710  C     C_R   0.432073 0.592306 0.728114 -0.160898
C711  C     C_R   0.613486 0.387434 0.259079 0.212262
C712  C     C_R   0.428912 0.202835 0.202754 0.856280
C713  C     C_R   0.626212 0.376472 0.210742 -0.054473
C714  C     C_R   0.620564 0.412286 0.174854 -0.149745
C715  C     C_R   0.602790 0.458277 0.186499 -0.107198
C716  C     C_R   0.589845 0.468234 0.234307 -0.125120
C717  C     C_R   0.592146 0.432426 0.270057 -0.157923
C718  C     C_R   0.264252 0.609477 0.391016 0.215258
C719  C     C_R   0.214180 0.618024 0.384202 -0.049832
C720  C     C_R   0.182018 0.611060 0.423182 -0.179811
C721  C     C_R   0.199519 0.596793 0.468220 -0.081313
C722  C     C_R   0.248957 0.586753 0.473681 -0.116747
C723  C     C_R   0.203246 0.796675 0.571551 0.863616
C724  C     C_R   0.280809 0.589501 0.434678 -0.185439
C725  C     C_R   0.736491 0.391012 0.609905 0.214978
C726  C     C_R   0.786461 0.383580 0.618584 -0.051967
C727  C     C_R   0.819103 0.422282 0.611538 -0.178450
C728  C     C_R   0.802182 0.467656 0.597212 -0.086107
C729  C     C_R   0.752835 0.473662 0.587109 -0.115965
C730  C     C_R   0.720488 0.434947 0.589900 -0.179149
C731  C     C_R   0.600843 0.603205 0.274919 0.167839
C732  C     C_R   0.560943 0.581360 0.298002 -0.212739
C733  C     C_R   0.522292 0.563667 0.270376 -0.148473
C734  C     C_R   0.796905 0.203308 0.428283 0.856614
C735  C     C_R   0.522796 0.568331 0.219491 -0.104724
C736  C     C_R   0.562909 0.589240 0.196334 -0.184413
C737  C     C_R   0.602266 0.606247 0.224046 -0.024076
C738  C     C_R   0.396774 0.399810 0.724119 0.163897
C739  C     C_R   0.394452 0.398148 0.775009 -0.023738
C740  C     C_R   0.411950 0.437340 0.802681 -0.186123
C741  C     C_R   0.432698 0.477507 0.779435 -0.103032
C742  C     C_R   0.436341 0.478402 0.728458 -0.146952
C743  C     C_R   0.417959 0.439997 0.700878 -0.213881
C744  C     C_R   0.727151 0.397078 0.397838 0.182188
C745  C     C_R   0.428149 0.796616 0.203519 0.845874
C746  C     C_R   0.704535 0.425465 0.433719 -0.191627
C747  C     C_R   0.732201 0.445256 0.471397 -0.150479
C748  C     C_R   0.782376 0.435855 0.474081 -0.122663
C749  C     C_R   0.805374 0.409574 0.437101 -0.175021
C750  C     C_R   0.777868 0.391089 0.398294 -0.011730
C751  C     C_R   0.273360 0.601721 0.605692 0.168527
C752  C     C_R   0.222340 0.605515 0.604499 -0.034396
C753  C     C_R   0.194478 0.566600 0.586871 -0.189856
C754  C     C_R   0.217305 0.524370 0.570425 -0.099313
C755  C     C_R   0.268213 0.520283 0.572112 -0.130202
C756  C     C_R   0.570433 0.202175 0.797698 0.853720
C757  C     C_R   0.296206 0.558779 0.589569 -0.211492
C758  C     C_R   0.398824 0.396003 0.274179 0.170462
C759  C     C_R   0.439137 0.417201 0.297329 -0.214231
C760  C     C_R   0.477664 0.435043 0.269717 -0.146426
C761  C     C_R   0.476556 0.431396 0.218775 -0.103260
C762  C     C_R   0.436233 0.410826 0.195604 -0.185726
C763  C     C_R   0.397090 0.393433 0.223320 -0.024447
C764  C     C_R   0.604569 0.601575 0.726920 0.175368
C765  C     C_R   0.607143 0.603188 0.777826 -0.024098
C766  C     C_R   0.589554 0.563963 0.805385 -0.186435
C767  C     C_R   0.796247 0.796482 0.428051 0.864075
C768  C     C_R   0.568804 0.523739 0.782065 -0.103115
C769  C     C_R   0.565292 0.522757 0.731129 -0.144937
C770  C     C_R   0.583281 0.561327 0.703656 -0.215115
C771  C     C_R   0.253442 0.383199 0.616245 0.202257
C772  C     C_R   0.255495 0.404981 0.570083 -0.105632
C773  C     C_R   0.212946 0.408536 0.542386 -0.119776
C774  C     C_R   0.167723 0.399028 0.563010 -0.155080
C775  C     C_R   0.165396 0.382531 0.610710 -0.148192
C776  C     C_R   0.207871 0.372210 0.636754 -0.064124
C777  C     C_R   0.746748 0.617119 0.382320 0.202730
C778  C     C_R   0.702895 0.703233 0.571452 0.857526
C779  C     C_R   0.202859 0.203110 0.571298 0.855430
C780  C     C_R   0.744931 0.571119 0.404703 -0.103110
C781  C     C_R   0.787528 0.543514 0.408564 -0.120867
C782  C     C_R   0.832627 0.564055 0.398232 -0.153553
C783  C     C_R   0.834767 0.611582 0.380808 -0.146561
C784  C     C_R   0.792181 0.637654 0.370746 -0.065572
C785  C     C_R   0.612231 0.386936 0.740518 0.213866
C786  C     C_R   0.567623 0.408124 0.728155 -0.166081
C787  C     C_R   0.530838 0.410436 0.762801 -0.124301
C788  C     C_R   0.539394 0.397932 0.810990 -0.102371
C789  C     C_R   0.585044 0.380534 0.824146 -0.153402
C790  C     C_R   0.572158 0.203840 0.203852 0.852781
C791  C     C_R   0.621884 0.374731 0.789289 -0.053465
C792  C     C_R   0.386537 0.612404 0.258549 0.216445
C793  C     C_R   0.407871 0.567943 0.271356 -0.160714
C794  C     C_R   0.410210 0.530717 0.237045 -0.123953
C795  C     C_R   0.397857 0.538802 0.188722 -0.102074
C796  C     C_R   0.380683 0.584435 0.175051 -0.157436
C797  C     C_R   0.374565 0.621613 0.209629 -0.057863
C798  C     C_R   0.394492 0.271181 0.398086 0.171478
C799  C     C_R   0.413006 0.292570 0.440791 -0.206715
C800  C     C_R   0.431677 0.263204 0.477649 -0.132287
C801  C     C_R   0.428806 0.797091 0.797149 0.855458
C802  C     C_R   0.432150 0.212331 0.472276 -0.106749
C803  C     C_R   0.414020 0.190939 0.430050 -0.191047
C804  C     C_R   0.394707 0.220113 0.392936 -0.034982
C805  C     C_R   0.601032 0.726962 0.604429 0.160020
C806  C     C_R   0.603764 0.777949 0.605996 -0.030806
C807  C     C_R   0.565642 0.806492 0.587930 -0.188833
C808  C     C_R   0.525144 0.783853 0.566965 -0.112030
C809  C     C_R   0.523032 0.732707 0.563894 -0.133857
C810  C     C_R   0.560400 0.704313 0.583224 -0.214130
C811  C     C_R   0.389825 0.737341 0.609331 0.211251
C812  C     C_R   0.203304 0.203251 0.428383 0.843063
C813  C     C_R   0.406751 0.722891 0.563590 -0.188760
C814  C     C_R   0.409501 0.757465 0.526787 -0.097044
C815  C     C_R   0.404789 0.807065 0.536680 -0.109030
C816  C     C_R   0.395765 0.822017 0.584076 -0.182376
C817  C     C_R   0.385436 0.787466 0.620122 -0.042497
C818  C     C_R   0.609165 0.262688 0.389974 0.209769
C819  C     C_R   0.563690 0.276667 0.408034 -0.178889
C820  C     C_R   0.527002 0.241927 0.410520 -0.102843
C821  C     C_R   0.536904 0.192469 0.404374 -0.107850
C822  C     C_R   0.584160 0.177895 0.393899 -0.179051
C823  C     C_R   0.797132 0.797141 0.571392 0.857710
C824  C     C_R   0.620081 0.212783 0.384162 -0.043670
C825  C     C_R   0.610267 0.738213 0.391070 0.205411
C826  C     C_R   0.614757 0.787699 0.377807 -0.042268
C827  C     C_R   0.603733 0.824107 0.411750 -0.172347
C828  C     C_R   0.595368 0.811898 0.460045 -0.130670
C829  C     C_R   0.591368 0.762908 0.472711 -0.095523
C830  C     C_R   0.593780 0.726285 0.437720 -0.174436
C831  C     C_R   0.382107 0.253211 0.618241 0.201808
C832  C     C_R   0.362070 0.207677 0.630479 -0.067667
C833  C     C_R   0.387593 0.165090 0.618906 -0.137829
C834  C     C_R   0.428387 0.203195 0.796703 0.855121
C835  C     C_R   0.433919 0.167428 0.598638 -0.150581
C836  C     C_R   0.453864 0.212711 0.587669 -0.127867
C837  C     C_R   0.426979 0.255356 0.594128 -0.090366
C838  C     C_R   0.603101 0.273275 0.601961 0.183731
C839  C     C_R   0.577787 0.296098 0.564014 -0.188567
C840  C     C_R   0.558001 0.268087 0.526617 -0.143820
C841  C     C_R   0.564688 0.217364 0.526141 -0.121054
C842  C     C_R   0.587420 0.194308 0.565294 -0.180621
C843  C     C_R   0.605989 0.222275 0.603686 -0.018290
C844  C     C_R   0.398746 0.725873 0.395146 0.167239
C845  C     C_R   0.571532 0.796714 0.202990 0.855397
C846  C     C_R   0.396477 0.777051 0.395898 -0.035743
C847  C     C_R   0.435408 0.803944 0.415039 -0.193213
C848  C     C_R   0.475877 0.779775 0.434070 -0.100579
C849  C     C_R   0.477734 0.728612 0.434107 -0.137506
C850  C     C_R   0.439616 0.701733 0.414225 -0.214711
C851  C     C_R   0.796107 0.203693 0.572217 0.853570
C852  C     C_R   0.203283 0.796805 0.428528 0.864775
C853  C     C_R   0.203167 0.428364 0.203321 0.848694
C854  C     C_R   0.571151 0.702755 0.703006 0.860784
C855  C     C_R   0.797168 0.571004 0.797274 0.857329
C856  C     C_R   0.203399 0.571839 0.796495 0.844124
C857  C     C_R   0.797085 0.428768 0.202892 0.847443
C858  C     C_R   0.796922 0.571415 0.203201 0.850072
C859  C     C_R   0.203343 0.428482 0.797014 0.853143
C860  C     C_R   0.796269 0.428011 0.796278 0.852892
C861  C     C_R   0.203296 0.571649 0.203164 0.852448
C862  C     C_R   0.679489 0.115874 0.179254 -0.161779
C863  C     C_R   0.322536 0.886531 0.822368 -0.155865
C864  C     C_R   0.821330 0.114043 0.678043 -0.153204
H1    H     H_    0.665235 0.091187 0.054573 0.117513
H2    H     H_    0.334106 0.933624 0.930667 0.115275
H3    H     H_    0.058982 0.318419 0.915168 0.104329
H4    H     H_    0.090011 0.708619 0.948390 0.097156
H5    H     H_    0.082789 0.784294 0.995915 0.152515
H6    H     H_    0.097408 0.864604 0.958992 0.099037
H7    H     H_    0.126426 0.868414 0.874776 0.094539
H8    H     H_    0.145073 0.793426 0.828519 0.095388
H9    H     H_    0.949012 0.291477 0.090636 0.097894
H10   H     H_    0.996843 0.215959 0.084482 0.154472
H11   H     H_    0.959550 0.135536 0.097850 0.098902
H12   H     H_    0.874795 0.131532 0.125463 0.095319
H13   H     H_    0.933838 0.068245 0.663231 0.118060
H14   H     H_    0.828388 0.206483 0.144350 0.095452
H15   H     H_    0.069662 0.333353 0.066535 0.113465
H16   H     H_    0.032658 0.283878 0.002156 0.132446
H17   H     H_    0.050075 0.194044 0.997263 0.132472
H18   H     H_    0.098753 0.154440 0.060763 0.091187
H19   H     H_    0.133710 0.204758 0.128735 0.097046
H20   H     H_    0.861684 0.794335 0.881772 0.105626
H21   H     H_    0.930372 0.845397 0.915165 0.101529
H22   H     H_    0.003092 0.806385 0.945913 0.127452
H23   H     H_    0.010229 0.714331 0.944770 0.118270
H24   H     H_    0.998129 0.029831 0.711890 0.129453
H25   H     H_    0.945992 0.664905 0.909501 0.115320
H26   H     H_    0.296101 0.632398 0.130164 0.089145
H27   H     H_    0.345051 0.599652 0.060739 0.092310
H28   H     H_    0.305571 0.551797 0.997243 0.134141
H29   H     H_    0.215723 0.535724 0.000470 0.134491
H30   H     H_    0.166509 0.571205 0.065971 0.113166
H31   H     H_    0.700765 0.344596 0.874004 0.097076
H32   H     H_    0.639738 0.407769 0.899839 0.103124
H33   H     H_    0.665530 0.492126 0.909793 0.102775
H34   H     H_    0.754445 0.510261 0.909871 0.169753
H35   H     H_    0.002760 0.045393 0.801775 0.132545
H36   H     H_    0.815110 0.447007 0.908532 0.103498
H37   H     H_    0.871937 0.632131 0.293232 0.101163
H38   H     H_    0.940284 0.597122 0.343063 0.091855
H39   H     H_    0.003750 0.548707 0.303175 0.133664
H40   H     H_    0.998751 0.531709 0.213527 0.131718
H41   H     H_    0.933987 0.568779 0.164632 0.115594
H42   H     H_    0.118434 0.362188 0.705117 0.102452
H43   H     H_    0.084049 0.431300 0.655756 0.098533
H44   H     H_    0.054156 0.503708 0.695589 0.128458
H45   H     H_    0.056386 0.510332 0.787386 0.117926
H46   H     H_    0.939927 0.094278 0.842028 0.091904
H47   H     H_    0.090803 0.444919 0.835716 0.116191
H48   H     H_    0.703757 0.620575 0.861065 0.103409
H49   H     H_    0.652726 0.583736 0.927528 0.100364
H50   H     H_    0.690674 0.551404 0.999700 0.123602
H51   H     H_    0.782140 0.551871 0.008140 0.118880
H52   H     H_    0.832726 0.587857 0.944940 0.116289
H53   H     H_    0.294497 0.328159 0.148248 0.093185
H54   H     H_    0.368900 0.374230 0.126903 0.094311
H55   H     H_    0.364218 0.456846 0.093063 0.095038
H56   H     H_    0.283633 0.492637 0.077031 0.145434
H57   H     H_    0.872498 0.131186 0.792235 0.101620
H58   H     H_    0.208420 0.445190 0.088465 0.092673
H59   H     H_    0.171915 0.644497 0.706620 0.095301
H60   H     H_    0.125775 0.624804 0.631812 0.094876
H61   H     H_    0.040974 0.597188 0.635813 0.099654
H62   H     H_    0.003598 0.584113 0.715936 0.153930
H63   H     H_    0.051339 0.590422 0.791271 0.097616
H64   H     H_    0.854689 0.327708 0.293121 0.095415
H65   H     H_    0.873575 0.373782 0.368341 0.094391
H66   H     H_    0.902204 0.458265 0.364972 0.098958
H67   H     H_    0.916503 0.495899 0.285203 0.152584
H68   H     H_    0.090427 0.944809 0.335932 0.116212
H69   H     H_    0.909730 0.448691 0.209536 0.096542
H70   H     H_    0.166758 0.411230 0.944996 0.116690
H71   H     H_    0.216854 0.448094 0.008344 0.118114
H72   H     H_    0.308442 0.448975 0.000360 0.124285
H73   H     H_    0.346877 0.416434 0.928463 0.102403
H74   H     H_    0.295827 0.380295 0.861280 0.105612
H75   H     H_    0.791012 0.555032 0.088235 0.092323
H76   H     H_    0.715736 0.507888 0.076367 0.144813
H77   H     H_    0.635225 0.543570 0.092786 0.095089
H78   H     H_    0.630548 0.625815 0.127342 0.093828
H79   H     H_    0.055671 0.010040 0.287789 0.118782
H80   H     H_    0.705220 0.671911 0.148860 0.092971
H81   H     H_    0.941264 0.415490 0.818670 0.104887
H82   H     H_    0.008432 0.417714 0.763087 0.162722
H83   H     H_    0.998488 0.403166 0.674214 0.099521
H84   H     H_    0.920071 0.378035 0.644210 0.101627
H85   H     H_    0.850317 0.364367 0.701622 0.092868
H86   H     H_    0.084573 0.557864 0.182088 0.104942
H87   H     H_    0.082656 0.491294 0.238449 0.163957
H88   H     H_    0.097128 0.502159 0.327081 0.099333
H89   H     H_    0.122441 0.581030 0.356113 0.102190
H90   H     H_    0.054250 0.004118 0.195907 0.129684
H91   H     H_    0.135883 0.650325 0.297934 0.093357
H92   H     H_    0.706648 0.369061 0.129443 0.090788
H93   H     H_    0.656949 0.402198 0.060634 0.092205
H94   H     H_    0.696022 0.449839 0.997023 0.134777
H95   H     H_    0.786126 0.465147 0.999169 0.132675
H96   H     H_    0.835806 0.429366 0.064172 0.114947
H97   H     H_    0.183399 0.550771 0.909123 0.105378
H98   H     H_    0.245003 0.488527 0.909370 0.171056
H99   H     H_    0.333602 0.507700 0.908853 0.101752
H100  H     H_    0.358217 0.592333 0.897936 0.102721
H101  H     H_    0.084538 0.931769 0.155872 0.098696
H102  H     H_    0.296141 0.654681 0.873938 0.098724
H103  H     H_    0.137831 0.381409 0.294317 0.103449
H104  H     H_    0.069392 0.415510 0.344621 0.098565
H105  H     H_    0.996466 0.445505 0.305763 0.127693
H106  H     H_    0.989254 0.444251 0.214005 0.118642
H107  H     H_    0.053987 0.410263 0.164733 0.116556
H108  H     H_    0.930446 0.567146 0.834490 0.113280
H109  H     H_    0.968092 0.502109 0.786222 0.131835
H110  H     H_    0.951424 0.496259 0.696592 0.133636
H111  H     H_    0.902466 0.558804 0.656155 0.091483
H112  H     H_    0.714648 0.057762 0.989280 0.117279
H113  H     H_    0.118584 0.862497 0.205224 0.102595
H114  H     H_    0.866688 0.627478 0.705368 0.099339
H115  H     H_    0.409502 0.949199 0.208834 0.098416
H116  H     H_    0.415243 0.996990 0.284346 0.155856
H117  H     H_    0.403253 0.959139 0.364396 0.100452
H118  H     H_    0.377274 0.873723 0.368399 0.096526
H119  H     H_    0.356604 0.827855 0.293492 0.095635
H120  H     H_    0.598317 0.048314 0.840948 0.109083
H121  H     H_    0.580885 0.975659 0.792469 0.106015
H122  H     H_    0.566409 0.983225 0.703001 0.088408
H123  H     H_    0.574592 0.062675 0.662588 0.093339
H124  H     H_    0.319422 0.085590 0.943005 0.106827
H125  H     H_    0.605911 0.133464 0.709475 0.117771
H126  H     H_    0.428350 0.832946 0.934590 0.114009
H127  H     H_    0.462752 0.783357 0.000258 0.136267
H128  H     H_    0.445958 0.693418 0.003237 0.134879
H129  H     H_    0.398857 0.654299 0.939046 0.093378
H130  H     H_    0.367416 0.703609 0.869259 0.090350
H131  H     H_    0.553520 0.183772 0.091827 0.103759
H132  H     H_    0.489809 0.243849 0.089685 0.168829
H133  H     H_    0.507191 0.333165 0.088781 0.102656
H134  H     H_    0.591130 0.359912 0.097803 0.102681
H135  H     H_    0.263413 0.085061 0.009715 0.163302
H136  H     H_    0.654742 0.299771 0.124932 0.097564
H137  H     H_    0.436660 0.073555 0.836398 0.113844
H138  H     H_    0.488801 0.020012 0.788007 0.135645
H139  H     H_    0.480396 0.017271 0.697136 0.120811
H140  H     H_    0.419291 0.068115 0.656568 0.093971
H141  H     H_    0.366046 0.123690 0.706344 0.096990
H142  H     H_    0.557682 0.912639 0.165325 0.116515
H143  H     H_    0.490098 0.941989 0.213937 0.118907
H144  H     H_    0.494302 0.938143 0.305865 0.131482
H145  H     H_    0.565644 0.905880 0.345463 0.091517
H146  H     H_    0.174228 0.097723 0.998964 0.101554
H147  H     H_    0.636233 0.875895 0.296189 0.096381
H148  H     H_    0.411676 0.165834 0.054755 0.116413
H149  H     H_    0.448175 0.216041 0.991416 0.117996
H150  H     H_    0.449037 0.307745 0.999603 0.123773
H151  H     H_    0.416675 0.346198 0.071489 0.100802
H152  H     H_    0.380449 0.295163 0.138512 0.105437
H153  H     H_    0.551111 0.794029 0.911097 0.096316
H154  H     H_    0.502704 0.718970 0.919433 0.151793
H155  H     H_    0.538656 0.638009 0.905516 0.094782
H156  H     H_    0.622641 0.632839 0.874935 0.094675
H157  H     H_    0.144363 0.120656 0.920104 0.102593
H158  H     H_    0.669488 0.706994 0.855496 0.094209
H159  H     H_    0.642563 0.149949 0.299498 0.089546
H160  H     H_    0.628963 0.080575 0.357164 0.093154
H161  H     H_    0.594793 0.003941 0.329189 0.098291
H162  H     H_    0.574360 0.995274 0.242018 0.157963
H163  H     H_    0.581184 0.061595 0.185127 0.103033
H164  H     H_    0.362532 0.872984 0.704015 0.093789
H165  H     H_    0.433458 0.896996 0.651952 0.087141
H166  H     H_    0.508082 0.926628 0.688960 0.080296
H167  H     H_    0.513148 0.936929 0.779050 0.098309
H168  H     H_    0.202229 0.133655 0.850647 0.095580
H169  H     H_    0.443483 0.917997 0.830666 0.106156
H170  H     H_    0.631389 0.295428 0.869993 0.089504
H171  H     H_    0.597883 0.344945 0.938807 0.092723
H172  H     H_    0.550089 0.305658 0.002095 0.133521
H173  H     H_    0.535401 0.215340 0.999988 0.133523
H174  H     H_    0.571599 0.165727 0.935097 0.114687
H175  H     H_    0.449233 0.816759 0.091301 0.105923
H176  H     H_    0.511485 0.755108 0.090902 0.171424
H177  H     H_    0.492412 0.666375 0.090936 0.101611
H178  H     H_    0.407785 0.641569 0.101191 0.103018
H179  H     H_    0.681953 0.941309 0.085170 0.103349
H180  H     H_    0.345441 0.703562 0.125528 0.099282
H181  H     H_    0.711258 0.819402 0.732091 0.119444
H182  H     H_    0.719982 0.839065 0.644996 0.146518
H183  H     H_    0.659677 0.892555 0.603815 0.099061
H184  H     H_    0.588245 0.922775 0.648761 0.085856
H185  H     H_    0.579278 0.904234 0.736908 0.100631
H186  H     H_    0.432266 0.069344 0.167838 0.112488
H187  H     H_    0.496598 0.032405 0.217170 0.127944
H188  H     H_    0.501889 0.050704 0.306648 0.132011
H189  H     H_    0.438859 0.100211 0.345796 0.090940
H190  H     H_    0.737794 0.008547 0.082224 0.161267
H191  H     H_    0.370604 0.135003 0.295689 0.095475
H192  H     H_    0.619531 0.704307 0.137710 0.105521
H193  H     H_    0.583723 0.653880 0.069851 0.102277
H194  H     H_    0.550832 0.693406 0.998460 0.128124
H195  H     H_    0.551246 0.785277 0.992016 0.119793
H196  H     H_    0.588453 0.834534 0.055767 0.117610
H197  H     H_    0.328255 0.295091 0.850806 0.092933
H198  H     H_    0.374818 0.369697 0.871483 0.093923
H199  H     H_    0.456987 0.364768 0.906030 0.094376
H200  H     H_    0.492156 0.283983 0.922873 0.144531
H201  H     H_    0.826897 0.998408 0.096564 0.099491
H202  H     H_    0.444538 0.208863 0.911570 0.092268
H203  H     H_    0.058637 0.818772 0.415178 0.105245
H204  H     H_    0.991707 0.762758 0.418639 0.161578
H205  H     H_    0.001926 0.673417 0.404941 0.099913
H206  H     H_    0.080280 0.643347 0.379784 0.101904
H207  H     H_    0.149738 0.701198 0.364943 0.093060
H208  H     H_    0.914680 0.180384 0.556994 0.107528
H209  H     H_    0.916622 0.236764 0.490511 0.163432
H210  H     H_    0.903495 0.325988 0.501382 0.100480
H211  H     H_    0.879677 0.355699 0.580168 0.102034
H212  H     H_    0.856976 0.919816 0.121192 0.101820
H213  H     H_    0.865956 0.297599 0.649342 0.094903
H214  H     H_    0.291547 0.169819 0.357259 0.095456
H215  H     H_    0.366035 0.122732 0.374467 0.095697
H216  H     H_    0.361872 0.037457 0.401162 0.098561
H217  H     H_    0.281482 0.000442 0.414364 0.158431
H218  H     H_    0.206240 0.048803 0.409846 0.098508
H219  H     H_    0.893174 0.908248 0.599050 0.125432
H220  H     H_    0.903618 0.968420 0.533049 0.120209
H221  H     H_    0.831544 0.000389 0.489551 0.117090
H222  H     H_    0.748128 0.973440 0.514449 0.123866
H223  H     H_    0.806395 0.055137 0.997238 0.123839
H224  H     H_    0.799335 0.850001 0.135260 0.093079
H225  H     H_    0.737305 0.912990 0.578934 0.121447
H226  H     H_    0.945220 0.164942 0.409006 0.115276
H227  H     H_    0.010064 0.213833 0.443721 0.118300
H228  H     H_    0.003343 0.305906 0.445501 0.128162
H229  H     H_    0.930662 0.345476 0.415505 0.099281
H230  H     H_    0.861820 0.295319 0.381468 0.102986
H231  H     H_    0.070044 0.833546 0.567121 0.112800
H232  H     H_    0.032655 0.784588 0.502487 0.131685
H233  H     H_    0.049181 0.694648 0.497427 0.132051
H234  H     H_    0.097598 0.654426 0.560677 0.091053
H235  H     H_    0.170498 0.143335 0.208321 0.095611
H236  H     H_    0.133449 0.704327 0.628547 0.097458
H237  H     H_    0.812801 0.935293 0.422270 0.116368
H238  H     H_    0.754882 0.000235 0.437353 0.148236
H239  H     H_    0.668293 0.993631 0.413903 0.102635
H240  H     H_    0.641431 0.921365 0.369891 0.087967
H241  H     H_    0.698911 0.852566 0.352645 0.087540
H242  H     H_    0.164200 0.088150 0.555774 0.115975
H243  H     H_    0.212834 0.055368 0.490022 0.120904
H244  H     H_    0.304911 0.055727 0.495402 0.131783
H245  H     H_    0.344655 0.084376 0.568638 0.101471
H246  H     H_    0.123990 0.125626 0.133475 0.095034
H247  H     H_    0.294618 0.118031 0.637647 0.102089
H248  H     H_    0.827377 0.703376 0.647633 0.094341
H249  H     H_    0.874346 0.629096 0.626392 0.094823
H250  H     H_    0.957805 0.634629 0.595538 0.099211
H251  H     H_    0.993185 0.715714 0.580724 0.150110
H252  H     H_    0.944687 0.790455 0.590323 0.094536
H253  H     H_    0.090049 0.208821 0.450096 0.098076
H254  H     H_    0.083754 0.285243 0.496637 0.153105
H255  H     H_    0.097388 0.364978 0.458210 0.099405
H256  H     H_    0.125158 0.367593 0.373499 0.094592
H257  H     H_    0.038937 0.098644 0.137162 0.098311
H258  H     H_    0.143974 0.291937 0.328449 0.095743
H259  H     H_    0.705655 0.171761 0.651531 0.094233
H260  H     H_    0.629064 0.126277 0.633718 0.091997
H261  H     H_    0.631313 0.044971 0.596995 0.096334
H262  H     H_    0.709341 0.007741 0.576057 0.109141
H263  H     H_    0.787037 0.053233 0.588199 0.117019
H264  H     H_    0.296495 0.865821 0.370258 0.099913
H265  H     H_    0.346490 0.899848 0.438922 0.092462
H266  H     H_    0.306941 0.947567 0.502970 0.132595
H267  H     H_    0.217124 0.965093 0.498240 0.129145
H268  H     H_    0.001444 0.085270 0.217123 0.156222
H269  H     H_    0.167924 0.929196 0.433184 0.113786
H270  H     H_    0.127895 0.295444 0.633733 0.098710
H271  H     H_    0.059407 0.345006 0.598465 0.091452
H272  H     H_    0.996467 0.304613 0.549686 0.133469
H273  H     H_    0.002233 0.214843 0.532455 0.132703
H274  H     H_    0.067240 0.166154 0.569586 0.113880
H275  H     H_    0.881868 0.705384 0.361675 0.104322
H276  H     H_    0.915660 0.655040 0.430241 0.099321
H277  H     H_    0.945293 0.694220 0.502949 0.126420
H278  H     H_    0.943093 0.786212 0.510629 0.117601
H279  H     H_    0.049242 0.090120 0.292552 0.098340
H280  H     H_    0.908790 0.835515 0.445637 0.122361
H281  H     H_    0.299458 0.848505 0.643948 0.090632
H282  H     H_    0.358393 0.916712 0.630413 0.095840
H283  H     H_    0.331875 0.993843 0.596531 0.097421
H284  H     H_    0.244320 0.004177 0.576508 0.161724
H285  H     H_    0.186714 0.938437 0.581739 0.103309
H286  H     H_    0.829811 0.085764 0.441520 0.112958
H287  H     H_    0.778780 0.065763 0.509936 0.127593
H288  H     H_    0.687369 0.074834 0.504930 0.124882
H289  H     H_    0.650442 0.103863 0.430845 0.092794
H290  H     H_    0.848866 0.825835 0.796384 0.093067
H291  H     H_    0.702517 0.127806 0.359825 0.094436
H292  H     H_    0.664811 0.590479 0.554446 0.115645
H293  H     H_    0.713788 0.556369 0.489326 0.117428
H294  H     H_    0.805676 0.554435 0.496475 0.126587
H295  H     H_    0.845007 0.584033 0.568983 0.099423
H296  H     H_    0.795027 0.617986 0.637877 0.103981
H297  H     H_    0.204671 0.371093 0.365776 0.097460
H298  H     H_    0.154382 0.439138 0.400998 0.090973
H299  H     H_    0.193864 0.502566 0.450076 0.131720
H300  H     H_    0.283432 0.497400 0.467869 0.132797
H301  H     H_    0.869036 0.872327 0.871557 0.093307
H302  H     H_    0.332848 0.433006 0.430807 0.112762
H303  H     H_    0.345385 0.643798 0.800477 0.092202
H304  H     H_    0.412145 0.631880 0.861058 0.097152
H305  H     H_    0.491324 0.601035 0.836501 0.098565
H306  H     H_    0.505286 0.584717 0.749677 0.168270
H307  H     H_    0.440798 0.586838 0.689961 0.099634
H308  H     H_    0.645189 0.342842 0.202257 0.092557
H309  H     H_    0.634401 0.406820 0.139134 0.095538
H310  H     H_    0.601993 0.486931 0.159366 0.096675
H311  H     H_    0.583869 0.504645 0.245046 0.169580
H312  H     H_    0.902747 0.954636 0.867400 0.098174
H313  H     H_    0.586189 0.442793 0.307729 0.098615
H314  H     H_    0.201516 0.634722 0.350914 0.093396
H315  H     H_    0.144338 0.620722 0.420807 0.101567
H316  H     H_    0.174927 0.595769 0.498828 0.100553
H317  H     H_    0.264197 0.581949 0.508450 0.161148
H318  H     H_    0.319561 0.584745 0.441170 0.104816
H319  H     H_    0.798749 0.349981 0.635143 0.093222
H320  H     H_    0.856751 0.419442 0.621032 0.102225
H321  H     H_    0.827129 0.498120 0.596031 0.099583
H322  H     H_    0.738081 0.508680 0.582230 0.163102
H323  H     H_    0.920681 0.990266 0.787465 0.145413
H324  H     H_    0.681824 0.441908 0.585079 0.105577
H325  H     H_    0.559301 0.579192 0.337378 0.120032
H326  H     H_    0.494146 0.543678 0.288790 0.128138
H327  H     H_    0.493878 0.553520 0.197453 0.134354
H328  H     H_    0.562811 0.592399 0.157124 0.093900
H329  H     H_    0.632006 0.625712 0.207309 0.110210
H330  H     H_    0.375394 0.368190 0.791850 0.111379
H331  H     H_    0.409569 0.437124 0.841949 0.093832
H332  H     H_    0.448262 0.506062 0.801451 0.134155
H333  H     H_    0.456401 0.506401 0.709878 0.127030
H334  H     H_    0.845344 0.084187 0.070152 0.098268
H335  H     H_    0.910300 0.943055 0.712147 0.094371
H336  H     H_    0.419495 0.441838 0.661481 0.120214
H337  H     H_    0.665317 0.430512 0.433566 0.114477
H338  H     H_    0.714360 0.467782 0.498191 0.131537
H339  H     H_    0.804168 0.451184 0.502958 0.132791
H340  H     H_    0.844187 0.402934 0.439393 0.091479
H341  H     H_    0.794219 0.367420 0.371452 0.099198
H342  H     H_    0.204860 0.637991 0.618570 0.102315
H343  H     H_    0.155272 0.569061 0.584128 0.097971
H344  H     H_    0.195022 0.496675 0.553992 0.127744
H345  H     H_    0.286939 0.489688 0.556596 0.116520
H346  H     H_    0.660522 0.931852 0.935453 0.115551
H347  H     H_    0.335532 0.554917 0.591458 0.116739
H348  H     H_    0.441082 0.418913 0.336723 0.119073
H349  H     H_    0.505931 0.454781 0.288235 0.127361
H350  H     H_    0.505285 0.446559 0.196770 0.133110
H351  H     H_    0.436019 0.408306 0.156350 0.093741
H352  H     H_    0.367122 0.374289 0.206585 0.109705
H353  H     H_    0.626371 0.633038 0.794819 0.106241
H354  H     H_    0.592165 0.564022 0.844635 0.093242
H355  H     H_    0.553572 0.494859 0.803892 0.132802
H356  H     H_    0.545407 0.494670 0.712476 0.128574
H357  H     H_    0.709242 0.970844 0.999471 0.128742
H358  H     H_    0.581545 0.559495 0.664255 0.118251
H359  H     H_    0.290470 0.409679 0.552290 0.096639
H360  H     H_    0.215006 0.416940 0.504669 0.152021
H361  H     H_    0.134710 0.403301 0.541753 0.099567
H362  H     H_    0.130583 0.374873 0.626054 0.095040
H363  H     H_    0.205481 0.354818 0.672102 0.095608
H364  H     H_    0.710012 0.553295 0.409907 0.094936
H365  H     H_    0.785573 0.505920 0.418025 0.150134
H366  H     H_    0.865692 0.542841 0.402598 0.098514
H367  H     H_    0.869528 0.626709 0.372397 0.093942
H368  H     H_    0.799550 0.956395 0.003394 0.133499
H369  H     H_    0.794374 0.672895 0.352929 0.094566
H370  H     H_    0.558327 0.413905 0.690181 0.100150
H371  H     H_    0.494801 0.415561 0.750717 0.170459
H372  H     H_    0.509944 0.398605 0.837216 0.097700
H373  H     H_    0.589301 0.366861 0.860141 0.096289
H374  H     H_    0.655214 0.355816 0.798808 0.092679
H375  H     H_    0.413629 0.559064 0.309427 0.100441
H376  H     H_    0.415688 0.494783 0.249385 0.169181
H377  H     H_    0.398801 0.509096 0.162693 0.098902
H378  H     H_    0.367690 0.588493 0.138751 0.097178
H379  H     H_    0.839998 0.907917 0.940498 0.092691
H380  H     H_    0.355833 0.654956 0.199701 0.092406
H381  H     H_    0.412328 0.331884 0.445649 0.114472
H382  H     H_    0.449151 0.280595 0.507978 0.118831
H383  H     H_    0.449443 0.189118 0.498743 0.121403
H384  H     H_    0.416737 0.151809 0.426275 0.099003
H385  H     H_    0.379301 0.203563 0.360635 0.100425
H386  H     H_    0.634493 0.794489 0.623279 0.138992
H387  H     H_    0.567716 0.845937 0.589405 0.109973
H388  H     H_    0.497444 0.806241 0.550511 0.132673
H389  H     H_    0.494795 0.714555 0.543799 0.135119
H390  H     H_    0.790183 0.870919 0.873236 0.103735
H391  H     H_    0.557634 0.664817 0.582039 0.117153
H392  H     H_    0.408070 0.684463 0.553926 0.102415
H393  H     H_    0.409333 0.744804 0.490522 0.170969
H394  H     H_    0.407343 0.833798 0.507816 0.098744
H395  H     H_    0.393749 0.860267 0.591143 0.102897
H396  H     H_    0.372083 0.799250 0.655288 0.097772
H397  H     H_    0.553995 0.315028 0.410400 0.103966
H398  H     H_    0.490723 0.254486 0.411215 0.169214
H399  H     H_    0.508108 0.165570 0.406542 0.100334
H400  H     H_    0.591068 0.139811 0.389965 0.103404
H401  H     H_    0.203849 0.138953 0.119884 0.100771
H402  H     H_    0.655093 0.201550 0.369855 0.096918
H403  H     H_    0.627924 0.797695 0.342015 0.100372
H404  H     H_    0.604443 0.861738 0.402006 0.105210
H405  H     H_    0.592368 0.840140 0.487514 0.101028
H406  H     H_    0.592341 0.752635 0.509713 0.174188
H407  H     H_    0.592929 0.688446 0.449435 0.101692
H408  H     H_    0.327623 0.205402 0.649678 0.093506
H409  H     H_    0.372879 0.130131 0.627639 0.090947
H410  H     H_    0.454634 0.134347 0.592231 0.098963
H411  H     H_    0.490287 0.214809 0.574813 0.142711
H412  H     H_    0.153113 0.071178 0.084672 0.098243
H413  H     H_    0.444144 0.290439 0.587702 0.092447
H414  H     H_    0.574971 0.335573 0.562565 0.113413
H415  H     H_    0.537343 0.286066 0.498505 0.130964
H416  H     H_    0.548971 0.195250 0.497771 0.132580
H417  H     H_    0.590365 0.154938 0.565458 0.106158
H418  H     H_    0.625138 0.205471 0.633566 0.093710
H419  H     H_    0.365173 0.795226 0.380333 0.101444
H420  H     H_    0.434151 0.843356 0.416712 0.099953
H421  H     H_    0.503611 0.801032 0.451739 0.136168
H422  H     H_    0.506357 0.709156 0.452404 0.130343
H423  H     H_    0.191642 0.998514 0.053267 0.125353
H424  H     H_    0.441978 0.662199 0.413289 0.119190
H425  H     H_    0.283317 0.990594 0.054778 0.117589
H426  H     H_    0.795230 0.118516 0.138589 0.102921
H427  H     H_    0.333140 0.054283 0.090582 0.114324
H428  H     H_    0.941336 0.915160 0.318968 0.105828
H429  H     H_    0.008528 0.917391 0.263440 0.163194
H430  H     H_    0.998661 0.903417 0.174509 0.100044
H431  H     H_    0.920258 0.878470 0.144337 0.101692
H432  H     H_    0.850433 0.864689 0.201643 0.093310
H433  H     H_    0.084209 0.058603 0.681860 0.105059
H434  H     H_    0.081534 0.991748 0.737843 0.161830
H435  H     H_    0.096400 0.002129 0.826614 0.099734
H436  H     H_    0.122384 0.080563 0.855993 0.101555
H437  H     H_    0.205554 0.871531 0.866681 0.098025
H438  H     H_    0.136304 0.150038 0.798142 0.092644
H439  H     H_    0.206279 0.854253 0.172025 0.094959
H440  H     H_    0.131186 0.874701 0.126454 0.094003
H441  H     H_    0.134996 0.904803 0.042704 0.098848
H442  H     H_    0.215096 0.919342 0.005587 0.150174
H443  H     H_    0.290883 0.910478 0.052540 0.096315
H444  H     H_    0.795465 0.174472 0.850353 0.094548
H445  H     H_    0.870935 0.128733 0.871221 0.093350
H446  H     H_    0.867183 0.045840 0.903385 0.098875
H447  H     H_    0.787202 0.009142 0.919680 0.146473
H448  H     H_    0.155538 0.939999 0.901595 0.090545
H449  H     H_    0.711511 0.055943 0.910036 0.094706
H450  H     H_    0.139041 0.881212 0.795028 0.102704
H451  H     H_    0.071051 0.915710 0.845748 0.098397
H452  H     H_    0.997723 0.944984 0.807651 0.122910
H453  H     H_    0.989183 0.942930 0.716130 0.116005
H454  H     H_    0.053852 0.909368 0.666122 0.114546
H455  H     H_    0.866015 0.128572 0.204479 0.098377
H456  H     H_    0.900674 0.059699 0.154911 0.091262
H457  H     H_    0.949076 0.996252 0.194939 0.133233
H458  H     H_    0.966610 0.001959 0.284433 0.133256
H459  H     H_    0.195396 0.003711 0.949894 0.133006
H460  H     H_    0.929921 0.067127 0.333108 0.113382
H461  H     H_    0.909067 0.336840 0.945244 0.118613
H462  H     H_    0.942726 0.288351 0.010922 0.118356
H463  H     H_    0.944346 0.196113 0.004593 0.129796
H464  H     H_    0.915294 0.156158 0.931859 0.100401
H465  H     H_    0.882628 0.206206 0.862374 0.105901
H466  H     H_    0.066556 0.666012 0.069634 0.115239
H467  H     H_    0.001698 0.715067 0.032881 0.133199
H468  H     H_    0.996528 0.804887 0.050081 0.133361
H469  H     H_    0.060125 0.844956 0.098322 0.091404
H470  H     H_    0.285006 0.998483 0.967389 0.132817
H471  H     H_    0.128469 0.795002 0.133276 0.098991
H472  H     H_    0.866441 0.797930 0.149494 0.095433
H473  H     H_    0.880042 0.856026 0.080279 0.102550
H474  H     H_    0.903318 0.826227 0.001350 0.100207
H475  H     H_    0.915969 0.736954 0.990405 0.163546
H476  H     H_    0.914397 0.680598 0.056925 0.106603
H477  H     H_    0.149566 0.200486 0.864802 0.092381
H478  H     H_    0.079827 0.142904 0.879666 0.102296
H479  H     H_    0.001652 0.173289 0.905203 0.099485
H480  H     H_    0.991863 0.262580 0.919258 0.161696
O1    O     O_R   0.553790 0.256330 0.314650 -0.599303
O2    O     O_R   0.446210 0.256330 0.314650 -0.634910
O3    O     O_R   0.814650 0.743670 0.946210 -0.635561
O4    O     O_R   0.946210 0.256330 0.185350 -0.604075
O5    O     O_R   0.053790 0.743670 0.814650 -0.611357
O6    O     O_R   0.814650 0.256330 0.946210 -0.591506
O7    O     O_R   0.185350 0.743670 0.053790 -0.618950
O8    O     O_R   0.053790 0.743670 0.185350 -0.606165
O9    O     O_R   0.946210 0.256330 0.814650 -0.631977
O10   O     O_R   0.185350 0.743670 0.946210 -0.601846
O11   O     O_R   0.814650 0.256330 0.053790 -0.612310
O12   O     O_R   0.946210 0.743670 0.814650 -0.591773
O13   O     O_R   0.685350 0.743670 0.446210 -0.600422
O14   O     O_R   0.053790 0.256330 0.185350 -0.621921
O15   O     O_R   0.814650 0.743670 0.053790 -0.597493
O16   O     O_R   0.185350 0.256330 0.946210 -0.617874
O17   O     O_R   0.743670 0.185350 0.053790 -0.591841
O18   O     O_R   0.256330 0.814650 0.946210 -0.618083
O19   O     O_R   0.743670 0.946210 0.185350 -0.594893
O20   O     O_R   0.256330 0.053790 0.814650 -0.612259
O21   O     O_R   0.743670 0.814650 0.946210 -0.608535
O22   O     O_R   0.256330 0.185350 0.053790 -0.635400
O23   O     O_R   0.743670 0.053790 0.814650 -0.608273
O24   O     O_R   0.314650 0.256330 0.553790 -0.609822
O25   O     O_R   0.256330 0.946210 0.185350 -0.611027
O26   O     O_R   0.256330 0.814650 0.053790 -0.602052
O27   O     O_R   0.743670 0.185350 0.946210 -0.610451
O28   O     O_R   0.256330 0.053790 0.185350 -0.592546
O29   O     O_R   0.743670 0.946210 0.814650 -0.618656
O30   O     O_R   0.256330 0.185350 0.946210 -0.597844
O31   O     O_R   0.743670 0.814650 0.053790 -0.618099
O32   O     O_R   0.256330 0.946210 0.814650 -0.605701
O33   O     O_R   0.743670 0.053790 0.185350 -0.631774
O34   O     O_R   0.814650 0.946210 0.743670 -0.606599
O35   O     O_R   0.446210 0.743670 0.314650 -0.595784
O36   O     O_R   0.185350 0.053790 0.256330 -0.611761
O37   O     O_R   0.053790 0.814650 0.743670 -0.591964
O38   O     O_R   0.946210 0.185350 0.256330 -0.623146
O39   O     O_R   0.185350 0.053790 0.743670 -0.592532
O40   O     O_R   0.814650 0.946210 0.256330 -0.613747
O41   O     O_R   0.946210 0.185350 0.743670 -0.607322
O42   O     O_R   0.053790 0.814650 0.256330 -0.632028
O43   O     O_R   0.185350 0.946210 0.256330 -0.592171
O44   O     O_R   0.814650 0.053790 0.743670 -0.618006
O45   O     O_R   0.946210 0.814650 0.256330 -0.592085
O46   O     O_R   0.553790 0.256330 0.685350 -0.628389
O47   O     O_R   0.053790 0.185350 0.743670 -0.613470
O48   O     O_R   0.814650 0.053790 0.256330 -0.603927
O49   O     O_R   0.185350 0.946210 0.743670 -0.631218
O50   O     O_R   0.053790 0.185350 0.256330 -0.602239
O51   O     O_R   0.946210 0.814650 0.743670 -0.610177
O52   O     O_R   0.553790 0.756330 0.814650 -0.602226
O53   O     O_R   0.446210 0.243670 0.185350 -0.634565
O54   O     O_R   0.185350 0.756330 0.553790 -0.607052
O55   O     O_R   0.814650 0.243670 0.446210 -0.633955
O56   O     O_R   0.446210 0.756330 0.185350 -0.598923
O57   O     O_R   0.314650 0.743670 0.553790 -0.594670
O58   O     O_R   0.553790 0.243670 0.814650 -0.616044
O59   O     O_R   0.814650 0.756330 0.446210 -0.593049
O60   O     O_R   0.185350 0.243670 0.553790 -0.622228
O61   O     O_R   0.553790 0.243670 0.185350 -0.600676
O62   O     O_R   0.446210 0.756330 0.814650 -0.621223
O63   O     O_R   0.185350 0.243670 0.446210 -0.603048
O64   O     O_R   0.814650 0.756330 0.553790 -0.606009
O65   O     O_R   0.446210 0.243670 0.814650 -0.604508
O66   O     O_R   0.553790 0.756330 0.185350 -0.638214
O67   O     O_R   0.814650 0.243670 0.553790 -0.595914
O68   O     O_R   0.685350 0.256330 0.446210 -0.617630
O69   O     O_R   0.185350 0.756330 0.446210 -0.614387
O70   O     O_R   0.243670 0.185350 0.553790 -0.592747
O71   O     O_R   0.756330 0.814650 0.446210 -0.617019
O72   O     O_R   0.243670 0.446210 0.185350 -0.599664
O73   O     O_R   0.756330 0.553790 0.814650 -0.634372
O74   O     O_R   0.243670 0.814650 0.446210 -0.603838
O75   O     O_R   0.756330 0.185350 0.553790 -0.614689
O76   O     O_R   0.243670 0.553790 0.814650 -0.599617
O77   O     O_R   0.756330 0.446210 0.185350 -0.618652
O78   O     O_R   0.756330 0.814650 0.553790 -0.628844
O79   O     O_R   0.743670 0.685350 0.553790 -0.587638
O80   O     O_R   0.243670 0.185350 0.446210 -0.611891
O81   O     O_R   0.756330 0.553790 0.185350 -0.602718
O82   O     O_R   0.243670 0.446210 0.814650 -0.639029
O83   O     O_R   0.756330 0.185350 0.446210 -0.590560
O84   O     O_R   0.243670 0.814650 0.553790 -0.610333
O85   O     O_R   0.756330 0.446210 0.814650 -0.600600
O86   O     O_R   0.243670 0.553790 0.185350 -0.620814
O87   O     O_R   0.814650 0.446210 0.243670 -0.601502
O88   O     O_R   0.185350 0.553790 0.756330 -0.612271
O89   O     O_R   0.553790 0.814650 0.243670 -0.592083
O90   O     O_R   0.256330 0.314650 0.446210 -0.620993
O91   O     O_R   0.446210 0.185350 0.756330 -0.605637
O92   O     O_R   0.185350 0.553790 0.243670 -0.595224
O93   O     O_R   0.814650 0.446210 0.756330 -0.614509
O94   O     O_R   0.446210 0.185350 0.243670 -0.601135
O95   O     O_R   0.553790 0.814650 0.756330 -0.622293
O96   O     O_R   0.185350 0.446210 0.756330 -0.589165
O97   O     O_R   0.814650 0.553790 0.243670 -0.617284
O98   O     O_R   0.446210 0.814650 0.756330 -0.601665
O99   O     O_R   0.553790 0.185350 0.243670 -0.611799
O100  O     O_R   0.814650 0.553790 0.756330 -0.603240
O101  O     O_R   0.743670 0.446210 0.685350 -0.597266
O102  O     O_R   0.185350 0.446210 0.243670 -0.630291
O103  O     O_R   0.553790 0.185350 0.756330 -0.629621
O104  O     O_R   0.446210 0.814650 0.243670 -0.612998
O105  O     O_R   0.446210 0.743670 0.685350 -0.618712
O106  O     O_R   0.256330 0.553790 0.314650 -0.614684
O107  O     O_R   0.743670 0.314650 0.446210 -0.606405
O108  O     O_R   0.256330 0.685350 0.553790 -0.631929
O109  O     O_R   0.743670 0.553790 0.314650 -0.601120
O110  O     O_R   0.256330 0.446210 0.685350 -0.613053
O111  O     O_R   0.256330 0.314650 0.553790 -0.605243
O112  O     O_R   0.743670 0.685350 0.446210 -0.611774
O113  O     O_R   0.256330 0.553790 0.685350 -0.593708
O114  O     O_R   0.743670 0.446210 0.314650 -0.617931
O115  O     O_R   0.256330 0.685350 0.446210 -0.592382
O116  O     O_R   0.685350 0.256330 0.553790 -0.600590
O117  O     O_R   0.743670 0.314650 0.553790 -0.615543
O118  O     O_R   0.256330 0.446210 0.314650 -0.603626
O119  O     O_R   0.743670 0.553790 0.685350 -0.633486
O120  O     O_R   0.314650 0.446210 0.743670 -0.599833
O121  O     O_R   0.685350 0.553790 0.256330 -0.621001
O122  O     O_R   0.553790 0.314650 0.743670 -0.593021
O123  O     O_R   0.446210 0.685350 0.256330 -0.613502
O124  O     O_R   0.685350 0.553790 0.743670 -0.594474
O125  O     O_R   0.314650 0.446210 0.256330 -0.621781
O126  O     O_R   0.446210 0.685350 0.743670 -0.596237
O127  O     O_R   0.314650 0.743670 0.446210 -0.635402
O128  O     O_R   0.553790 0.314650 0.256330 -0.610344
O129  O     O_R   0.685350 0.446210 0.256330 -0.595170
O130  O     O_R   0.314650 0.553790 0.743670 -0.613606
O131  O     O_R   0.446210 0.314650 0.256330 -0.594279
O132  O     O_R   0.553790 0.685350 0.743670 -0.627128
O133  O     O_R   0.314650 0.553790 0.256330 -0.596708
O134  O     O_R   0.685350 0.446210 0.743670 -0.610915
O135  O     O_R   0.553790 0.685350 0.256330 -0.598737
O136  O     O_R   0.446210 0.314650 0.743670 -0.620992
O137  O     O_R   0.053790 0.756330 0.314650 -0.592544
O138  O     O_R   0.446210 0.256330 0.685350 -0.600654
O139  O     O_R   0.946210 0.243670 0.685350 -0.612696
O140  O     O_R   0.685350 0.756330 0.053790 -0.594006
O141  O     O_R   0.314650 0.243670 0.946210 -0.610734
O142  O     O_R   0.946210 0.756330 0.685350 -0.606476
O143  O     O_R   0.053790 0.243670 0.314650 -0.611268
O144  O     O_R   0.314650 0.756330 0.946210 -0.601646
O145  O     O_R   0.685350 0.243670 0.053790 -0.623125
O146  O     O_R   0.053790 0.243670 0.685350 -0.606726
O147  O     O_R   0.946210 0.756330 0.314650 -0.631666
O148  O     O_R   0.685350 0.243670 0.946210 -0.606150
O149  O     O_R   0.553790 0.743670 0.314650 -0.619709
O150  O     O_R   0.314650 0.756330 0.053790 -0.618944
O151  O     O_R   0.946210 0.243670 0.314650 -0.592262
O152  O     O_R   0.053790 0.756330 0.685350 -0.621072
O153  O     O_R   0.314650 0.243670 0.053790 -0.589600
O154  O     O_R   0.685350 0.756330 0.946210 -0.610499
O155  O     O_R   0.243670 0.685350 0.053790 -0.603249
O156  O     O_R   0.756330 0.314650 0.946210 -0.623514
O157  O     O_R   0.243670 0.946210 0.685350 -0.592496
O158  O     O_R   0.756330 0.053790 0.314650 -0.620695
O159  O     O_R   0.243670 0.314650 0.946210 -0.593487
O160  O     O_R   0.314650 0.256330 0.446210 -0.593788
O161  O     O_R   0.756330 0.685350 0.053790 -0.610816
O162  O     O_R   0.243670 0.053790 0.314650 -0.601840
O163  O     O_R   0.756330 0.946210 0.685350 -0.605053
O164  O     O_R   0.756330 0.314650 0.053790 -0.605591
O165  O     O_R   0.243670 0.685350 0.946210 -0.618870
O166  O     O_R   0.756330 0.053790 0.685350 -0.602325
O167  O     O_R   0.243670 0.946210 0.314650 -0.623462
O168  O     O_R   0.756330 0.685350 0.946210 -0.589388
O169  O     O_R   0.243670 0.314650 0.053790 -0.610221
O170  O     O_R   0.756330 0.946210 0.314650 -0.599710
O171  O     O_R   0.685350 0.743670 0.553790 -0.639801
O172  O     O_R   0.243670 0.053790 0.685350 -0.630344
O173  O     O_R   0.314650 0.946210 0.243670 -0.603736
O174  O     O_R   0.685350 0.053790 0.756330 -0.591617
O175  O     O_R   0.053790 0.314650 0.243670 -0.591520
O176  O     O_R   0.946210 0.685350 0.756330 -0.623135
O177  O     O_R   0.685350 0.053790 0.243670 -0.592418
O178  O     O_R   0.314650 0.946210 0.756330 -0.617664
O179  O     O_R   0.946210 0.685350 0.243670 -0.605914
O180  O     O_R   0.053790 0.314650 0.756330 -0.632457
O181  O     O_R   0.685350 0.946210 0.756330 -0.598996
O182  O     O_R   0.553790 0.743670 0.685350 -0.589875
O183  O     O_R   0.314650 0.053790 0.243670 -0.622100
O184  O     O_R   0.946210 0.314650 0.756330 -0.591902
O185  O     O_R   0.053790 0.685350 0.243670 -0.613220
O186  O     O_R   0.314650 0.053790 0.756330 -0.618827
O187  O     O_R   0.685350 0.946210 0.243670 -0.624783
O188  O     O_R   0.053790 0.685350 0.756330 -0.604179
O189  O     O_R   0.946210 0.314650 0.243670 -0.611349
O190  O     O_R   0.053790 0.256330 0.814650 -0.592735
O191  O     O_R   0.946210 0.743670 0.185350 -0.613842
O192  O     O_R   0.185350 0.256330 0.053790 -0.606718
Zn1   Zn    Zn3+2 0.500000 0.210530 0.289470 0.958222
Zn2   Zn    Zn3+2 0.210530 0.289470 0.500000 0.962197
Zn3   Zn    Zn3+2 0.789470 0.500000 0.710530 0.952951
Zn4   Zn    Zn3+2 0.210530 0.500000 0.289470 0.953267
Zn5   Zn    Zn3+2 0.789470 0.289470 0.500000 0.953318
Zn6   Zn    Zn3+2 0.210530 0.710530 0.500000 0.954107
Zn7   Zn    Zn3+2 0.789470 0.500000 0.289470 0.963466
Zn8   Zn    Zn3+2 0.210530 0.500000 0.710530 0.995264
Zn9   Zn    Zn3+2 0.289470 0.500000 0.789470 0.959363
Zn10  Zn    Zn3+2 0.710530 0.500000 0.210530 0.956410
Zn11  Zn    Zn3+2 0.500000 0.289470 0.789470 0.955959
Zn12  Zn    Zn3+2 0.500000 0.789470 0.710530 0.970483
Zn13  Zn    Zn3+2 0.500000 0.710530 0.210530 0.960011
Zn14  Zn    Zn3+2 0.710530 0.500000 0.789470 0.962481
Zn15  Zn    Zn3+2 0.289470 0.500000 0.210530 0.956305
Zn16  Zn    Zn3+2 0.500000 0.710530 0.789470 0.953841
Zn17  Zn    Zn3+2 0.500000 0.289470 0.210530 0.962657
Zn18  Zn    Zn3+2 0.000000 0.710530 0.289470 0.954727
Zn19  Zn    Zn3+2 0.000000 0.289470 0.710530 0.953376
Zn20  Zn    Zn3+2 0.710530 0.710530 0.000000 1.000132
Zn21  Zn    Zn3+2 0.289470 0.289470 0.000000 1.001526
Zn22  Zn    Zn3+2 0.000000 0.710530 0.710530 0.962359
Zn23  Zn    Zn3+2 0.710530 0.210530 0.500000 0.978920
Zn24  Zn    Zn3+2 0.000000 0.289470 0.289470 0.995138
Zn25  Zn    Zn3+2 0.289470 0.710530 0.000000 0.968347
Zn26  Zn    Zn3+2 0.710530 0.289470 0.000000 0.967599
Zn27  Zn    Zn3+2 0.289470 0.000000 0.710530 0.947952
Zn28  Zn    Zn3+2 0.710530 0.000000 0.289470 0.952694
Zn29  Zn    Zn3+2 0.289470 0.000000 0.289470 0.960164
Zn30  Zn    Zn3+2 0.710530 0.000000 0.710530 0.982741
Zn31  Zn    Zn3+2 1.000000 0.210530 0.789470 0.954274
Zn32  Zn    Zn3+2 1.000000 0.789470 0.210530 0.953363
Zn33  Zn    Zn3+2 0.210530 0.210530 0.000000 0.952366
Zn34  Zn    Zn3+2 0.289470 0.789470 0.500000 0.959225
Zn35  Zn    Zn3+2 0.789470 0.789470 0.000000 0.950873
Zn36  Zn    Zn3+2 1.000000 0.210530 0.210530 0.960091
Zn37  Zn    Zn3+2 1.000000 0.789470 0.789470 0.997221
Zn38  Zn    Zn3+2 0.789470 0.210530 0.000000 0.996966
Zn39  Zn    Zn3+2 0.210530 0.789470 0.000000 0.964986
Zn40  Zn    Zn3+2 0.789470 0.000000 0.210530 0.954128
Zn41  Zn    Zn3+2 0.210530 0.000000 0.789470 0.953429
Zn42  Zn    Zn3+2 0.789470 0.000000 0.789470 0.965792
Zn43  Zn    Zn3+2 0.210530 0.000000 0.210530 0.995071
Zn44  Zn    Zn3+2 0.500000 0.210530 0.710530 0.955358
Zn45  Zn    Zn3+2 0.500000 0.789470 0.289470 0.984172
Zn46  Zn    Zn3+2 0.289470 0.210530 0.500000 0.996771
Zn47  Zn    Zn3+2 0.710530 0.789470 0.500000 0.940883
Zn48  Zn    Zn3+2 0.789470 0.710530 0.500000 0.998561

loop_
_geom_bond_atom_site_label_1
_geom_bond_atom_site_label_2
_ccdc_geom_bond_type
C433  H76   S    
O147  Zn18  S    
C803  C804  A    
C736  C737  A    
C337  C338  A    
C601  O180  A    
C693  C694  A    
C794  C795  A    
O41   Zn31  S    
C525  C530  A    
C853  O102  A    
C104  C204  A    
C241  H135  S    
C495  H128  S    
C66   C155  A    
C270  H379  S    
C620  C621  A    
C802  C803  A    
C792  C797  A    
C28   C679  S    
C763  H352  S    
C15   C368  S    
C511  C517  A    
C720  C721  A    
C297  H443  S    
C326  C327  A    
C20   C645  S    
C523  O173  A    
O88   Zn8   S    
C557  O176  A    
C854  O182  A    
C781  C782  A    
C292  C297  A    
C561  H182  S    
C500  H132  S    
C80   C196  A    
C816  H395  S    
O28   Zn43  S    
C1    O128  A    
C596  C597  A    
C69   C701  S    
C435  H77   S    
C469  C470  A    
C448  H87   S    
C732  H325  S    
C783  H367  S    
C828  C829  A    
C534  O174  A    
C9    C164  A    
C373  H26   S    
C27   C268  S    
O84   Zn34  S    
C821  H399  S    
C754  C755  A    
C480  H115  S    
C753  H343  S    
C280  C281  A    
C859  O96   A    
C201  O30   A    
C576  H195  S    
C847  H420  S    
C560  C561  A    
C467  C469  A    
O150  Zn25  S    
C533  C535  A    
O104  Zn45  S    
C226  C231  A    
C452  C458  A    
C639  C640  A    
C479  O168  A    
C794  H376  S    
C332  H472  S    
C9    C116  A    
C155  C511  S    
C797  H380  S    
C748  H339  S    
C516  C517  A    
O86   Zn15  S    
C651  C652  A    
C807  H387  S    
C367  H21   S    
O77   Zn10  S    
C14   C534  S    
C642  C643  A    
C383  H34   S    
C20   C125  A    
C405  C406  A    
C542  C543  A    
C602  H216  S    
O108  Zn6   S    
C574  H193  S    
C475  H110  S    
C40   C490  S    
C594  C595  A    
C63   C801  S    
O52   Zn16  S    
C380  C381  A    
C4    C109  A    
C483  H118  S    
C159  C862  A    
C33   C557  S    
C92   C210  A    
C419  C420  A    
O183  Zn29  S    
C412  O36   A    
C517  H147  S    
C249  C250  A    
C541  C542  A    
O113  Zn8   S    
C46   O46   A    
C253  C254  A    
O16   Zn33  S    
C5    C110  A    
C506  H137  S    
C236  C237  A    
C241  C242  A    
C374  C375  A    
C776  H363  S    
C848  H421  S    
C258  H279  S    
C233  C234  A    
C91   C204  A    
O65   Zn11  S    
C259  C260  A    
C339  C344  A    
C48   C125  A    
C138  C405  S    
C237  C238  A    
C533  H160  S    
C28   C139  A    
C220  C221  A    
C242  H146  S    
C639  H248  S    
C238  H113  S    
C633  C635  A    
C699  H297  S    
C61   C162  A    
C227  H13   S    
C396  H45   S    
C87   C193  A    
C286  H433  S    
O163  Zn30  S    
C635  H244  S    
C443  H85   S    
C528  C529  A    
C508  H139  S    
C82   C188  A    
C800  C802  A    
C293  C294  A    
C833  H409  S    
C81   C195  A    
O9    Zn31  S    
C431  C432  A    
C1    C95   S    
C224  O50   A    
C608  C609  A    
C481  C482  A    
C264  H335  S    
C837  H413  S    
C690  O189  A    
C482  C483  A    
C722  C724  A    
C177  C644  S    
O5    Zn37  S    
O34   Zn42  S    
C223  O116  A    
C428  C429  A    
C108  C232  S    
C219  C220  A    
C758  C759  A    
C42   C246  S    
C66   C165  A    
O185  Zn18  S    
C260  C261  A    
C620  H232  S    
C503  C504  A    
C3    C108  A    
O94   Zn1   S    
C87   C445  S    
C76   C174  A    
C10   C117  A    
C598  C604  A    
C548  H172  S    
C202  C792  S    
C630  H241  S    
C695  H294  S    
O98   Zn12  S    
C528  H155  S    
C438  C443  A    
C23   C590  S    
C829  C830  A    
C777  C780  A    
C662  H267  S    
O89   Zn45  S    
C390  O159  A    
C838  C843  A    
O106  Zn4   S    
C496  H129  S    
C11   C118  A    
C263  H323  S    
C420  H65   S    
C636  H245  S    
C9    C623  S    
O127  Zn34  S    
O103  Zn44  S    
C523  O25   A    
C715  C716  A    
C53   C860  S    
C626  C627  A    
C218  C219  A    
C647  C648  A    
C813  C814  A    
C820  C821  A    
C47   C115  A    
C178  C864  A    
C124  O113  A    
C130  C359  S    
C310  H454  S    
O42   Zn32  S    
C7    C114  A    
O10   Zn39  S    
C295  H441  S    
O85   Zn14  S    
O11   Zn38  S    
C518  C524  A    
C294  C295  A    
C684  H285  S    
C783  C784  A    
C645  O185  A    
C516  H145  S    
C440  C441  A    
C681  C682  A    
C681  H282  S    
C596  H211  S    
C484  H119  S    
O81   Zn10  S    
O31   Zn35  S    
C345  C347  A    
C18   C224  S    
C243  H157  S    
O135  Zn13  S    
C455  C456  A    
C384  H36   S    
C723  O54   A    
C368  O49   A    
C300  C302  A    
C102  C223  S    
C62   C151  A    
C447  C448  A    
O157  Zn27  S    
C259  C264  A    
C41   C152  A    
C581  H198  S    
C341  C342  A    
C24   O111  A    
C463  C464  A    
C31   C179  S    
C492  C497  A    
C2    C89   S    
C331  C332  A    
C43   C434  S    
C741  C742  A    
C194  C744  S    
C543  H169  S    
C59   C139  A    
C461  H98   S    
C818  C819  A    
C325  C330  A    
C555  H178  S    
C613  H226  S    
C668  O19   A    
C322  H464  S    
C158  C525  S    
C418  C424  A    
C808  C809  A    
O151  Zn24  S    
C642  H251  S    
C60   C145  A    
C540  H165  S    
C37   C161  A    
C385  C386  A    
C722  H317  S    
C691  H291  S    
C502  C503  A    
C254  H246  S    
C392  C393  A    
O73   Zn14  S    
C146  O125  A    
O14   Zn36  S    
C798  C804  A    
C616  H229  S    
O50   Zn36  S    
C806  H386  S    
C57   O108  A    
C8    C612  S    
C30   C168  S    
C839  C840  A    
C257  O47   A    
O55   Zn5   S    
C35   O35   A    
O132  Zn16  S    
C747  H338  S    
C230  C231  A    
C50   C190  S    
C146  O118  A    
C847  C848  A    
C26   C181  A    
C729  H322  S    
C857  O87   A    
O123  Zn13  S    
C217  H426  S    
C327  H467  S    
C394  H43   S    
C406  C407  A    
C192  C731  S    
C679  O188  A    
C115  C265  S    
C343  C344  A    
C839  H414  S    
C272  C277  A    
C24   C99   S    
C75   C183  A    
C635  C636  A    
C821  C822  A    
C574  C575  A    
C548  C549  A    
C844  C846  A    
C312  O37   A    
O114  Zn7   S    
C850  H424  S    
C798  C799  A    
C182  C672  S    
C738  C743  A    
O3    Zn35  S    
C513  C514  A    
C824  H402  S    
C8    C115  A    
O136  Zn11  S    
C227  C228  A    
C520  C521  A    
C619  C620  A    
C142  C431  S    
C61   C150  A    
C664  C671  A    
C303  H447  S    
C123  C318  S    
C232  C238  A    
O120  Zn9   S    
C856  O88   A    
C94   C205  A    
C409  H56   S    
C229  H35   S    
C82   C194  A    
O121  Zn10  S    
C562  C563  A    
C645  O8    A    
C788  H372  S    
C623  O28   A    
C858  O97   A    
C537  H163  S    
C42   C153  A    
C65   C834  S    
C603  C604  A    
C419  H64   S    
C522  H151  S    
C281  C282  A    
C113  O110  A    
O46   Zn44  S    
C137  C398  S    
C745  O56   A    
C804  H385  S    
C78   C157  S    
C96   C206  A    
C559  C560  A    
C157  O124  A    
O175  Zn24  S    
C273  C274  A    
C541  H166  S    
C300  H445  S    
C688  C689  A    
C211  C213  A    
C561  C562  A    
O119  Zn3   S    
C789  C791  A    
C93   C209  A    
C278  C280  A    
O38   Zn36  S    
C521  C522  A    
C412  O162  A    
C145  C452  S    
C55   C859  S    
C69   C163  A    
C730  H324  S    
C840  C841  A    
C349  H6    S    
O156  Zn26  S    
O118  Zn4   S    
C74   C734  S    
C672  C673  A    
C828  H405  S    
O37   Zn37  S    
C703  C704  A    
C422  H67   S    
C453  C454  A    
C19   C143  A    
C674  H276  S    
C113  O120  A    
C660  C661  A    
C716  C717  A    
C795  C796  A    
C526  C527  A    
C51   C166  A    
C56   C149  A    
C176  C638  S    
C81   C187  A    
C808  H388  S    
C459  C460  A    
C669  C670  A    
C411  C413  A    
C585  C586  A    
C735  C736  A    
O162  Zn29  S    
C205  C811  S    
C480  C481  A    
C175  C631  S    
C673  C674  A    
C252  C258  A    
C825  C830  A    
C351  H8    S    
C521  H150  S    
C282  C283  A    
C420  C421  A    
C780  C781  A    
C86   C193  A    
C279  O148  A    
C685  C691  A    
C705  C710  A    
C50   C110  A    
C802  H383  S    
C274  C275  A    
C627  H238  S    
C7    C423  S    
C357  O6    A    
C510  H141  S    
C831  C837  A    
C444  C451  A    
C64   C790  S    
C580  C581  A    
C449  H88   S    
C14   C151  A    
C17   C114  A    
C381  H32   S    
O154  Zn20  S    
C353  H9    S    
C614  H227  S    
C80   C146  S    
C12   C523  S    
C852  O74   A    
C505  C510  A    
C51   C109  A    
C823  O78   A    
C803  H384  S    
C190  O140  A    
C151  C485  S    
C127  C339  S    
C95   C188  A    
C353  C354  A    
C27   C117  A    
C675  H277  S    
C624  H236  S    
C57   O57   A    
C334  O115  A    
C466  H103  S    
O24   Zn46  S    
C340  C341  A    
C268  O147  A    
C586  C587  A    
C734  O83   A    
C708  C709  A    
C503  H134  S    
C506  C507  A    
C375  H28   S    
C316  C317  A    
C215  C216  A    
C363  H18   S    
C291  H438  S    
C101  O109  A    
C303  C304  A    
C622  H234  S    
C57   C97   S    
C498  C499  A    
C406  H53   S    
C68   C96   S    
C530  H158  S    
C568  C862  S    
C707  H304  S    
C400  C402  A    
C432  C433  A    
C16   C379  S    
C572  C577  A    
C54   C858  S    
C444  C447  A    
C68   O107  A    
C545  O14   A    
C383  C384  A    
C658  C659  A    
C612  O181  A    
C207  C825  S    
C282  H430  S    
O23   Zn42  S    
C31   C107  A    
C36   C126  A    
C274  H412  S    
C848  C849  A    
C375  C376  A    
C88   C556  S    
C21   C172  A    
O169  Zn21  S    
C526  H153  S    
C163  C559  S    
C416  C417  A    
C701  O52   A    
C679  O5    A    
C849  H422  S    
C280  H428  S    
C567  H187  S    
C453  H92   S    
C488  H122  S    
C474  C475  A    
C39   C131  A    
C64   C159  A    
C122  C311  S    
C301  O151  A    
C350  C351  A    
C172  C611  S    
C281  H429  S    
C63   C152  A    
O134  Zn14  S    
C301  O38   A    
C436  H78   S    
C321  C322  A    
C359  C360  A    
C711  C713  A    
C409  C410  A    
C70   C167  A    
C562  H183  S    
C200  C785  S    
O143  Zn24  S    
C735  H327  S    
C578  C580  A    
C267  H357  S    
C181  C664  S    
C261  H301  S    
C640  C641  A    
C609  C610  A    
C461  C462  A    
C594  H209  S    
C30   C167  A    
C397  H47   S    
C455  H94   S    
C773  C774  A    
C62   C161  A    
C247  H179  S    
C628  C629  A    
C634  O184  A    
C856  O76   A    
C607  C608  A    
C366  C367  A    
O148  Zn26  S    
C546  H170  S    
C29   C129  A    
C708  H305  S    
C256  C258  A    
C442  H84   S    
C425  C430  A    
C527  H154  S    
C544  C550  A    
C513  H142  S    
C485  C486  A    
C590  O179  A    
C770  H358  S    
C187  C705  S    
C742  H333  S    
O182  Zn12  S    
O146  Zn19  S    
C755  H345  S    
C372  C377  A    
C502  H133  S    
C728  H321  S    
C835  H410  S    
C472  C473  A    
C209  C838  S    
C468  O167  A    
C376  H29   S    
C298  C304  A    
C111  C252  S    
C55   C136  A    
C489  H123  S    
C570  H189  S    
C712  O53   A    
O17   Zn38  S    
C117  C278  S    
C12   C119  A    
C626  H237  S    
C356  C358  A    
C529  C530  A    
C125  C325  S    
C811  C813  A    
C296  H442  S    
C834  O91   A    
C110  C245  S    
C481  H116  S    
C350  H7    S    
C775  H362  S    
C606  H219  S    
C402  C403  A    
C761  H350  S    
O39   Zn41  S    
C355  C356  A    
C100  C334  S    
C816  C817  A    
C341  H478  S    
C26   C118  A    
C670  H273  S    
C244  H168  S    
C285  C291  A    
C416  H62   S    
C106  C863  A    
C377  H30   S    
C56   C137  A    
C246  O145  A    
C236  H90   S    
C622  C624  A    
C87   C208  A    
C365  C371  A    
C575  C576  A    
C814  H393  S    
C315  C316  A    
C468  O43   A    
C379  O48   A    
C255  H257  S    
C252  C253  A    
C260  H290  S    
C605  C610  A    
C166  C578  S    
C234  H79   S    
C382  C383  A    
C55   C141  A    
C314  H456  S    
C779  O60   A    
C851  O75   A    
C849  C850  A    
C263  C264  A    
C819  H397  S    
C213  C214  A    
C538  C539  A    
C648  H255  S    
C704  H302  S    
C612  O29   A    
C134  C385  S    
C156  C518  S    
C676  C677  A    
C179  O139  A    
C682  H283  S    
C641  C642  A    
C644  C650  A    
C399  H48   S    
O33   Zn40  S    
C58   C853  S    
C44   C147  A    
C84   C191  A    
C546  C547  A    
C368  O157  A    
C438  C439  A    
C796  H378  S    
C854  O132  A    
C690  O4    A    
C651  C657  A    
C493  H126  S    
C112  O105  A    
C454  H93   S    
C800  H382  S    
C747  C748  A    
C838  C839  A    
C347  H4    S    
C186  C698  S    
C431  C437  A    
C35   C92   S    
C147  C459  S    
O60   Zn2   S    
C762  H351  S    
C342  H479  S    
C721  H316  S    
C617  H230  S    
C589  C591  A    
O21   Zn35  S    
C356  H12   S    
C715  H310  S    
C307  C308  A    
C779  O70   A    
C731  C732  A    
C188  C711  S    
C762  C763  A    
C429  C430  A    
O101  Zn3   S    
C572  C573  A    
C299  C300  A    
C248  H190  S    
C687  H287  S    
C285  C286  A    
C456  H95   S    
C739  C740  A    
O165  Zn25  S    
C75   C723  S    
C621  H233  S    
C204  C805  S    
C367  C369  A    
C78   C185  A    
C250  H212  S    
C346  O155  A    
C37   C279  S    
C631  C637  A    
C600  C602  A    
C14   C120  A    
C567  C569  A    
O161  Zn20  S    
C279  O27   A    
C98   C207  A    
C746  C747  A    
C378  C380  A    
C841  C842  A    
C22   C121  A    
O20   Zn41  S    
O80   Zn46  S    
C178  C651  S    
C326  H466  S    
C323  O22   A    
C716  H311  S    
C83   C189  A    
O71   Zn47  S    
O149  Zn45  S    
C631  C632  A    
C499  H131  S    
O44   Zn42  S    
C237  H101  S    
C99   C208  A    
C464  H102  S    
C699  C700  A    
C320  C321  A    
C579  C863  S    
C357  O156  A    
C602  C603  A    
C261  C262  A    
C568  O33   A    
C311  C317  A    
C482  H117  S    
C500  C502  A    
C325  C326  A    
C615  H228  S    
C547  C548  A    
C320  H462  S    
C707  C708  A    
C712  O94   A    
C456  C458  A    
C460  H97   S    
C615  C616  A    
C389  C391  A    
C654  C655  A    
C48   C132  A    
O43   Zn43  S    
C698  C699  A    
C28   C128  A    
C764  C765  A    
O67   Zn5   S    
C683  C684  A    
C39   C137  A    
C702  C703  A    
C790  O99   A    
C713  C714  A    
C659  C660  A    
C587  C588  A    
C387  H38   S    
C565  C571  A    
C507  C508  A    
C199  C777  S    
C309  C310  A    
C761  C762  A    
C465  C471  A    
C294  H440  S    
C292  C293  A    
C601  O190  A    
C782  H366  S    
C286  C287  A    
O128  Zn17  S    
C682  C683  A    
C499  C500  A    
C448  C449  A    
C748  C749  A    
C532  H159  S    
C215  H223  S    
C25   C136  A    
C686  C687  A    
C496  C497  A    
C600  H215  S    
C689  C691  A    
C239  C244  A    
C78   C197  A    
C265  C266  A    
C17   C176  A    
C288  H435  S    
O130  Zn9   S    
C63   C160  A    
C855  O73   A    
C198  C771  S    
C728  C729  A    
C660  H265  S    
C844  C850  A    
C475  C476  A    
C90   O133  A    
C759  H348  S    
C643  H252  S    
C755  C757  A    
O95   Zn12  S    
C89   C196  A    
O191  Zn32  S    
C485  C491  A    
C283  H431  S    
C290  O26   A    
C469  H105  S    
C731  C737  A    
C522  C524  A    
C445  O136  A    
C103  C667  S    
C784  H369  S    
C89   C203  A    
C512  O39   A    
C633  H243  S    
C358  H14   S    
C713  H308  S    
C255  C256  A    
C366  H20   S    
C335  O21   A    
C168  O137  A    
C835  C836  A    
C494  C495  A    
C479  O3    A    
C706  H303  S    
C564  H185  S    
C772  C773  A    
O174  Zn30  S    
C45   C323  S    
C725  C730  A    
C649  C650  A    
C669  H272  S    
C288  C289  A    
C665  C666  A    
O74   Zn34  S    
C373  C374  A    
C191  C725  S    
C569  C570  A    
C37   C120  A    
C801  O62   A    
C733  H326  S    
C855  O100  A    
C91   C854  S    
C845  O66   A    
C701  O95   A    
C573  C574  A    
C266  C267  A    
C625  C630  A    
C91   C197  A    
C143  C438  S    
C401  O15   A    
C664  C665  A    
C860  O85   A    
C720  H315  S    
C168  O42   A    
O47   Zn31  S    
C398  C399  A    
C829  H406  S    
C140  C418  S    
C231  H57   S    
C827  H404  S    
C427  C428  A    
C638  C639  A    
C545  O175  A    
C126  C331  S    
C841  H416  S    
C553  C554  A    
C20   C144  A    
C495  C496  A    
C832  H408  S    
C90   O106  A    
C760  H349  S    
C248  C249  A    
C619  H231  S    
C52   C144  A    
C129  C352  S    
C754  H344  S    
C796  C797  A    
C319  H461  S    
C806  C807  A    
C789  H373  S    
C135  O129  A    
C618  C619  A    
C305  C310  A    
C107  C226  S    
C425  C426  A    
O188  Zn22  S    
C694  C695  A    
C206  C818  S    
C34   C127  A    
C491  H125  S    
C276  H425  S    
C512  O172  A    
O180  Zn19  S    
C77   C181  A    
C843  H418  S    
O35   Zn45  S    
C234  C236  A    
C72   C812  S    
C740  C741  A    
C780  H364  S    
C277  H427  S    
C563  C564  A    
C12   C150  A    
C53   C133  A    
C18   C111  A    
C535  H161  S    
C556  O135  A    
C328  H468  S    
C598  C599  A    
C826  C827  A    
O190  Zn31  S    
C686  H286  S    
C6    C412  S    
C299  H444  S    
C67   C156  A    
C751  C752  A    
O102  Zn4   S    
C566  H186  S    
O1    Zn1   S    
C851  O67   A    
C592  C597  A    
C43   C145  A    
C726  H319  S    
O54   Zn6   S    
C352  C353  A    
C744  C746  A    
C102  C191  A    
C792  C793  A    
C86   C198  A    
C380  H31   S    
C787  H371  S    
C611  C613  A    
C49   C357  S    
C514  H143  S    
C165  C572  S    
O57   Zn34  S    
C387  C388  A    
C212  O142  A    
C121  C305  S    
C230  H46   S    
C196  C758  S    
C694  H293  S    
C683  H284  S    
C861  O92   A    
C334  O127  A    
C336  C337  A    
O83   Zn23  S    
C16   C184  A    
C518  C519  A    
O159  Zn21  S    
C813  H392  S    
C393  C394  A    
C629  H240  S    
C97   C195  A    
C169  C592  S    
C33   C149  A    
C621  C622  A    
C287  H434  S    
C39   C479  S    
O93   Zn3   S    
C26   C257  S    
C101  O121  A    
C486  H120  S    
C488  C489  A    
C778  O79   A    
C581  C582  A    
C344  H3    S    
C327  C328  A    
O100  Zn3   S    
O76   Zn9   S    
O92   Zn4   S    
C34   C141  A    
C678  C684  A    
C605  C606  A    
C313  H455  S    
C788  C789  A    
C6    C111  A    
C671  H274  S    
C17   C212  S    
C370  C371  A    
O61   Zn17  S    
C565  C566  A    
C46   O122  A    
C19   C123  A    
C221  C222  A    
C98   C199  A    
C79   C84   S    
C781  H365  S    
C552  H175  S    
C362  C363  A    
C399  C400  A    
C842  H417  S    
C214  H112  S    
C805  C810  A    
C457  O44   A    
C656  O186  A    
C407  H54   S    
C437  H80   S    
C421  H66   S    
C2    O2    A    
C359  C364  A    
C114  C259  S    
C240  H124  S    
C149  C472  S    
C739  H330  S    
C525  C526  A    
O30   Zn33  S    
C606  C607  A    
C756  O58   A    
C767  O59   A    
C826  H403  S    
O63   Zn2   S    
C362  H17   S    
C426  H70   S    
C737  H329  S    
C332  C333  A    
C428  H72   S    
C447  H86   S    
O66   Zn13  S    
C470  C471  A    
C790  O61   A    
C41   C235  S    
C222  C225  A    
C793  C794  A    
C60   C857  S    
C64   C153  A    
C818  C824  A    
C319  C320  A    
C791  H374  S    
C392  C397  A    
O19   Zn40  S    
C595  C596  A    
C189  C718  S    
C190  O31   A    
C467  H104  S    
C740  H331  S    
C709  H306  S    
O78   Zn47  S    
C551  C558  A    
C494  H127  S    
C171  C605  S    
C386  H37   S    
C590  O191  A    
C92   C202  A    
C757  H347  S    
C68   O68   A    
C29   C140  A    
C566  C567  A    
O49   Zn41  S    
O124  Zn14  S    
C782  C783  A    
C666  H271  S    
C463  H100  S    
C430  H74   S    
C452  C453  A    
C62   C756  S    
C262  C263  A    
C408  H55   S    
O26   Zn39  S    
C507  H138  S    
C524  H152  S    
C629  C630  A    
C45   C116  A    
C549  H173  S    
C308  H452  S    
C309  H453  S    
C240  C241  A    
C579  O178  A    
C212  O51   A    
C73   C823  S    
C233  H68   S    
C769  H356  S    
C738  C739  A    
C539  C540  A    
C652  H259  S    
C571  H191  S    
C132  C372  S    
O122  Zn11  S    
C339  C340  A    
C613  C614  A    
C7    C171  A    
C787  C788  A    
C184  C685  S    
C316  H458  S    
C667  O90   A    
C511  C513  A    
C11   C512  S    
C764  C770  A    
C52   C861  S    
C509  H140  S    
C719  H314  S    
C24   O24   A    
C501  O170  A    
C86   C113  S    
C71   C178  A    
C809  H389  S    
C520  H149  S    
C6    C170  A    
O64   Zn48  S    
C628  H239  S    
C243  C244  A    
C786  C787  A    
C144  C444  S    
C21   C122  A    
C616  C617  A    
C710  H307  S    
C363  C364  A    
C71   C169  A    
C333  H473  S    
C501  O40   A    
C96   C194  A    
C706  C707  A    
C245  C251  A    
C340  H477  S    
C269  C270  A    
O116  Zn23  S    
O192  Zn33  S    
C211  C217  A    
C714  C715  A    
C112  O126  A    
C719  C720  A    
C173  C618  S    
O158  Zn28  S    
C107  C864  A    
C290  O150  A    
C347  C348  A    
C201  O141  A    
C718  C719  A    
C592  C593  A    
C335  O154  A    
C157  O119  A    
C174  C625  S    
C547  H171  S    
C250  C251  A    
O145  Zn26  S    
C77   C779  S    
C52   C132  A    
C119  C292  S    
C727  C728  A    
C697  H296  S    
C254  C255  A    
C687  C688  A    
C413  H59   S    
C242  C243  A    
O7    Zn39  S    
C560  H181  S    
C321  H463  S    
O184  Zn19  S    
C557  O12   A    
C786  H370  S    
C361  H16   S    
C632  H242  S    
C445  O138  A    
C34   C390  S    
C88   C207  A    
C5    C668  S    
C760  C761  A    
C542  H167  S    
C88   C192  A    
C799  H381  S    
C689  H289  S    
C610  H225  S    
C519  H148  S    
C575  H194  S    
C641  H250  S    
C32   C148  A    
C474  H109  S    
C329  H469  S    
C459  C464  A    
C354  H10   S    
C765  H353  S    
C446  O165  A    
C73   C176  A    
C317  H460  S    
C5    C155  A    
C267  C269  A    
C70   C180  A    
C825  C826  A    
C415  H61   S    
C100  C210  A    
C71   C851  S    
C42   C105  A    
O109  Zn7   S    
C623  O183  A    
C853  O72   A    
C696  H295  S    
C460  C461  A    
C705  C706  A    
C270  C271  A    
C164  C565  S    
C97   C205  A    
C116  C272  S    
C661  H266  S    
C51   C201  S    
C402  H50   S    
C256  H268  S    
C812  O63   A    
C676  H278  S    
C329  C330  A    
C403  C404  A    
C38   C290  S    
C568  O177  A    
C580  H197  S    
C32   C130  A    
C269  H368  S    
C476  H111  S    
C685  C686  A    
C505  C506  A    
C785  C791  A    
C293  H439  S    
O75   Zn23  S    
C777  C784  A    
C224  O143  A    
C663  H269  S    
C58   C148  A    
C527  C528  A    
C160  C863  A    
C696  C697  A    
O142  Zn22  S    
C531  C532  A    
C700  C702  A    
C94   C112  S    
C253  H235  S    
C183  C678  S    
C799  C800  A    
C135  O114  A    
C654  H261  S    
C584  H202  S    
C608  H221  S    
C535  C536  A    
C152  C492  S    
C688  H288  S    
C218  C225  A    
C74   C172  A    
O90   Zn2   S    
C646  H253  S    
O153  Zn21  S    
C450  C451  A    
C148  C465  S    
C422  C424  A    
C649  H256  S    
C103  C186  A    
C50   C165  A    
C609  H222  S    
O58   Zn11  S    
C603  H217  S    
C81   C124  S    
C588  C589  A    
O53   Zn17  S    
C647  H254  S    
C726  C727  A    
O139  Zn19  S    
C473  C474  A    
C401  O161  A    
C498  C504  A    
O56   Zn13  S    
C345  C351  A    
C13   O112  A    
O97   Zn7   S    
C415  C416  A    
C407  C408  A    
C465  C466  A    
C434  O11   A    
C589  H206  S    
O79   Zn48  S    
C219  H437  S    
C552  C553  A    
C490  O169  A    
C449  C450  A    
C569  H188  S    
O29   Zn42  S    
C723  O84   A    
C487  C488  A    
C85   C101  S    
C376  C377  A    
C418  C419  A    
C573  H192  S    
C724  H318  S    
C814  C815  A    
C44   C128  A    
C128  C345  S    
O125  Zn15  S    
C403  H51   S    
C648  C649  A    
C8    C163  A    
C360  H15   S    
C395  H44   S    
C35   O123  A    
C393  H42   S    
O27   Zn38  S    
C820  H398  S    
C179  O41   A    
C167  C585  S    
O59   Zn48  S    
C27   C182  A    
C48   C346  S    
C680  H281  S    
C441  C442  A    
C857  O77   A    
C588  H205  S    
C289  C291  A    
C21   C301  S    
O187  Zn28  S    
C614  C615  A    
C103  C203  A    
C369  H22   S    
C793  H375  S    
O117  Zn5   S    
C662  C663  A    
O167  Zn29  S    
C597  H213  S    
C859  O82   A    
C10   C174  A    
C322  C324  A    
C599  C600  A    
C61   C745  S    
O186  Zn27  S    
C10   C501  S    
C725  C726  A    
C411  C417  A    
C749  H340  S    
C413  C414  A    
O129  Zn10  S    
C195  C751  S    
C743  H336  S    
C104  C778  S    
O18   Zn39  S    
C579  O32   A    
C162  C551  S    
C54   C134  A    
C593  H208  S    
C372  C373  A    
C36   C142  A    
C472  C477  A    
C732  C733  A    
C49   C133  A    
C67   C164  A    
C417  H63   S    
C18   C177  A    
C700  H298  S    
C272  C273  A    
C40   C138  A    
O131  Zn17  S    
C389  H40   S    
C582  C583  A    
C159  C531  S    
C504  H136  S    
C827  C828  A    
C210  C844  S    
C665  H270  S    
C228  C229  A    
C563  H184  S    
C109  C239  S    
O69   Zn6   S    
O48   Zn40  S    
C398  C404  A    
C775  C776  A    
C93   C200  A    
C16   C122  A    
C666  C669  A    
C342  C343  A    
C717  H313  S    
C314  C315  A    
C674  C675  A    
C65   C166  A    
C405  C410  A    
C229  C230  A    
C228  H24   S    
O189  Zn24  S    
C478  C484  A    
C812  O80   A    
C653  H260  S    
C414  H60   S    
C306  C307  A    
C657  H263  S    
C632  C633  A    
C94   C187  A    
C637  H247  S    
C677  H280  S    
C38   C119  A    
C203  C798  S    
C296  C297  A    
C131  C365  S    
C817  H396  S    
O170  Zn28  S    
C655  H262  S    
C381  C382  A    
C298  C299  A    
C490  O192  A    
C551  C552  A    
C436  C437  A    
C577  H196  S    
C553  H176  S    
C333  C336  A    
C391  H41   S    
C336  H474  S    
C446  O10   A    
O105  Zn12  S    
C304  H449  S    
C457  C864  S    
O181  Zn30  S    
C554  H177  S    
C133  C378  S    
C811  C817  A    
C343  H480  S    
C1    O1    A    
C559  C564  A    
C858  O81   A    
C70   C852  S    
C766  H354  S    
O138  Zn44  S    
C576  C577  A    
C729  C730  A    
C661  C662  A    
C150  C478  S    
C487  H121  S    
C348  C349  A    
O72   Zn15  S    
O6    Zn38  S    
C486  C487  A    
C604  H218  S    
C312  O152  A    
O111  Zn2   S    
O110  Zn8   S    
C831  C832  A    
C302  H446  S    
C532  C533  A    
C644  C646  A    
C80   C186  A    
C365  C366  A    
C429  H73   S    
C105  C862  A    
C756  O103  A    
C349  C350  A    
C170  C598  S    
C352  C358  A    
O168  Zn20  S    
C249  H201  S    
C675  C676  A    
O13   Zn47  S    
C778  O171  A    
C318  C319  A    
C246  O17   A    
C364  H19   S    
C795  H377  S    
C462  H99   S    
C765  C766  A    
O115  Zn6   S    
C74   C184  A    
C769  C770  A    
C3    C468  S    
O107  Zn5   S    
C76   C767  S    
C470  H106  S    
C223  O117  A    
C118  C285  S    
C627  C628  A    
C640  H249  S    
C388  C389  A    
C833  C835  A    
C454  C455  A    
C703  H300  S    
C390  O16   A    
C768  H355  S    
C58   C138  A    
C95   C206  A    
C225  H2    S    
C749  C750  A    
C678  C680  A    
C861  O86   A    
C83   C202  A    
C360  C361  A    
C785  C786  A    
C758  C763  A    
C852  O69   A    
C410  H58   S    
C275  H423  S    
C43   C129  A    
C727  H320  S    
C67   C712  S    
C394  C395  A    
C124  O130  A    
C846  C847  A    
O112  Zn48  S    
O82   Zn9   S    
C714  H309  S    
C805  C806  A    
C423  O163  A    
C483  C484  A    
C745  O104  A    
C47   C335  S    
C768  C769  A    
C721  C722  A    
C668  O187  A    
C45   C156  A    
C489  C491  A    
C348  H5    S    
C60   C140  A    
C23   C126  A    
C451  H91   S    
C466  C467  A    
C311  C313  A    
C432  H75   S    
C208  C831  S    
O177  Zn28  S    
C515  C516  A    
C536  H162  S    
C22   C173  A    
C587  H204  S    
C655  C657  A    
C221  H459  S    
C752  H342  S    
C330  H471  S    
C529  H156  S    
C23   C134  A    
C44   C446  S    
C315  H457  S    
O152  Zn22  S    
O126  Zn16  S    
C328  C329  A    
C4    C656  S    
C759  C760  A    
C102  C209  A    
C306  H450  S    
C734  O55   A    
C25   C601  S    
C318  C324  A    
C400  H49   S    
C815  H394  S    
C32   C545  S    
O4    Zn36  S    
C514  C515  A    
C273  H401  S    
C79   O134  A    
C153  C498  S    
C458  H96   S    
C99   C198  A    
C698  C704  A    
C555  C558  A    
C658  C663  A    
C324  H465  S    
C276  C277  A    
C226  C227  A    
C283  C284  A    
O96   Zn8   S    
C180  C658  S    
O70   Zn46  S    
C442  C443  A    
C771  C772  A    
C59   C147  A    
C508  C509  A    
C185  C692  S    
C4    C154  A    
O51   Zn37  S    
C275  C276  A    
O2    Zn1   S    
O173  Zn29  S    
C141  C425  S    
O144  Zn25  S    
C19   C634  S    
C534  O23   A    
C79   O101  A    
C421  C422  A    
C371  H25   S    
C540  C541  A    
C239  C240  A    
C193  C738  S    
C369  C370  A    
C427  H71   S    
C271  H390  S    
C509  C510  A    
C426  C427  A    
C49   C123  A    
C711  C717  A    
C473  H108  S    
C492  C493  A    
C82   C135  S    
C66   C845  S    
C268  O45   A    
C766  C768  A    
C845  O89   A    
C385  C391  A    
C578  C584  A    
C836  C837  A    
C433  C435  A    
C15   C183  A    
C154  C505  S    
O133  Zn15  S    
C659  H264  S    
C434  O164  A    
O87   Zn7   S    
C834  O65   A    
C822  H400  S    
C493  C494  A    
C830  H407  S    
O172  Zn27  S    
O171  Zn47  S    
C476  C477  A    
C379  O158  A    
C822  C824  A    
C41   C106  A    
C216  H334  S    
C396  C397  A    
C424  H69   S    
C771  C776  A    
C842  C843  A    
C295  C296  A    
C462  C463  A    
C31   C169  A    
C197  C764  S    
C570  C571  A    
C819  C820  A    
C544  C546  A    
C695  C696  A    
C736  H328  S    
C702  H299  S    
C746  H337  S    
C287  C288  A    
C323  O153  A    
C247  C248  A    
O166  Zn30  S    
C497  H130  S    
C235  O18   A    
C652  C653  A    
O36   Zn43  S    
C439  H81   S    
O179  Zn18  S    
C646  C647  A    
C680  C681  A    
C471  H107  S    
C54   C142  A    
C607  H220  S    
C245  C247  A    
C670  C671  A    
O176  Zn22  S    
C554  C555  A    
C807  C808  A    
C692  C693  A    
O25   Zn43  S    
C625  C626  A    
O164  Zn26  S    
C441  H83   S    
O68   Zn23  S    
C40   C130  A    
C30   C108  A    
C772  H359  S    
C395  C396  A    
O40   Zn40  S    
C355  H11   S    
O99   Zn1   S    
C11   C175  A    
C105  C211  S    
C161  C544  S    
C515  H144  S    
C751  C757  A    
C810  H391  S    
C386  C387  A    
C25   C127  A    
C313  C314  A    
C388  H39   S    
C232  C233  A    
C440  H82   S    
C767  O71   A    
C773  H360  S    
O32   Zn41  S    
C742  C743  A    
C556  O149  A    
C718  C724  A    
O12   Zn37  S    
C408  C409  A    
C305  C306  A    
C56   C855  S    
C22   C312  S    
C595  H210  S    
C653  C654  A    
C354  C355  A    
O15   Zn35  S    
C307  H451  S    
C75   C173  A    
C100  C189  A    
O8    Zn32  S    
C139  C411  S    
C439  C440  A    
C593  C594  A    
C586  H203  S    
C519  C520  A    
C618  C624  A    
C582  H199  S    
C84   C200  A    
C85   C192  A    
C104  C185  A    
C550  H174  S    
C549  C550  A    
O160  Zn46  S    
C836  H411  S    
O62   Zn16  S    
C753  C754  A    
C673  H275  S    
C213  H1    S    
C840  H415  S    
C591  H207  S    
C477  H114  S    
C450  H89   S    
C13   C98   S    
O45   Zn32  S    
C85   C199  A    
C815  C816  A    
C423  O34   A    
C216  C217  A    
C289  H436  S    
C73   C171  A    
C370  H23   S    
C809  C810  A    
O137  Zn18  S    
C33   C131  A    
C538  C543  A    
C77   C175  A    
O22   Zn33  S    
C278  C284  A    
C744  C750  A    
C235  O144  A    
C59   C856  S    
C72   C177  A    
C76   C182  A    
C634  O9    A    
C266  H346  S    
C583  H200  S    
C611  C617  A    
C3    C180  A    
C36   C401  S    
C656  O20   A    
C536  C537  A    
C741  H332  S    
C692  C697  A    
C214  C215  A    
C222  H470  S    
C382  H33   S    
C672  C677  A    
O91   Zn44  S    
C435  C436  A    
C750  H341  S    
C860  O93   A    
C53   C143  A    
C72   C170  A    
C404  H52   S    
C65   C154  A    
C284  H432  S    
C265  C271  A    
C38   C162  A    
C69   C158  A    
C585  C591  A    
C478  C480  A    
C539  H164  S    
C120  C298  S    
C774  H361  S    
O155  Zn25  S    
C29   C690  S    
C160  C538  S    
O178  Zn27  S    
C308  C309  A    
C2    O131  A    
C83   C90   S    
C302  C303  A    
C457  O166  A    
C346  O7    A    
C15   C121  A    
C106  C218  S    
C257  O146  A    
C337  H475  S    
C338  H476  S    
C846  H419  S    
C331  C338  A    
C774  C775  A    
C136  C392  S    
C361  C362  A    
C220  H448  S    
C262  H312  S    
C832  C833  A    
C599  H214  S    
C801  O98   A    
C583  C584  A    
C733  C735  A    
C693  H292  S    
C667  O160  A    
C414  C415  A    
C46   C93   S    
C638  C643  A    
C752  C753  A    
C374  H27   S    
C378  C384  A    
C709  C710  A    
C531  C537  A    
C13   O13   A    
C823  O64   A    
O140  Zn20  S    
O141  Zn21  S    
C650  H258  S    
C251  H224  S    
C558  H180  S    
C636  C637  A    
C47   C158  A    
