data_mof_unit_21659.cif
_audit_creation_date              2012-12-11T15:59:37-0500
_audit_creation_method            fapswitch 2.2
_symmetry_space_group_name_H-M    P1
_symmetry_Int_Tables_number       1
_space_group_crystal_system       triclinic
_cell_length_a                    10.759389
_cell_length_b                    10.725098
_cell_length_c                    17.060064
_cell_angle_alpha                 99.318148
_cell_angle_beta                  99.8961
_cell_angle_gamma                 60.988911
_cell_volume                      1688.95571872

loop_
_atom_site_label
_atom_site_type_symbol
_atom_type_description
_atom_site_fract_x
_atom_site_fract_y
_atom_site_fract_z
_atom_type_partial_charge
C1    C     C_R   0.356509 0.768701 0.397656 0.525341
C2    C     C_R   0.856717 0.203736 0.198165 0.030448
C3    C     C_R   0.866985 0.214077 0.282234 0.018778
C4    C     C_R   0.779426 0.471196 0.284154 -0.145266
C5    C     C_R   0.785168 0.458699 0.203616 -0.155438
C6    C     C_R   0.875008 0.071948 0.155736 -0.060785
C7    C     C_R   0.924478 0.950267 0.195651 -0.137940
C8    C     C_R   0.951819 0.957809 0.278452 -0.137585
C9    C     C_R   0.921747 0.088844 0.321783 -0.092059
C10   C     C_R   0.820366 0.350171 0.324320 0.006250
C11   C     C_R   0.358302 0.809789 0.155940 -0.012150
C12   C     C_R   0.405471 0.374413 0.356268 0.567715
C13   C     C_R   0.450164 0.844559 0.214849 0.008832
C14   C     C_R   0.434225 0.853037 0.296240 0.011817
C15   C     C_R   0.285285 0.735012 0.256612 -0.151695
C16   C     C_R   0.289370 0.739980 0.176966 -0.038206
C17   C     C_R   0.555831 0.872801 0.195276 -0.091269
C18   C     C_R   0.631096 0.923585 0.253992 -0.125789
C19   C     C_R   0.606543 0.943803 0.333333 -0.094482
C20   C     C_R   0.506950 0.911541 0.354541 -0.083851
C21   C     C_R   0.348879 0.799170 0.316636 -0.001454
C22   C     C_R   0.333181 0.342334 0.824939 -0.003300
C23   C     C_R   0.774724 0.378482 0.403197 0.531125
C24   C     C_R   0.463650 0.253478 0.791992 0.014901
C25   C     C_R   0.456770 0.220197 0.709028 0.022273
C26   C     C_R   0.220819 0.428597 0.695617 -0.152806
C27   C     C_R   0.213663 0.434045 0.776717 -0.149965
C28   C     C_R   0.596936 0.184256 0.839219 0.015815
C29   C     C_R   0.710244 0.063151 0.806200 -0.111392
C30   C     C_R   0.692831 0.012344 0.726901 -0.133167
C31   C     C_R   0.567573 0.089945 0.678402 -0.078040
C32   C     C_R   0.341594 0.321419 0.660395 -0.006694
C33   C     C_1   0.817021 0.341921 0.709078 -0.033536
C34   C     C_R   0.358248 0.769460 0.627356 0.552366
C35   C     C_1   0.843773 0.314272 0.776953 -0.034470
C36   C     C_1   0.339184 0.810867 0.709405 -0.034303
C37   C     C_1   0.312642 0.838997 0.777350 -0.031265
C38   C     C_R   0.891969 0.308058 0.087266 0.572158
C39   C     C_R   0.321724 0.301871 0.119291 0.573968
C40   C     C_R   0.298827 0.885825 0.083509 0.551419
C41   C     C_R   0.885455 0.297853 0.859224 0.554880
C42   C     C_R   0.308528 0.296151 0.894325 0.557586
C43   C     C_R   0.278411 0.885566 0.857112 0.552014
C44   C     C_R   0.369987 0.345198 0.584413 0.549622
C45   C     C_R   0.773386 0.380437 0.629753 0.552219
C46   C     C_1   0.373960 0.361724 0.271912 -0.043050
C47   C     C_1   0.349374 0.342453 0.201142 -0.033490
C48   C     C_R   0.830463 0.325346 0.160444 0.015252
Cr1   Cr    Cr6+3 0.608100 0.610860 0.522250 1.003737
Cr2   Cr    Cr6+3 0.288890 0.599990 0.488420 1.012707
Cr3   Cr    Cr6+3 0.603040 0.289190 0.489390 0.995442
Cr4   Cr    Cr6+3 0.053960 0.052250 0.967380 1.022560
Cr5   Cr    Cr6+3 0.059890 0.373160 0.992710 1.056269
Cr6   Cr    Cr6+3 0.373370 0.061690 0.991710 1.027227
H1    H     H_    0.739416 0.578092 0.314581 0.158860
H2    H     H_    0.707280 0.948887 0.237440 0.132141
H3    H     H_    0.488105 0.932883 0.416703 0.127886
H4    H     H_    0.131725 0.507071 0.660281 0.140763
H5    H     H_    0.113314 0.505750 0.800977 0.147813
H6    H     H_    0.810567 0.005786 0.842321 0.136348
H7    H     H_    0.778033 0.914707 0.702300 0.118568
H8    H     H_    0.760568 0.553125 0.175706 0.138638
H9    H     H_    0.937807 0.850511 0.162428 0.126107
H10   H     H_    0.990113 0.863169 0.309349 0.128209
H11   H     H_    0.942369 0.091186 0.386218 0.127915
H12   H     H_    0.231405 0.680236 0.271556 0.135765
H13   H     H_    0.585869 0.850901 0.135351 0.137709
O1    O     O_R   0.749810 0.499790 0.438040 -0.521861
O2    O     O_R   0.298970 0.468800 0.557390 -0.491226
O3    O     O_R   0.489400 0.255930 0.561910 -0.528509
O4    O     O_R   0.723890 0.306050 0.584610 -0.496620
O5    O     O_3   0.500010 0.500010 0.500020 -0.265165
O6    O     O_R   0.171100 0.914680 0.053100 -0.499939
O7    O     O_R   0.941680 0.184840 0.050710 -0.504716
O8    O     O_R   0.922080 0.403420 0.072610 -0.515502
O9    O     O_R   0.196880 0.369150 0.083850 -0.472564
O10   O     O_R   0.411730 0.181020 0.091530 -0.510498
O11   O     O_R   0.365010 0.944360 0.063320 -0.516627
O12   O     O_R   0.477660 0.726260 0.439290 -0.512108
O13   O     O_R   0.159380 0.906670 0.876210 -0.514165
O14   O     O_R   0.930820 0.177420 0.886730 -0.506370
O15   O     O_R   0.910360 0.395420 0.895720 -0.510261
O16   O     O_R   0.186010 0.361730 0.919870 -0.493977
O17   O     O_R   0.400000 0.173010 0.914630 -0.509812
O18   O     O_R   0.354140 0.936940 0.899340 -0.498276
O19   O     O_3   0.162410 0.162370 0.983930 -0.258430
O20   O     O_R   0.260150 0.743000 0.412270 -0.535903
O21   O     O_R   0.297740 0.466550 0.394720 -0.498006
O22   O     O_R   0.488080 0.253500 0.386430 -0.514206
O23   O     O_R   0.722670 0.303800 0.421940 -0.524050
O24   O     O_R   0.751130 0.502220 0.613520 -0.508410
O25   O     O_R   0.478890 0.728510 0.601960 -0.495568
O26   O     O_R   0.261470 0.745430 0.587750 -0.512055
H14   H     H_    0.665826 0.983378 0.378647 0.134009
C49   C     C_1   0.619258 0.238819 0.920647 0.211684
N1    N     N_1   0.634900 0.283500 0.985867 -0.317216
H15   H     H_    0.557704 0.046001 0.617330 0.134256
H16   H     H_    0.846559 0.061644 0.092069 0.154923
C50   C     C_1   0.214482 0.681124 0.117248 0.195267
N2    N     N_1   0.153143 0.637247 0.068383 -0.284088

loop_
_geom_bond_atom_site_label_1
_geom_bond_atom_site_label_2
_ccdc_geom_bond_type
C25   C31   A    
C1    C21   S    
Cr1   O1    S    
C45   O4    A    
C33   C45   S    
C49   N1    T    
C34   O26   A    
Cr6   O17   S    
C7    C8    A    
C2    C6    A    
C26   C32   A    
C26   C27   A    
C28   C49   S    
C6    H16   S    
C14   C21   A    
C28   C29   A    
Cr2   O2    S    
Cr4   O7    S    
Cr3   O23   S    
C30   C31   A    
C15   C16   A    
C40   O6    A    
C18   C19   A    
C1    O20   A    
Cr2   O5    S    
C19   C20   A    
C8    C9    A    
Cr1   O5    S    
C44   O3    A    
Cr5   O19   S    
Cr3   O3    S    
C38   C48   S    
C18   H2    S    
Cr6   O10   S    
C25   C32   A    
C13   C14   A    
Cr5   O8    S    
Cr3   O4    S    
Cr1   O24   S    
C45   O24   A    
C34   O25   A    
C38   O8    A    
C5    C48   A    
C17   H13   S    
C12   O21   A    
C43   O18   A    
C14   C20   A    
C12   O22   A    
C42   O17   A    
C24   C25   A    
C12   C46   S    
Cr4   O6    S    
Cr6   O19   S    
C2    C48   A    
C43   O13   A    
C15   H12   S    
Cr1   O12   S    
Cr5   O15   S    
C23   O1    A    
C37   C43   S    
C29   C30   A    
C3    C9    A    
C11   C16   A    
C50   N2    T    
C29   H6    S    
C41   O14   A    
C17   C18   A    
C32   C44   S    
C23   O23   A    
C44   O2    A    
Cr2   O26   S    
C39   O9    A    
C26   H4    S    
C7    H9    S    
C19   H14   S    
Cr2   O20   S    
C8    H10   S    
C40   O11   A    
C22   C27   A    
C4    H1    S    
C1    O12   A    
C22   C24   A    
Cr5   O9    S    
Cr3   O5    S    
Cr1   O25   S    
C4    C10   A    
C39   O10   A    
C39   C47   S    
C38   O7    A    
C46   C47   T    
C36   C37   T    
C42   O16   A    
C24   C28   A    
C4    C5    A    
Cr4   O14   S    
Cr6   O18   S    
C16   C50   S    
C6    C7    A    
Cr2   O21   S    
C10   C23   S    
C13   C17   A    
Cr5   O16   S    
Cr4   O19   S    
C2    C3    A    
C3    C10   A    
C27   H5    S    
Cr3   O22   S    
C11   C13   A    
C22   C42   S    
C41   O15   A    
C33   C35   T    
C5    H8    S    
C34   C36   S    
C31   H15   S    
C11   C40   S    
C35   C41   S    
C9    H11   S    
C15   C21   A    
C30   H7    S    
C20   H3    S    
Cr4   O13   S    
Cr6   O11   S    
