data_mof_unit_61124.cif
_audit_creation_date              2012-12-10T19:27:30-0500
_audit_creation_method            fapswitch 2.2
_symmetry_space_group_name_H-M    P1
_symmetry_Int_Tables_number       1
_space_group_crystal_system       triclinic
_cell_length_a                    18.51275
_cell_length_b                    18.848755
_cell_length_c                    18.851498
_cell_angle_alpha                 109.895927
_cell_angle_beta                  109.165324
_cell_angle_gamma                 109.204025
_cell_volume                      5072.8677914

loop_
_atom_site_label
_atom_site_type_symbol
_atom_type_description
_atom_site_fract_x
_atom_site_fract_y
_atom_site_fract_z
_atom_type_partial_charge
Br1   Br    Br    0.133354 0.303136 0.002890 -0.479810
Br2   Br    Br    0.712804 0.433914 0.934988 -0.503756
Br3   Br    Br    0.273194 0.287645 0.153961 -0.397981
Br4   Br    Br    0.659527 0.841731 0.367574 -0.317613
Br5   Br    Br    0.514378 0.684305 0.367602 -0.449333
Br6   Br    Br    0.740238 0.045741 0.566651 -0.392280
Br7   Br    Br    0.150915 0.957815 0.340756 -0.526813
Br8   Br    Br    0.966367 0.708405 0.421338 -0.418605
Br9   Br    Br    0.973500 0.557484 0.273489 -0.430178
Br10  Br    Br    0.021013 0.854935 0.987466 -0.456325
C1    C     C_R   0.380717 0.380440 0.500741 0.873204
C2    C     C_R   0.584180 0.356617 0.645766 -0.182800
C3    C     C_R   0.237928 0.252460 0.427883 0.000202
C4    C     C_R   0.623414 0.503142 0.620305 0.848783
C5    C     C_R   0.316995 0.315619 0.502631 -0.077763
C6    C     C_R   0.332576 0.314434 0.580264 -0.176015
C7    C     C_R   0.268109 0.249106 0.579989 -0.187286
C8    C     C_R   0.187152 0.187181 0.502695 -0.064588
C9    C     C_R   0.174114 0.192467 0.428375 0.029219
C10   C     C_3   0.110191 0.151189 0.333577 -0.118067
C11   C     C_3   0.184192 0.220662 0.333333 0.167985
C12   C     C_R   0.767913 0.586854 0.755383 0.059538
C13   C     C_R   0.287416 0.455096 0.229296 -0.017768
C14   C     C_R   0.308346 0.496724 0.315543 -0.069948
C15   C     C_R   0.261374 0.539348 0.336758 0.109880
C16   C     C_R   0.618626 0.619452 0.498271 0.909807
C17   C     C_R   0.199342 0.541416 0.271335 -0.213860
C18   C     C_R   0.185033 0.502553 0.186596 -0.059842
C19   C     C_R   0.229343 0.459471 0.168030 -0.049212
C20   C     C_3   0.241705 0.410107 0.096651 0.241024
C21   C     C_3   0.307998 0.402685 0.166867 0.348356
C22   C     C_R   0.677520 0.680553 0.421423 0.009223
C23   C     C_R   0.807731 0.516293 0.835470 -0.163373
C24   C     C_R   0.686067 0.683355 0.498445 -0.020934
C25   C     C_R   0.764285 0.745736 0.576128 -0.256427
C26   C     C_R   0.829137 0.811959 0.578572 0.114051
C27   C     C_R   0.813691 0.815317 0.501457 -0.005753
C28   C     C_R   0.377488 0.498196 0.380258 0.944415
C29   C     C_R   0.739254 0.746483 0.423108 -0.076033
C30   C     C_3   0.672548 0.738900 0.345267 0.137744
C31   C     C_3   0.603444 0.664836 0.343735 0.034449
C32   C     C_R   0.001735 0.380209 0.880916 0.928583
C33   C     C_R   0.878664 0.506505 0.887819 0.881119
C34   C     C_R   0.719246 0.447088 0.785476 0.015981
C35   C     C_R   0.000433 0.620172 0.121028 0.901305
C36   C     C_R   0.119990 0.500393 0.119697 0.909991
C37   C     C_R   0.998096 0.118436 0.619401 0.905237
C38   C     C_R   0.120474 0.120450 0.500787 0.896601
C39   C     C_R   0.999252 0.879395 0.380477 0.950104
C40   C     C_R   0.785620 0.664468 0.752080 -0.243492
C41   C     C_R   0.879458 0.881420 0.501203 0.921332
C42   C     C_R   0.923596 0.238713 0.749184 -0.030959
C43   C     C_R   0.001920 0.316090 0.812621 -0.060723
C44   C     C_R   0.077536 0.333165 0.802739 0.120800
C45   C     C_R   0.665538 0.435160 0.704852 -0.002158
C46   C     C_R   0.075668 0.266838 0.738286 -0.246347
C47   C     C_R   0.998746 0.186359 0.682630 -0.110649
C48   C     C_R   0.921140 0.176074 0.683084 0.071973
C49   C     C_3   0.848165 0.103667 0.675915 0.285007
C50   C     C_3   0.851904 0.174084 0.751423 -0.167178
C51   C     C_R   0.932809 0.666107 0.207462 0.036797
C52   C     C_R   0.858721 0.745087 0.821355 0.109927
C53   C     C_R   0.998889 0.686756 0.185569 -0.121816
C54   C     C_R   0.060713 0.774674 0.222713 -0.189143
C55   C     C_R   0.061901 0.839231 0.287847 0.237703
C56   C     C_R   0.690323 0.505628 0.689668 -0.127366
C57   C     C_R   0.000196 0.815284 0.314903 -0.062829
C58   C     C_R   0.932673 0.729701 0.270245 -0.105608
C59   C     C_3   0.892525 0.671060 0.300048 0.009063
C60   C     C_3   0.894959 0.599947 0.231249 0.345550
C61   C     C_R   0.918798 0.747661 0.891864 0.308718
C62   C     C_R   0.903113 0.671910 0.895441 -0.218486
C63   C     C_R   0.827951 0.591222 0.828050 0.037220
C64   C     C_R   0.679870 0.392801 0.814441 0.293792
C65   C     C_R   0.599393 0.315957 0.755538 -0.200715
C66   C     C_R   0.552912 0.295682 0.669763 0.098790
H1    H     H_    0.280851 0.247811 0.639750 0.162432
H2    H     H_    0.110185 0.793277 0.203935 0.210082
H3    H     H_    0.824949 0.659407 0.284924 0.098796
H4    H     H_    0.947277 0.678512 0.954626 0.186410
H5    H     H_    0.570592 0.274572 0.778045 0.171565
H6    H     H_    0.542494 0.342267 0.581406 0.176593
H7    H     H_    0.394317 0.362617 0.639940 0.161151
H8    H     H_    0.453412 0.180648 0.637264 0.201017
H9    H     H_    0.476227 0.180575 0.558252 0.215583
H10   H     H_    0.982632 0.105949 0.308205 0.223441
H11   H     H_    0.044972 0.214322 0.372087 0.201612
H12   H     H_    0.093973 0.083139 0.294248 0.207085
H13   H     H_    0.275982 0.234074 0.293526 0.247978
H14   H     H_    0.238085 0.143176 0.299100 0.210740
H15   H     H_    0.150024 0.317395 0.361376 0.185378
H16   H     H_    0.111872 0.253039 0.254725 0.248512
H17   H     H_    0.214488 0.549654 0.420393 0.202140
H18   H     H_    0.294137 0.644586 0.444303 0.218182
H19   H     H_    0.231927 0.472494 0.027619 0.225084
H20   H     H_    0.329197 0.527206 0.116237 0.185873
H21   H     H_    0.422717 0.513455 0.210842 0.184214
H22   H     H_    0.404058 0.420955 0.132773 0.212413
H23   H     H_    0.162910 0.573259 0.286718 0.176434
H24   H     H_    0.890358 0.904673 0.704617 0.193243
H25   H     H_    0.939868 0.846135 0.681975 0.222136
H26   H     H_    0.169815 0.442249 0.821888 0.193538
H27   H     H_    0.208574 0.404089 0.885540 0.207378
H28   H     H_    0.875636 0.865667 0.878941 0.225552
H29   H     H_    0.814533 0.813419 0.772450 0.163046
H30   H     H_    0.935799 0.073933 0.745338 0.183858
H31   H     H_    0.827820 0.006860 0.706680 0.201067
H32   H     H_    0.943179 0.176134 0.854028 0.237444
H33   H     H_    0.836149 0.115890 0.823836 0.198656
H34   H     H_    0.741466 0.663626 0.697282 0.147358
H35   H     H_    0.767464 0.552722 0.137419 0.183656
H36   H     H_    0.778353 0.494294 0.186527 0.208320
H37   H     H_    0.774254 0.743888 0.634726 0.134225
H38   H     H_    0.682971 0.715628 0.288787 0.088257
H39   H     H_    0.576071 0.600632 0.286607 0.105499
H40   H     H_    0.134478 0.277562 0.733000 0.147303
H41   H     H_    0.792169 0.181102 0.733434 0.203011
N1    N     N_3   0.469409 0.217744 0.608635 -0.430884
N2    N     N_3   0.871090 0.824707 0.821869 -0.425109
N3    N     N_3   0.872316 0.041949 0.692574 -0.444196
N4    N     N_3   0.882132 0.173426 0.833418 -0.401233
N5    N     N_3   0.807319 0.528355 0.160746 -0.388221
N6    N     N_3   0.032002 0.161166 0.317618 -0.435923
N7    N     N_3   0.219080 0.183375 0.280509 -0.372853
N8    N     N_3   0.166163 0.285409 0.316922 -0.422300
N9    N     N_3   0.274813 0.579038 0.423079 -0.412504
N10   N     N_3   0.281098 0.464371 0.064827 -0.463160
N11   N     N_3   0.400177 0.447502 0.189025 -0.425953
N12   N     N_3   0.908106 0.877078 0.659648 -0.413770
N13   N     N_3   0.157039 0.415379 0.859557 -0.432389
O1    O     O_R   0.408400 0.356680 0.448290 -0.632775
O2    O     O_R   0.948300 0.091670 0.539990 -0.595539
O3    O     O_R   0.143340 0.091640 0.551750 -0.616734
O4    O     O_R   0.408370 0.460100 0.551700 -0.619695
O5    O     O_R   0.039900 0.091690 0.448360 -0.640712
O6    O     O_R   0.051700 0.908430 0.460110 -0.568103
O7    O     O_R   0.948260 0.908480 0.356720 -0.632081
O8    O     O_R   0.960100 0.908410 0.551740 -0.592979
O9    O     O_R   0.856660 0.908460 0.448350 -0.589977
O10   O     O_R   0.591630 0.448290 0.539910 -0.621434
O11   O     O_R   0.591590 0.551710 0.643320 -0.622794
O12   O     O_R   0.051700 0.460090 0.908430 -0.611991
O13   O     O_R   0.591630 0.539900 0.448300 -0.617231
O14   O     O_R   0.591600 0.643320 0.551710 -0.612995
O15   O     O_R   0.408410 0.448290 0.356680 -0.592121
O16   O     O_R   0.408370 0.551710 0.460090 -0.589827
O17   O     O_R   0.948260 0.356680 0.908450 -0.591855
O18   O     O_R   0.856640 0.448300 0.908430 -0.588162
O19   O     O_R   0.960090 0.551710 0.908400 -0.623368
O20   O     O_R   0.948250 0.539920 0.091630 -0.562815
O21   O     O_R   0.051690 0.643330 0.091610 -0.640882
O22   O     O_R   0.039870 0.448310 0.091660 -0.584231
O23   O     O_R   0.143310 0.551720 0.091640 -0.630812
O24   O     O_R   0.051740 0.091620 0.643380 -0.622769
Zn1   Zn    Zn3+2 0.500020 0.430950 0.430950 1.023733
Zn2   Zn    Zn3+2 0.499980 0.569050 0.569050 1.006749
Zn3   Zn    Zn3+2 0.930910 0.430960 0.000050 1.089624
Zn4   Zn    Zn3+2 0.069050 0.569060 0.000020 1.011750
Zn5   Zn    Zn3+2 0.069070 0.000020 0.569080 1.053824
Zn6   Zn    Zn3+2 0.930930 0.000080 0.431020 1.034786

loop_
_geom_bond_atom_site_label_1
_geom_bond_atom_site_label_2
_ccdc_geom_bond_type
C51   C60   S    
C36   O22   A    
C49   N3    S    
O20   Zn3   S    
C39   O7    A    
C38   O5    A    
C25   C26   A    
C34   C45   A    
H32   N4    S    
C65   C66   A    
H16   N8    S    
C43   C44   A    
C17   H23   S    
Br8   C59   S    
O2    Zn6   S    
C13   C19   A    
C26   C27   A    
O12   Zn4   S    
C35   O20   A    
C59   C60   S    
C32   C43   S    
C20   C21   S    
C27   C41   S    
C37   C47   S    
C5    C6    A    
C40   H34   S    
C46   C47   A    
C24   C25   A    
C22   C29   A    
O23   Zn4   S    
C51   C53   A    
H17   N9    S    
C28   O16   A    
C10   N6    S    
C33   O18   A    
C42   C50   S    
C20   N10   S    
O6    Zn5   S    
C1    C5    S    
O8    Zn5   S    
C16   C24   S    
C30   H38   S    
Br4   C30   S    
C58   C59   S    
C55   C57   A    
C32   O12   A    
C14   C28   S    
C13   C14   A    
C39   C57   S    
O19   Zn4   S    
C33   O19   A    
C12   C40   A    
H28   N2    S    
Br10  C61   S    
H22   N11   S    
C4    O11   A    
C49   C50   S    
H35   N5    S    
H9    N1    S    
H14   N7    S    
C21   N11   S    
C31   H39   S    
H21   N11   S    
C16   O14   A    
C32   O17   A    
H18   N9    S    
C4    C56   S    
C44   N13   S    
C44   C46   A    
C64   C65   A    
C3    C9    A    
C2    H6    S    
C57   C58   A    
C23   C33   S    
O21   Zn4   S    
C38   O3    A    
O4    Zn2   S    
Br9   C60   S    
C1    O4    A    
C29   C30   S    
H24   N12   S    
C8    C9    A    
C48   C49   S    
C35   C53   S    
C6    H7    S    
C66   N1    S    
H20   N10   S    
C8    C38   S    
C35   O21   A    
C13   C21   S    
O14   Zn2   S    
C34   C64   A    
C15   N9    S    
C28   O15   A    
H36   N5    S    
C19   C20   S    
Br7   C55   S    
C60   N5    S    
O13   Zn1   S    
C22   C31   S    
C18   C36   S    
C7    H1    S    
C7    C8    A    
C46   H40   S    
C3    C11   S    
C50   H41   S    
C14   C15   A    
Br3   C21   S    
C52   N2    S    
C42   C48   A    
C23   C63   A    
C30   C31   S    
H13   N7    S    
C39   O6    A    
C4    O10   A    
O9    Zn6   S    
C3    C5    A    
H8    N1    S    
H25   N12   S    
C40   C52   A    
C59   H3    S    
C11   N8    S    
C16   O13   A    
O17   Zn3   S    
H31   N3    S    
C17   C18   A    
C45   C56   A    
C42   C43   A    
C36   O23   A    
Br5   C31   S    
O22   Zn3   S    
C18   C19   A    
O5    Zn6   S    
H15   N8    S    
O7    Zn6   S    
H30   N3    S    
C23   C34   A    
C54   H2    S    
Br6   C49   S    
C65   H5    S    
H26   N13   S    
C62   C63   A    
C1    O1    A    
O11   Zn2   S    
C12   C56   A    
C37   O24   A    
C15   C17   A    
C37   O2    A    
C54   C55   A    
C9    C10   S    
C2    C66   A    
C61   C62   A    
C27   C29   A    
C26   N12   S    
H11   N6    S    
C51   C58   A    
H33   N4    S    
C47   C48   A    
C6    C7    A    
C11   N7    S    
C10   H12   S    
O1    Zn1   S    
Br1   C20   S    
C52   C61   A    
C25   H37   S    
O18   Zn3   S    
C50   N4    S    
H27   N13   S    
C2    C45   A    
O10   Zn1   S    
C53   C54   A    
O15   Zn1   S    
C41   O8    A    
H19   N10   S    
O24   Zn5   S    
O16   Zn2   S    
C10   C11   S    
C62   H4    S    
H10   N6    S    
H29   N2    S    
C12   C63   A    
O3    Zn5   S    
Br2   C64   S    
C22   C24   A    
C41   O9    A    
