data_mof_unit_30426.cif
_audit_creation_date              2012-12-10T20:40:04-0500
_audit_creation_method            fapswitch 2.2
_symmetry_space_group_name_H-M    P1
_symmetry_Int_Tables_number       1
_space_group_crystal_system       triclinic
_cell_length_a                    23.396054
_cell_length_b                    10.6711
_cell_length_c                    9.844198
_cell_angle_alpha                 90.224819
_cell_angle_beta                  89.933081
_cell_angle_gamma                 89.976042
_cell_volume                      2457.69772088

loop_
_atom_site_label
_atom_site_type_symbol
_atom_type_description
_atom_site_fract_x
_atom_site_fract_y
_atom_site_fract_z
_atom_type_partial_charge
C1    C     C_R   0.498086 0.259913 0.499600 0.869478
C2    C     C_R   0.971294 0.362249 0.287845 0.171187
C3    C     C_R   0.031120 0.363141 0.291535 -0.152671
C4    C     C_R   0.060743 0.425513 0.394852 -0.066263
C5    C     C_R   0.030464 0.488688 0.497659 -0.021893
C6    C     C_R   0.060399 0.551878 0.601828 -0.008434
C7    C     C_R   0.030291 0.614822 0.704490 -0.162076
C8    C     C_R   0.970991 0.615983 0.703684 -0.160097
C9    C     C_R   0.120508 0.427052 0.397424 0.524816
C10   C     C_R   0.120058 0.550779 0.600242 0.512719
C11   C     C_R   0.237699 0.599542 0.457047 -0.110602
C12   C     C_R   0.389713 0.499433 0.500082 0.882412
C13   C     C_R   0.297158 0.604073 0.457781 0.109183
C14   C     C_R   0.327969 0.496924 0.500038 -0.039657
C15   C     C_R   0.298964 0.386860 0.540963 0.115672
C16   C     C_R   0.239466 0.385921 0.539814 -0.107585
C17   C     C_R   0.209245 0.491450 0.498172 0.230592
C18   C     C_R   0.761291 0.437536 0.601073 -0.098348
C19   C     C_R   0.702085 0.441186 0.601889 -0.277424
C20   C     C_R   0.672689 0.505606 0.499689 -0.072302
C21   C     C_R   0.703123 0.570304 0.397592 0.188108
C22   C     C_R   0.762707 0.565226 0.397574 -0.170434
C23   C     C_R   0.498278 0.740182 0.500012 0.859272
C24   C     C_R   0.791534 0.498927 0.498699 0.291735
C25   C     C_R   0.475188 0.064751 0.616048 0.068064
C26   C     C_R   0.488265 0.128808 0.497062 -0.084540
C27   C     C_R   0.489975 0.064128 0.372918 -0.222387
C28   C     C_R   0.490520 0.935013 0.373509 -0.216795
C29   C     C_R   0.488899 0.871535 0.497934 -0.121842
C30   C     C_R   0.475232 0.936636 0.616479 0.069130
C31   C     C_3   0.500020 0.931308 0.756594 0.040791
C32   C     C_3   0.499817 0.074139 0.755703 -0.515339
C33   C     C_R   0.469682 0.411570 0.071071 0.204919
C34   C     C_R   0.610576 0.501865 0.499842 0.891590
C35   C     C_R   0.534420 0.578731 0.072313 -0.136258
C36   C     C_R   0.534432 0.578727 0.928146 -0.091217
C37   C     C_R   0.469636 0.411762 0.928287 0.157548
C38   C     C_3   0.406678 0.390779 0.921677 -0.491889
C39   C     C_3   0.406533 0.391166 0.076517 -0.067949
C40   C     C_R   0.881298 0.556057 0.598306 0.503725
C41   C     C_R   0.879664 0.430142 0.396686 0.514134
C42   C     C_R   0.939999 0.426047 0.391795 -0.036994
C43   C     C_R   0.970315 0.489290 0.496423 -0.058334
C44   C     C_R   0.940735 0.554017 0.600346 -0.004321
H1    H     H_    0.679176 0.391388 0.680709 0.170692
H2    H     H_    0.786842 0.614063 0.320131 0.143817
H3    H     H_    0.495890 0.111921 0.277030 0.171432
H4    H     H_    0.497026 0.886197 0.278265 0.175777
H5    H     H_    0.543273 0.887900 0.760122 0.148071
H6    H     H_    0.469305 0.118001 0.828358 0.203688
H7    H     H_    0.543510 0.115089 0.756434 0.195017
H8    H     H_    0.561184 0.644239 0.127076 0.160528
H9    H     H_    0.054812 0.314791 0.212475 0.193305
H10   H     H_    0.561217 0.644235 0.873796 0.144713
H11   H     H_    0.383439 0.471923 0.877691 0.215334
H12   H     H_    0.396098 0.298912 0.874333 0.204136
H13   H     H_    0.382963 0.471963 0.121303 0.198482
H14   H     H_    0.052399 0.663730 0.785477 0.192609
H15   H     H_    0.948959 0.665826 0.784276 0.191381
H16   H     H_    0.213170 0.680500 0.425330 0.154887
H17   H     H_    0.216309 0.302900 0.571083 0.155305
H18   H     H_    0.783797 0.386279 0.679262 0.152363
N1    N     N_R   0.852398 0.494820 0.497946 -0.350527
N2    N     N_R   0.148510 0.489351 0.498812 -0.347807
N3    N     N_R   0.499610 0.499140 0.142800 -0.119953
N4    N     N_R   0.499610 0.499180 0.857150 -0.100698
O1    O     O_R   0.500010 0.316790 0.614690 -0.616894
O2    O     O_2   0.847896 0.369958 0.302803 -0.567889
O3    O     O_2   0.150556 0.367768 0.299193 -0.558013
O4    O     O_2   0.149575 0.610234 0.699058 -0.555669
O5    O     O_R   0.500000 0.316760 0.385350 -0.624665
O6    O     O_R   0.416160 0.499980 0.614700 -0.611200
O7    O     O_R   0.416150 0.499940 0.385360 -0.623109
O8    O     O_R   0.500000 0.683240 0.614650 -0.609411
O9    O     O_R   0.499990 0.683210 0.385310 -0.625119
O10   O     O_R   0.583850 0.500060 0.614640 -0.628690
O11   O     O_R   0.583840 0.500020 0.385300 -0.582035
O12   O     O_2   0.852296 0.619619 0.695236 -0.562873
Zn1   Zn    Zn3+2 0.500000 0.500020 0.653130 0.953095
Zn2   Zn    Zn3+2 0.500000 0.499980 0.346870 0.950028
C45   C     C_3   0.943384 0.293183 0.171152 -0.769955
H19   H     H_    0.916872 0.214987 0.210337 0.267204
H20   H     H_    0.916984 0.358861 0.110534 0.266396
H21   H     H_    0.975276 0.251325 0.100637 0.207538
N5    N     N_2   0.674331 0.641010 0.296000 -0.296741
H22   H     H_    0.696228 0.646444 0.205168 0.228298
C46   C     C_3   0.654204 0.762448 0.341373 -0.764087
H23   H     H_    0.691032 0.823597 0.367749 0.240338
H24   H     H_    0.625873 0.753129 0.431327 0.233190
H25   H     H_    0.629324 0.807461 0.258864 0.229004
N6    N     N_2   0.459923 0.878137 0.853281 -0.261648
H26   H     H_    0.417805 0.904404 0.840257 0.241456
C47   C     C_3   0.478095 0.882480 0.993465 -0.796373
H27   H     H_    0.449884 0.821408 0.055250 0.245635
H28   H     H_    0.475300 0.979869 0.033164 0.227966
H29   H     H_    0.522749 0.848487 0.003510 0.232323
C48   C     C_3   0.390544 0.265026 0.139403 -0.834209
H30   H     H_    0.416447 0.187477 0.095364 0.224773
H31   H     H_    0.397670 0.268339 0.250813 0.261912
H32   H     H_    0.344616 0.245580 0.120622 0.255724
C49   C     C_3   0.325325 0.725142 0.415268 -0.886383
H33   H     H_    0.372452 0.723984 0.425335 0.238423
H34   H     H_    0.314734 0.744958 0.307552 0.246874
H35   H     H_    0.309066 0.803204 0.479499 0.245149
C50   C     C_3   0.329090 0.268217 0.583874 -0.913830
H36   H     H_    0.376233 0.274539 0.578366 0.236693
H37   H     H_    0.317173 0.245465 0.690159 0.246589
H38   H     H_    0.315685 0.189643 0.516832 0.248211

loop_
_geom_bond_atom_site_label_1
_geom_bond_atom_site_label_2
_ccdc_geom_bond_type
C46   H23   S    
C49   H33   S    
C9    N2    A    
C3    H9    S    
C41   C42   A    
C19   C20   A    
O10   Zn1   S    
C48   H32   S    
C45   H19   S    
C33   N3    A    
C7    C8    A    
N5    H22   S    
N4    Zn1   S    
C50   H37   S    
C26   C27   A    
C47   H27   S    
C40   N1    A    
C18   C24   A    
C23   C29   S    
C28   C29   A    
C9    O3    S    
O6    Zn1   S    
C8    H15   S    
C30   C31   S    
C36   N4    A    
C39   C48   S    
C35   N3    A    
C15   C16   A    
C39   H13   S    
C18   C19   A    
C45   H20   S    
C28   H4    S    
C38   H11   S    
C35   C36   A    
C16   C17   A    
C29   C30   A    
O9    Zn2   S    
C7    H14   S    
C20   C34   S    
C25   C32   S    
C12   O6    A    
C47   H28   S    
N3    Zn2   S    
C21   C22   A    
C31   H5    S    
C12   O7    A    
O5    Zn2   S    
C48   H31   S    
C48   H30   S    
C41   O2    S    
N5    C46   S    
C38   C39   S    
C50   H38   S    
C21   N5    S    
O1    Zn1   S    
N6    H26   S    
C18   H18   S    
C25   C26   A    
C33   C37   A    
C43   C44   A    
C32   H7    S    
C37   C38   S    
N6    C47   S    
C31   C32   S    
C2    C42   A    
C37   N4    A    
C33   C39   S    
C32   H6    S    
C10   O4    S    
C22   H2    S    
C12   C14   S    
C24   N1    S    
C31   N6    S    
O8    Zn1   S    
C46   H24   S    
C1    C26   S    
C40   O12   S    
C16   H17   S    
C41   N1    A    
C23   O8    A    
C13   C49   S    
C3    C4    A    
C35   H8    S    
C45   H21   S    
O11   Zn2   S    
C27   H3    S    
C25   C30   A    
C11   C17   A    
C10   N2    A    
C8    C44   A    
C23   O9    A    
C4    C5    A    
C6    C10   A    
C19   H1    S    
C6    C7    A    
C47   H29   S    
C50   H36   S    
C34   O11   A    
C15   C50   S    
C2    C3    A    
C17   N2    S    
C11   C13   A    
C5    C6    A    
C1    O5    A    
C1    O1    A    
O7    Zn2   S    
C22   C24   A    
C5    C43   A    
C36   H10   S    
C40   C44   A    
C38   H12   S    
C20   C21   A    
C49   H34   S    
C42   C43   A    
C46   H25   S    
C27   C28   A    
C14   C15   A    
C2    C45   S    
C49   H35   S    
C4    C9    A    
C13   C14   A    
C11   H16   S    
C34   O10   A    
