data_mof_unit_33240.cif
_audit_creation_date              2012-10-26T21:02:39-0400
_audit_creation_method            fapswitch 2.2
_symmetry_space_group_name_H-M    P1
_symmetry_Int_Tables_number       1
_space_group_crystal_system       triclinic
_cell_length_a                    12.315527
_cell_length_b                    13.194153
_cell_length_c                    15.064579
_cell_angle_alpha                 77.490561
_cell_angle_beta                  101.370515
_cell_angle_gamma                 116.61662
_cell_volume                      2122.41658086

loop_
_atom_site_label
_atom_site_type_symbol
_atom_type_description
_atom_site_fract_x
_atom_site_fract_y
_atom_site_fract_z
_atom_type_partial_charge
C1    C     C_R   0.854862 0.286593 0.508006 0.531251
C2    C     C_R   0.092622 0.485401 0.832240 -0.138728
C3    C     C_R   0.998733 0.498869 0.768169 -0.014068
C4    C     C_R   0.999436 0.499557 0.671223 0.548070
C5    C     C_R   0.904481 0.511515 0.797009 -0.142357
C6    C     C_R   0.275280 0.021280 0.377351 -0.129943
C7    C     C_R   0.227943 0.834482 0.467405 -0.001477
C8    C     C_R   0.815624 0.085314 0.567916 -0.132011
C9    C     C_R   0.736916 0.970369 0.585772 -0.139451
C10   C     C_R   0.613501 0.932614 0.553415 -0.120417
C11   C     C_R   0.566619 0.009406 0.498923 0.032531
C12   C     C_R   0.904408 0.511488 0.075474 0.011154
C13   C     C_R   0.650069 0.123863 0.471844 0.024210
C14   C     C_R   0.439888 0.976095 0.469550 0.028636
C15   C     C_R   0.400104 0.053288 0.406886 0.051317
C16   C     C_R   0.145104 0.713403 0.486464 0.549797
C17   C     C_R   0.485423 0.160457 0.372656 -0.138852
C18   C     C_R   0.608641 0.194670 0.403490 -0.121305
C19   C     C_R   0.351066 0.868482 0.501249 -0.134715
C20   C     C_R   0.189497 0.911916 0.406985 -0.135340
C21   C     C_R   0.773084 0.163635 0.513143 -0.002010
C22   C     C_R   0.347578 0.329285 0.646566 -0.149636
C23   C     C_R   0.187502 0.472238 0.081537 -0.135465
C24   C     C_R   0.759031 0.645056 0.375683 0.045856
C25   C     C_R   0.662225 0.676531 0.348815 -0.161888
C26   C     C_R   0.558990 0.621880 0.395543 -0.138664
C27   C     C_R   0.551300 0.534496 0.470306 -0.006248
C28   C     C_R   0.000228 0.499960 0.328809 0.546728
C29   C     C_R   0.653129 0.505316 0.495458 0.179984
C30   C     C_R   0.447102 0.475251 0.521094 -0.013527
C31   C     C_R   0.447367 0.388671 0.595529 0.036685
C32   C     C_R   0.547228 0.361766 0.618912 -0.177620
C33   C     C_R   0.647612 0.418769 0.570191 -0.102457
C34   C     C_R   0.187189 0.472094 0.988988 -0.135560
C35   C     C_R   0.341824 0.497657 0.501770 0.038382
C36   C     C_R   0.247353 0.355565 0.624116 0.039255
C37   C     C_R   0.905608 0.511958 0.168001 -0.141881
C38   C     C_R   0.999977 0.499254 0.231970 -0.013585
C39   C     C_R   0.093744 0.485839 0.203162 -0.138398
C40   C     C_R   0.093925 0.485308 0.110814 0.011424
C41   C     C_R   0.998958 0.498240 0.046675 0.061645
C42   C     C_R   0.093313 0.485046 0.924822 0.010821
C43   C     C_R   0.998646 0.498108 0.953621 0.061675
C44   C     C_R   0.903787 0.511211 0.889448 0.011553
C45   C     C_R   0.810025 0.523959 0.918764 -0.135368
C46   C     C_R   0.810349 0.524123 0.011328 -0.135904
Cu1   Cu    Cu3+1 0.098270 0.475420 0.521130 0.926269
Cu2   Cu    Cu3+1 0.901730 0.524580 0.478870 0.913639
H1    H     H_    0.832765 0.522014 0.190046 0.123957
H2    H     H_    0.548067 0.295747 0.675895 0.111198
H3    H     H_    0.347188 0.262969 0.703541 0.092362
H4    H     H_    0.166884 0.476213 0.252409 0.124736
H5    H     H_    0.333592 0.561797 0.446422 0.117752
H6    H     H_    0.838786 0.688027 0.339054 0.123524
H7    H     H_    0.486895 0.649762 0.371802 0.099326
H8    H     H_    0.667236 0.743578 0.291556 0.103374
H9    H     H_    0.719123 0.391852 0.594099 0.184081
H10   H     H_    0.260874 0.462242 0.130171 0.106146
H11   H     H_    0.260344 0.461991 0.967569 0.105373
H12   H     H_    0.456839 0.218292 0.321732 0.105978
H13   H     H_    0.165653 0.475627 0.810212 0.126640
H14   H     H_    0.831541 0.521454 0.747712 0.127120
H15   H     H_    0.736652 0.533944 0.870122 0.108778
H16   H     H_    0.737208 0.534243 0.032749 0.105179
H17   H     H_    0.094239 0.886498 0.379892 0.122601
H18   H     H_    0.244463 0.079755 0.329342 0.107358
H19   H     H_    0.375030 0.808250 0.551871 0.118937
H20   H     H_    0.909632 0.113328 0.598951 0.128180
H21   H     H_    0.558086 0.842294 0.570577 0.104481
H22   H     H_    0.771054 0.910535 0.627426 0.120021
H23   H     H_    0.670779 0.276227 0.370895 0.150951
H24   H     H_    0.169993 0.310050 0.663203 0.118112
N1    N     N_R   0.246280 0.438190 0.553160 -0.233739
N2    N     N_R   0.754320 0.561190 0.447410 -0.236237
O1    O     O_R   0.972510 0.318130 0.526570 -0.500775
O2    O     O_R   0.806530 0.359650 0.490890 -0.528440
O3    O     O_R   0.082980 0.479210 0.647590 -0.505723
O4    O     O_R   0.917000 0.520730 0.611900 -0.521063
O5    O     O_R   0.193470 0.640350 0.509110 -0.508444
O6    O     O_R   0.027490 0.681870 0.473430 -0.501802
O7    O     O_R   0.083000 0.479270 0.388100 -0.506107
O8    O     O_R   0.917020 0.520790 0.352410 -0.517844

loop_
_geom_bond_atom_site_label_1
_geom_bond_atom_site_label_2
_ccdc_geom_bond_type
C23   H10   S    
C1    C21   S    
C35   H5    S    
Cu2   O2    S    
C34   C42   A    
C25   H8    S    
Cu1   O5    S    
C26   H7    S    
C45   C46   A    
C26   C27   A    
C37   C38   A    
C13   C18   A    
C30   C31   A    
C11   C14   A    
C27   C29   A    
C24   H6    S    
C23   C40   A    
C29   C33   A    
Cu2   O4    S    
C12   C37   A    
C6    C15   A    
Cu1   Cu2   S    
C8    C9    A    
C19   H19   S    
C9    C10   A    
C2    H13   S    
C39   H4    S    
C27   C30   A    
C41   C43   A    
C8    C21   A    
C22   C31   A    
C28   O8    A    
C1    O1    A    
Cu2   N2    S    
C20   H17   S    
C9    H22   S    
Cu1   N1    S    
C12   C46   A    
C10   C11   A    
C39   C40   A    
C29   N2    A    
C25   C26   A    
C45   H15   S    
C46   H16   S    
C16   O6    A    
C43   C44   A    
C4    O4    A    
C12   C41   A    
C37   H1    S    
C31   C32   A    
C28   C38   S    
C23   C34   A    
C17   C18   A    
C13   C21   A    
C24   C25   A    
C32   H2    S    
C30   C35   A    
C7    C16   S    
C5    C44   A    
C8    H20   S    
C7    C19   A    
C34   H11   S    
C42   C43   A    
Cu1   O3    S    
C3    C4    S    
C22   C36   A    
C44   C45   A    
C18   H23   S    
C15   C17   A    
C35   N1    A    
C33   H9    S    
C28   O7    A    
C1    O2    A    
C14   C19   A    
C3    C5    A    
C6    C20   A    
C16   O5    A    
C32   C33   A    
Cu2   O6    S    
C2    C3    A    
Cu1   O1    S    
C4    O3    A    
C11   C13   A    
C24   N2    A    
C38   C39   A    
C2    C42   A    
Cu2   O8    S    
C5    H14   S    
Cu1   O7    S    
C36   N1    A    
C17   H12   S    
C10   H21   S    
C6    H18   S    
C7    C20   A    
C14   C15   A    
C40   C41   A    
C36   H24   S    
C22   H3    S    
