data_mof_unit_32992.cif
_audit_creation_date              2012-10-26T19:56:21-0400
_audit_creation_method            fapswitch 2.2
_symmetry_space_group_name_H-M    P1
_symmetry_Int_Tables_number       1
_space_group_crystal_system       triclinic
_cell_length_a                    10.835019
_cell_length_b                    10.61944
_cell_length_c                    9.438146
_cell_angle_alpha                 91.219238
_cell_angle_beta                  90.936303
_cell_angle_gamma                 90.362891
_cell_volume                      1085.55530696

loop_
_atom_site_label
_atom_site_type_symbol
_atom_type_description
_atom_site_fract_x
_atom_site_fract_y
_atom_site_fract_z
_atom_type_partial_charge
Br1   Br    Br    0.330779 0.724407 0.882849 -0.573106
Br2   Br    Br    0.669214 0.275585 0.117145 -0.573235
C1    C     C_R   0.500183 0.259444 0.498699 0.551074
C2    C     C_3   0.394409 0.043256 0.554862 -0.126777
C3    C     C_3   0.499801 0.877598 0.503227 0.044201
C4    C     C_3   0.500145 0.122403 0.496772 0.044174
C5    C     C_3   0.490627 0.963672 0.635012 -0.105490
C6    C     C_3   0.509316 0.036330 0.364990 -0.105455
C7    C     C_3   0.389173 0.486475 0.048304 -0.011756
C8    C     C_3   0.610823 0.513523 0.951694 -0.011794
C9    C     C_3   0.455214 0.395224 0.945708 -0.007384
C10   C     C_3   0.544785 0.604776 0.054290 -0.007368
C11   C     C_3   0.434463 0.590395 0.951674 0.245935
C12   C     C_R   0.499802 0.740556 0.501301 0.551146
C13   C     C_3   0.565535 0.409604 0.048325 0.245911
C14   C     C_R   0.262543 0.495673 0.498572 0.537977
C15   C     C_R   0.737461 0.504289 0.501429 0.538015
C16   C     C_R   0.110599 0.297397 0.019277 -0.116644
C17   C     C_R   0.889408 0.702164 0.980838 -0.116632
C18   C     C_R   0.067764 0.373190 0.130653 -0.096130
C19   C     C_R   0.932145 0.626332 0.869440 -0.096179
C20   C     C_R   0.110487 0.355696 0.270489 0.041838
C21   C     C_R   0.889551 0.644068 0.729586 0.041954
C22   C     C_R   0.194849 0.258684 0.296874 -0.053499
C23   C     C_R   0.871533 0.506292 0.503280 -0.005605
C24   C     C_R   0.805392 0.741320 0.703188 -0.053522
C25   C     C_R   0.237542 0.183216 0.184873 -0.094556
C26   C     C_R   0.762816 0.816885 0.815193 -0.094551
C27   C     C_R   0.195744 0.202607 0.046397 -0.110782
C28   C     C_R   0.804495 0.797265 0.953697 -0.110637
C29   C     C_R   0.929633 0.439915 0.393977 -0.144931
C30   C     C_R   0.070372 0.559912 0.606066 -0.144904
C31   C     C_R   0.128474 0.493579 0.496737 -0.005603
C32   C     C_R   0.942455 0.567775 0.611575 -0.033343
C33   C     C_R   0.057559 0.432037 0.388470 -0.033329
C34   C     C_3   0.596435 0.045088 0.576828 -0.128053
C35   C     C_3   0.403506 0.954917 0.423173 -0.128081
C36   C     C_3   0.605535 0.956749 0.445137 -0.126722
Cu1   Cu    Cu3+1 0.500030 0.499990 0.643150 0.983198
Cu2   Cu    Cu3+1 0.499970 0.500010 0.356850 0.983189
H1    H     H_    0.228959 0.143800 0.960226 0.124756
H2    H     H_    0.998740 0.553690 0.891808 0.111505
H3    H     H_    0.225934 0.240239 0.403926 0.091861
H4    H     H_    0.774403 0.759909 0.596116 0.091817
H5    H     H_    0.301872 0.108543 0.205122 0.115716
H6    H     H_    0.698706 0.891851 0.794911 0.115644
H7    H     H_    0.874260 0.389895 0.314066 0.177965
H8    H     H_    0.125730 0.609918 0.686005 0.178029
H9    H     H_    0.692030 0.918384 0.400525 0.111252
H10   H     H_    0.307911 0.081659 0.599510 0.111229
H11   H     H_    0.675583 0.085414 0.639150 0.126885
H12   H     H_    0.771371 0.856144 0.039866 0.124754
H13   H     H_    0.324354 0.914611 0.360847 0.126956
H14   H     H_    0.482208 0.932400 0.745811 0.164417
H15   H     H_    0.517633 0.067614 0.254148 0.164288
H16   H     H_    0.418126 0.306888 0.896016 0.121868
H17   H     H_    0.581878 0.693112 0.103977 0.121884
H18   H     H_    0.295951 0.479455 0.093397 0.143191
H19   H     H_    0.704032 0.520527 0.906582 0.143212
H20   H     H_    0.077724 0.312170 0.912049 0.121039
H21   H     H_    0.922168 0.687192 0.088082 0.121037
H22   H     H_    0.000987 0.445617 0.108257 0.111584
N1    N     N_3   0.500090 0.499970 0.858290 -0.243132
N2    N     N_3   0.499910 0.500030 0.141710 -0.243119
O1    O     O_R   0.500060 0.316850 0.620870 -0.511989
O2    O     O_R   0.499940 0.683150 0.379130 -0.511974
O3    O     O_R   0.500000 0.316860 0.379090 -0.465687
O4    O     O_R   0.500000 0.683140 0.620910 -0.465641
O5    O     O_R   0.319670 0.500010 0.620890 -0.483991
O6    O     O_R   0.680330 0.499990 0.379110 -0.483970
O7    O     O_R   0.319620 0.500010 0.379110 -0.501964
O8    O     O_R   0.680380 0.499990 0.620890 -0.501966

loop_
_geom_bond_atom_site_label_1
_geom_bond_atom_site_label_2
_ccdc_geom_bond_type
C23   C29   A    
Cu2   O7    S    
C3    C35   S    
C25   C27   A    
C7    N2    S    
C30   H8    S    
C5    C34   S    
C8    N1    S    
C22   C25   A    
C1    C4    S    
C24   H4    S    
C36   H9    S    
C20   C33   S    
C26   H6    S    
Cu2   O6    S    
C17   C19   A    
C9    N1    S    
C8    C13   S    
C10   N2    S    
C7    H18   S    
Cu1   O4    S    
C21   C24   A    
C7    C11   S    
C9    C13   S    
Cu2   O3    S    
C13   N2    S    
C23   C32   A    
C35   H13   S    
C25   H5    S    
C15   O6    A    
Cu2   O2    S    
C3    C36   S    
Cu1   O1    S    
C1    O1    A    
C14   O7    A    
C6    C36   S    
C2    C5    S    
C6    H15   S    
C12   O2    A    
C2    C4    S    
Cu1   Cu2   S    
C3    C5    S    
C4    C6    S    
C2    H10   S    
C30   C32   A    
C14   C31   S    
C11   N1    S    
Cu1   O8    S    
C21   C32   S    
Cu1   O5    S    
C16   C27   A    
C2    C35   S    
Br2   C13   S    
C7    C9    S    
C3    C12   S    
C34   H11   S    
C8    C10   S    
C10   H17   S    
C16   H20   S    
C18   C20   A    
C19   C21   A    
C20   C22   A    
Br1   C11   S    
C6    C35   S    
C28   H12   S    
C27   H1    S    
C1    O3    A    
C14   O5    A    
Cu1   N1    S    
C24   C26   A    
Cu2   N2    S    
C15   C23   S    
C30   C31   A    
C26   C28   A    
C8    H19   S    
C17   H21   S    
C29   C33   A    
C34   C36   S    
C31   C33   A    
C4    C34   S    
C16   C18   A    
C18   H22   S    
C19   H2    S    
C10   C11   S    
C15   O8    A    
C22   H3    S    
C12   O4    A    
C29   H7    S    
C5    H14   S    
C17   C28   A    
C9    H16   S    
