data_mof_unit_8399.cif
_audit_creation_date              2012-12-10T18:07:04-0500
_audit_creation_method            fapswitch 2.2
_symmetry_space_group_name_H-M    P1
_symmetry_Int_Tables_number       1
_space_group_crystal_system       triclinic
_cell_length_a                    10.827
_cell_length_b                    12.716647
_cell_length_c                    13.882525
_cell_angle_alpha                 97.908512
_cell_angle_beta                  91.097475
_cell_angle_gamma                 92.218705
_cell_volume                      1891.21240165

loop_
_atom_site_label
_atom_site_type_symbol
_atom_type_description
_atom_site_fract_x
_atom_site_fract_y
_atom_site_fract_z
_atom_type_partial_charge
C1    C     C_R   0.496333 0.483467 0.315811 0.802416
C2    C     C_3   0.878862 0.494355 0.491390 -0.034644
C3    C     C_3   0.941908 0.523158 0.596796 -0.110929
C4    C     C_3   0.923262 0.582423 0.425898 -0.124356
C5    C     C_1   0.496313 0.526227 0.787372 -0.184319
C6    C     C_2   0.502063 0.537627 0.978117 -0.191746
C7    C     C_2   0.472151 0.452254 0.021352 0.106889
C8    C     C_1   0.480775 0.463307 0.125474 -0.052550
C9    C     C_1   0.498126 0.533240 0.874387 -0.005066
C10   C     C_1   0.488388 0.473312 0.212542 -0.199115
C11   C     C_2   0.467496 0.029051 0.479698 -0.291774
C12   C     C_R   0.260792 0.500452 0.488064 0.759021
C13   C     C_2   0.546387 0.971065 0.527084 -0.048421
C14   C     C_1   0.529735 0.854454 0.519398 0.060127
C15   C     C_1   0.475257 0.145676 0.482781 0.324894
C16   C     C_R   0.496702 0.516626 0.684041 0.811127
C17   C     C_R   0.740915 0.498246 0.500246 0.772784
C18   C     C_3   0.066128 0.384088 0.449504 -0.155487
C19   C     C_3   0.923737 0.386017 0.437511 -0.197431
C20   C     C_3   0.083895 0.533096 0.587622 -0.467017
C21   C     C_3   0.070522 0.585295 0.413633 0.201198
C22   C     C_3   0.123158 0.502431 0.481464 0.037823
Cu1   Cu    Cu3+1 0.491980 0.395330 0.493960 0.986939
Cu2   Cu    Cu3+1 0.508020 0.604670 0.506040 0.935194
H1    H     H_    0.084587 0.341677 0.513162 0.163987
H2    H     H_    0.900125 0.657560 0.470652 0.167015
H3    H     H_    0.121708 0.611584 0.620593 0.190248
H4    H     H_    0.910073 0.602485 0.628134 0.145416
H5    H     H_    0.532992 0.612163 0.021353 0.143981
H6    H     H_    0.391894 0.987148 0.436054 0.126897
H7    H     H_    0.899442 0.385214 0.359210 0.159531
H8    H     H_    0.131175 0.480299 0.633385 0.155225
N1    N     N_1   0.479930 0.238040 0.484880 -0.146441
N2    N     N_1   0.520070 0.761960 0.515120 -0.159657
O1    O     O_R   0.492240 0.399110 0.356330 -0.565108
O2    O     O_R   0.505790 0.575900 0.366540 -0.574706
O3    O     O_R   0.310920 0.411610 0.494880 -0.589126
O4    O     O_R   0.324460 0.588390 0.505090 -0.584499
O5    O     O_R   0.494210 0.424100 0.633460 -0.570171
O6    O     O_R   0.507760 0.600890 0.643670 -0.570300
O7    O     O_R   0.675540 0.411610 0.494910 -0.556127
O8    O     O_R   0.689080 0.588390 0.505120 -0.592507
C23   C     C_3   0.425724 0.346752 0.965799 -0.353681
C24   C     C_3   0.286304 0.347001 0.944205 -0.346040
C25   C     C_3   0.240458 0.244336 0.881590 -0.853219
H9    H     H_    0.287261 0.235240 0.810563 0.258469
H10   H     H_    0.258897 0.174823 0.919407 0.255517
H11   H     H_    0.139268 0.246603 0.867826 0.240033
H12   H     H_    0.235948 0.355430 0.013681 0.218078
H13   H     H_    0.264884 0.415127 0.905250 0.226507
H14   H     H_    0.476282 0.329259 0.896872 0.201766
H15   H     H_    0.444945 0.281823 0.009419 0.192128
C26   C     C_2   0.653165 0.019777 0.588610 0.389028
H16   H     H_    0.713056 0.968905 0.623413 0.046157
O9    O     O_2   0.676008 0.115523 0.601563 -0.551219
C27   C     C_3   0.123928 0.314067 0.360571 -0.388502
C28   C     C_3   0.151175 0.201770 0.382540 -0.334022
C29   C     C_3   0.212540 0.137193 0.297010 -0.842176
H17   H     H_    0.151635 0.129562 0.230904 0.255980
H18   H     H_    0.302459 0.176086 0.282023 0.260509
H19   H     H_    0.229653 0.056425 0.314782 0.230391
H20   H     H_    0.213670 0.206879 0.447558 0.220823
H21   H     H_    0.063713 0.159397 0.398049 0.227280
H22   H     H_    0.061066 0.304329 0.295533 0.195995
H23   H     H_    0.211129 0.350796 0.338068 0.209475
C30   C     C_2   0.863700 0.284526 0.464505 0.419878
H24   H     H_    0.875340 0.261989 0.536179 0.088704
O10   O     O_2   0.802206 0.224765 0.403911 -0.530000
C31   C     C_3   0.917012 0.449265 0.676090 -0.432748
C32   C     C_3   0.784042 0.438017 0.708892 -0.328952
C33   C     C_3   0.779018 0.392958 0.805396 -0.825907
H25   H     H_    0.828082 0.317313 0.800138 0.258086
H26   H     H_    0.822076 0.450778 0.865008 0.244699
H27   H     H_    0.681489 0.376342 0.823355 0.250279
H28   H     H_    0.742577 0.517032 0.717775 0.206610
H29   H     H_    0.730615 0.381429 0.654792 0.266277
H30   H     H_    0.954554 0.369866 0.655567 0.189282
H31   H     H_    0.972189 0.484934 0.741956 0.213951
C34   C     C_3   0.122946 0.705435 0.438699 -0.330709
C35   C     C_3   0.090504 0.777269 0.534196 -0.403000
C36   C     C_3   0.205367 0.821675 0.594177 -0.795252
H32   H     H_    0.260149 0.756923 0.616606 0.274890
H33   H     H_    0.264077 0.870520 0.551189 0.246193
H34   H     H_    0.177099 0.873046 0.660673 0.228796
H35   H     H_    0.040863 0.846958 0.515125 0.202147
H36   H     H_    0.025694 0.740064 0.580740 0.201612
H37   H     H_    0.223541 0.711187 0.426076 0.225812
H38   H     H_    0.085022 0.749392 0.382136 0.150136
C37   C     C_3   0.114229 0.545325 0.306297 -0.419095
C38   C     C_3   0.117183 0.623239 0.229718 -0.374465
C39   C     C_3   0.137792 0.564934 0.127995 -0.866207
H39   H     H_    0.225913 0.523185 0.126860 0.262676
H40   H     H_    0.060323 0.506339 0.105451 0.247434
H41   H     H_    0.142775 0.622853 0.075053 0.246131
H42   H     H_    0.030717 0.666064 0.227304 0.235656
H43   H     H_    0.194736 0.683108 0.247312 0.214684
H44   H     H_    0.059511 0.473402 0.275180 0.194361
H45   H     H_    0.211215 0.520902 0.310143 0.168420
C40   C     C_3   0.842872 0.582183 0.329459 -0.395261
C41   C     C_3   0.803273 0.694305 0.315119 -0.339589
C42   C     C_3   0.743508 0.695625 0.214857 -0.842351
H46   H     H_    0.809381 0.669713 0.156817 0.247704
H47   H     H_    0.659501 0.642312 0.205396 0.263380
H48   H     H_    0.716453 0.777513 0.207452 0.245282
H49   H     H_    0.735905 0.722283 0.371420 0.246097
H50   H     H_    0.883818 0.751573 0.323845 0.200649
H51   H     H_    0.886661 0.544551 0.263386 0.210022
H52   H     H_    0.757201 0.531940 0.329505 0.195197

loop_
_geom_bond_atom_site_label_1
_geom_bond_atom_site_label_2
_ccdc_geom_bond_type
C24   H12   S    
C30   O10   D    
C42   H46   S    
Cu2   O8    S    
C31   H30   S    
C19   H7    S    
C6    C9    S    
C34   H37   S    
C36   H32   S    
C28   C29   S    
C7    C8    S    
C21   C37   S    
C26   H16   S    
C40   H52   S    
C41   H49   S    
Cu2   O2    S    
C3    H4    S    
C3    C31   S    
C23   H15   S    
C29   H18   S    
C27   H23   S    
C12   C22   S    
C27   C28   S    
C19   C30   S    
C18   C19   S    
C12   O3    A    
C17   O8    A    
C5    C16   S    
C35   H36   S    
C11   C15   S    
C11   H6    S    
Cu1   N1    S    
Cu2   O4    S    
Cu1   Cu2   S    
C27   H22   S    
C32   C33   S    
C7    C23   S    
C18   C27   S    
C29   H19   S    
C25   H10   S    
C30   H24   S    
C42   H47   S    
C21   C22   S    
C2    C17   S    
C31   H31   S    
C18   H1    S    
C34   H38   S    
C36   H33   S    
C28   H21   S    
C13   C26   S    
C26   O9    D    
C28   H20   S    
C39   H39   S    
C33   H26   S    
C29   H17   S    
Cu1   O3    S    
Cu2   N2    S    
C37   H44   S    
C2    C4    S    
C23   C24   S    
C5    C9    T    
C35   H35   S    
C39   H40   S    
C40   C41   S    
C21   C34   S    
C3    C20   S    
C16   O6    A    
C20   C22   S    
C42   H48   S    
Cu1   O1    S    
C32   H29   S    
C36   H34   S    
C24   C25   S    
C1    O1    A    
C20   H8    S    
C25   H11   S    
C24   H13   S    
C2    C19   S    
C18   C22   S    
C1    C10   S    
C35   C36   S    
C38   H42   S    
C14   N2    T    
C33   H27   S    
C4    H2    S    
C38   H43   S    
C6    C7    D    
C20   H3    S    
C40   H51   S    
C41   H50   S    
Cu1   O7    S    
C37   H45   S    
C2    C3    S    
C33   H25   S    
C39   H41   S    
C4    C21   S    
C11   C13   D    
C23   H14   S    
C38   C39   S    
Cu1   O5    S    
C41   C42   S    
Cu2   O6    S    
C12   O4    A    
C31   C32   S    
C17   O7    A    
C16   O5    A    
C34   C35   S    
C25   H9    S    
C6    H5    S    
C8    C10   T    
C4    C40   S    
C32   H28   S    
C37   C38   S    
C13   C14   S    
C15   N1    T    
C1    O2    A    
