data_mof_unit_8381.cif
_audit_creation_date              2012-12-10T20:27:56-0500
_audit_creation_method            fapswitch 2.2
_symmetry_space_group_name_H-M    P1
_symmetry_Int_Tables_number       1
_space_group_crystal_system       triclinic
_cell_length_a                    12.782921
_cell_length_b                    10.764656
_cell_length_c                    9.946081
_cell_angle_alpha                 89.179728
_cell_angle_beta                  96.587895
_cell_angle_gamma                 92.88752
_cell_volume                      1357.80461669

loop_
_atom_site_label
_atom_site_type_symbol
_atom_type_description
_atom_site_fract_x
_atom_site_fract_y
_atom_site_fract_z
_atom_type_partial_charge
C1    C     C_R   0.501683 0.259882 0.500610 0.994298
C2    C     C_R   0.562741 0.939205 0.395731 0.384086
C3    C     C_R   0.523895 0.871410 0.503002 -0.171552
C4    C     C_R   0.299045 0.502247 0.473833 1.026024
C5    C     C_R   0.504313 0.933152 0.618113 -0.173860
C6    C     C_3   0.420460 0.910421 0.709607 0.266734
C7    C     C_3   0.414984 0.052346 0.710263 0.867770
C8    C     C_R   0.408160 0.502094 0.057637 0.035152
C9    C     C_R   0.590679 0.523600 0.084190 0.343608
C10   C     C_R   0.591891 0.513869 0.941535 0.516929
C11   C     C_R   0.408073 0.504722 0.916443 -0.095499
C12   C     C_R   0.020703 0.440513 0.523861 -0.150485
C13   C     C_3   0.312050 0.418833 0.899525 0.144632
C14   C     C_3   0.314552 0.414225 0.053296 0.392164
C15   C     C_R   0.506655 0.739474 0.500077 1.026796
C16   C     C_R   0.700860 0.498470 0.525977 1.056407
C17   C     C_R   0.811248 0.483921 0.540662 -0.176569
C18   C     C_R   0.188144 0.514950 0.458554 -0.202782
C19   C     C_R   0.042070 0.645955 0.416663 -0.283290
C20   C     C_R   0.147512 0.625841 0.406194 0.461429
C21   C     C_R   0.125236 0.418739 0.505711 0.308899
C22   C     C_3   0.234378 0.070105 0.721017 -0.086047
C23   C     C_R   0.979556 0.556777 0.479684 -0.110849
C24   C     C_3   0.746567 0.429336 0.912910 -0.201064
C25   C     C_3   0.154777 0.381336 0.136994 -0.359734
C26   C     C_3   0.012933 0.269798 0.793791 -0.346554
C27   C     C_3   0.175808 0.763815 0.232604 -0.219167
C28   C     C_3   0.497019 0.120849 0.172989 -0.198748
C29   C     C_3   0.708900 0.910384 0.289389 -0.227798
C30   C     C_3   0.281075 0.768183 0.729031 -0.275945
C31   C     C_R   0.875361 0.580059 0.496157 0.352638
C32   C     C_R   0.849396 0.369796 0.585959 0.221120
C33   C     C_R   0.957310 0.351861 0.588582 0.440232
C34   C     C_R   0.501386 0.059437 0.618856 -0.134009
C35   C     C_R   0.515928 0.128297 0.502354 -0.205046
C36   C     C_R   0.552669 0.068919 0.391278 0.400524
H1    H     H_    0.453159 0.868435 0.808026 0.051378
H2    H     H_    0.657624 0.632755 0.218769 0.387342
H3    H     H_    0.704135 0.344202 0.867813 0.181950
H4    H     H_    0.770052 0.414518 0.022860 0.174170
H5    H     H_    0.820119 0.445140 0.864698 0.174697
H6    H     H_    0.331272 0.316900 0.749561 0.419102
H7    H     H_    0.187468 0.332029 0.230274 0.187735
H8    H     H_    0.130594 0.313075 0.055169 0.147735
H9    H     H_    0.083322 0.427589 0.159886 0.194294
H10   H     H_    0.814676 0.198030 0.637598 0.367672
H11   H     H_    0.047996 0.187746 0.846491 0.172196
H12   H     H_    0.241717 0.462058 0.845059 0.125068
H13   H     H_    0.936367 0.281198 0.833775 0.164559
H14   H     H_    0.067147 0.352353 0.819001 0.181255
H15   H     H_    0.120067 0.837975 0.243153 0.138401
H16   H     H_    0.137810 0.689129 0.164486 0.180674
H17   H     H_    0.242630 0.806461 0.183297 0.182795
H18   H     H_    0.117011 0.241364 0.485325 0.364455
H19   H     H_    0.508907 0.192953 0.094665 0.203335
H20   H     H_    0.417863 0.132993 0.206332 0.137221
H21   H     H_    0.498882 0.028340 0.125519 0.190740
H22   H     H_    0.744719 0.837823 0.234043 0.206119
H23   H     H_    0.334931 0.323398 0.102639 0.091420
H24   H     H_    0.752772 0.916247 0.392850 0.163630
H25   H     H_    0.720065 0.999246 0.233728 0.195253
H26   H     H_    0.331362 0.689259 0.758079 0.197594
H27   H     H_    0.205295 0.730117 0.676556 0.185855
H28   H     H_    0.263550 0.816576 0.821320 0.114395
H29   H     H_    0.010783 0.732650 0.378741 0.172430
H30   H     H_    0.884326 0.759626 0.499196 0.322488
H31   H     H_    0.256942 0.038851 0.827183 0.129828
H32   H     H_    0.180311 0.998663 0.667076 0.171156
H33   H     H_    0.189388 0.154093 0.726371 0.237453
H34   H     H_    0.518058 0.076745 0.871290 0.283186
N1    N     N_R   0.499290 0.499140 0.142710 -0.198134
N2    N     N_R   0.499290 0.499180 0.857070 -0.154283
O1    O     O_R   0.500010 0.316790 0.614690 -0.590062
O2    O     O_3   0.320067 0.098853 0.645616 -0.579291
O3    O     O_3   0.447532 0.106636 0.837245 -0.780155
O4    O     O_3   0.680687 0.569167 0.159075 -0.721568
O5    O     O_3   0.685836 0.534817 0.887585 -0.567012
O6    O     O_3   0.333125 0.304270 0.848497 -0.725481
O7    O     O_3   0.228339 0.472718 0.097580 -0.610861
O8    O     O_3   0.779308 0.277834 0.625486 -0.790832
O9    O     O_3   0.999672 0.248064 0.653131 -0.615409
O10   O     O_3   0.215636 0.717998 0.361072 -0.570362
O11   O     O_3   0.168209 0.304602 0.529556 -0.753245
O12   O     O_R   0.500000 0.316760 0.385350 -0.604101
O13   O     O_3   0.579122 0.137041 0.279891 -0.600894
O14   O     O_3   0.600577 0.877800 0.291055 -0.610443
O15   O     O_3   0.329680 0.849500 0.639920 -0.555775
O16   O     O_R   0.346360 0.499990 0.595720 -0.657477
O17   O     O_R   0.346350 0.499960 0.366370 -0.585309
O18   O     O_R   0.500000 0.683240 0.614650 -0.627192
O19   O     O_R   0.499990 0.683210 0.385310 -0.587735
O20   O     O_R   0.653650 0.500040 0.633630 -0.573927
O21   O     O_R   0.653640 0.500010 0.404280 -0.597002
O22   O     O_3   0.832158 0.693274 0.464338 -0.793294
Zn1   Zn    Zn3+2 0.500010 0.500020 0.653130 1.009806
Zn2   Zn    Zn3+2 0.499990 0.499980 0.346870 1.022010

loop_
_geom_bond_atom_site_label_1
_geom_bond_atom_site_label_2
_ccdc_geom_bond_type
C30   H28   S    
C18   C21   A    
C35   C36   A    
C25   H7    S    
C28   H20   S    
O18   Zn1   S    
H2    O4    S    
C28   H21   S    
C1    O12   A    
C14   H23   S    
C12   C23   A    
C16   O21   A    
C20   O10   S    
C26   H14   S    
C5    C6    S    
C24   H3    S    
C34   C35   A    
O12   Zn2   S    
O19   Zn2   S    
N2    Zn1   S    
C10   O5    S    
C19   C20   A    
C16   C17   S    
C19   H29   S    
C9    O4    S    
C9    C10   A    
C22   H33   S    
H30   O22   S    
C4    C18   S    
O16   Zn1   S    
C30   H27   S    
C24   H5    S    
C25   H8    S    
H18   O11   S    
C28   H19   S    
C27   H15   S    
C7    O2    S    
C29   H25   S    
C21   O11   S    
C26   H13   S    
C11   N2    A    
C7    O3    S    
N1    Zn2   S    
C12   C21   A    
O20   Zn1   S    
C6    O15   S    
C23   C31   A    
C19   C23   A    
C32   O8    S    
C29   H24   S    
C5    C34   A    
C6    H1    S    
C14   O7    S    
C22   H32   S    
C29   O14   S    
C26   H11   S    
H6    O6    S    
O21   Zn2   S    
C30   H26   S    
C17   C31   A    
C7    C34   S    
O1    Zn1   S    
C25   H9    S    
H34   O3    S    
C3    C15   S    
C27   H16   S    
C1    C35   S    
C4    O17   A    
C2    C36   A    
C13   O6    S    
C8    N1    A    
C8    C14   S    
C25   O7    S    
C27   O10   S    
C9    N1    A    
C3    C5    A    
C13   H12   S    
C27   H17   S    
C16   O20   A    
C6    C7    S    
C4    O16   A    
C36   O13   S    
C26   O9    S    
C31   O22   S    
C1    O1    A    
C32   C33   A    
O17   Zn2   S    
C2    C3    A    
C30   O15   S    
C15   O18   A    
H10   O8    S    
C11   C13   S    
C8    C11   A    
C24   H4    S    
C2    O14   S    
C18   C20   A    
C22   H31   S    
C15   O19   A    
C24   O5    S    
C29   H22   S    
C28   O13   S    
C17   C32   A    
C22   O2    S    
C12   C33   A    
C13   C14   S    
C33   O9    S    
C10   N2    A    
