data_mof_unit_57903.cif
_audit_creation_date              2012-12-10T17:52:16-0500
_audit_creation_method            fapswitch 2.2
_symmetry_space_group_name_H-M    P1
_symmetry_Int_Tables_number       1
_space_group_crystal_system       triclinic
_cell_length_a                    19.052971
_cell_length_b                    10.635988
_cell_length_c                    9.910546
_cell_angle_alpha                 90.038736
_cell_angle_beta                  89.76318
_cell_angle_gamma                 92.084833
_cell_volume                      2006.99728193

loop_
_atom_site_label
_atom_site_type_symbol
_atom_type_description
_atom_site_fract_x
_atom_site_fract_y
_atom_site_fract_z
_atom_type_partial_charge
Br1   Br    Br    0.284598 0.579443 0.783220 -0.486599
C1    C     C_R   0.502334 0.260761 0.500013 0.863502
C2    C     C_R   0.850846 0.412505 0.498445 0.091750
C3    C     C_R   0.618359 0.138863 0.630418 -0.172530
C4    C     C_R   0.365079 0.500307 0.500625 0.900312
C5    C     C_R   0.672392 0.076838 0.693718 -0.126195
C6    C     C_R   0.672398 0.946002 0.693774 -0.134362
C7    C     C_R   0.618413 0.876719 0.630394 -0.188767
C8    C     C_R   0.562705 0.938157 0.567091 0.097729
C9    C     C_R   0.562688 0.070060 0.567104 0.100278
C10   C     C_R   0.507646 0.128783 0.499640 -0.103710
C11   C     C_R   0.456056 0.061154 0.428840 -0.200067
C12   C     C_R   0.288375 0.486017 0.501649 -0.126801
C13   C     C_R   0.455927 0.932804 0.428945 -0.174149
C14   C     C_R   0.507633 0.872117 0.499709 -0.107372
C15   C     C_R   0.406746 0.335237 0.140088 -0.244468
C16   C     C_R   0.502521 0.739497 0.500005 0.879551
C17   C     C_R   0.359662 0.254686 0.070034 -0.030018
C18   C     C_R   0.361041 0.255228 0.929629 -0.201221
C19   C     C_R   0.407618 0.335279 0.860133 -0.135943
C20   C     C_R   0.454397 0.418666 0.927899 0.191825
C21   C     C_R   0.454216 0.418672 0.072346 0.164696
C22   C     C_R   0.543773 0.577683 0.071219 -0.106059
C23   C     C_R   0.926512 0.394445 0.499204 0.284957
C24   C     C_R   0.543727 0.577707 0.928078 -0.102259
C25   C     C_R   0.634639 0.497032 0.499730 0.823830
C26   C     C_R   0.248136 0.504607 0.619800 0.266100
C27   C     C_R   0.176758 0.472826 0.619254 -0.176467
C28   C     C_R   0.144176 0.425800 0.502237 0.014336
C29   C     C_R   0.183467 0.412451 0.383958 -0.117391
C30   C     C_R   0.254817 0.442788 0.383608 -0.165766
C31   C     C_2   0.308479 0.170157 0.142651 0.899959
C32   C     C_R   0.068266 0.401843 0.501165 0.319588
C33   C     C_R   0.814091 0.421119 0.620854 -0.163762
C34   C     C_R   0.744099 0.452473 0.621349 -0.217172
C35   C     C_R   0.709697 0.474914 0.499403 -0.027993
C36   C     C_R   0.746069 0.464753 0.376847 -0.185330
C37   C     C_R   0.816169 0.433538 0.376341 -0.159287
H1    H     H_    0.621425 0.240458 0.629861 0.153356
H2    H     H_    0.146447 0.488220 0.710089 0.184398
H3    H     H_    0.579427 0.641252 0.874013 0.140371
H4    H     H_    0.159210 0.378215 0.291687 0.168285
H5    H     H_    0.283890 0.429766 0.290942 0.187173
H6    H     H_    0.839537 0.405511 0.716586 0.151293
H7    H     H_    0.716869 0.457782 0.717232 0.156298
H8    H     H_    0.720379 0.480213 0.281294 0.155630
H9    H     H_    0.843368 0.428214 0.280467 0.151544
H10   H     H_    0.414934 0.108101 0.376036 0.193496
H11   H     H_    0.233819 0.030983 0.131115 0.357641
H12   H     H_    0.714763 0.130524 0.741598 0.141304
H13   H     H_    0.714769 0.898025 0.741767 0.140018
H14   H     H_    0.621563 0.775431 0.629661 0.141026
H15   H     H_    0.414506 0.880428 0.376239 0.171957
H16   H     H_    0.579526 0.641162 0.124736 0.144329
H17   H     H_    0.404997 0.330338 0.247137 0.224402
H18   H     H_    0.325551 0.193990 0.872434 0.204524
H19   H     H_    0.404840 0.329731 0.753142 0.211890
N1    N     N_R   0.032958 0.395716 0.382754 -0.167077
N2    N     N_R   0.963250 0.392253 0.381804 -0.173255
N3    N     N_R   0.961888 0.395355 0.617557 -0.173970
N4    N     N_R   0.031526 0.399025 0.618531 -0.166386
N5    N     N_R   0.499340 0.498800 0.142780 -0.114387
N6    N     N_R   0.499320 0.498720 0.857170 -0.114650
O1    O     O_R   0.500000 0.316780 0.614690 -0.646062
O2    O     O_R   0.266680 0.082831 0.070592 -0.783623
O3    O     O_R   0.499990 0.316750 0.385360 -0.629812
O4    O     O_R   0.398140 0.500000 0.614700 -0.587363
O5    O     O_R   0.398130 0.499970 0.385370 -0.636822
O6    O     O_R   0.500010 0.683250 0.614640 -0.598812
O7    O     O_R   0.500000 0.683220 0.385310 -0.610990
O8    O     O_R   0.601870 0.500030 0.614630 -0.638939
O9    O     O_R   0.601860 0.500000 0.385300 -0.616591
O10   O     O_2   0.302167 0.176921 0.265238 -0.674062
Zn1   Zn    Zn3+2 0.500000 0.500020 0.653130 0.959481
Zn2   Zn    Zn3+2 0.500000 0.499980 0.346870 0.949657

loop_
_geom_bond_atom_site_label_1
_geom_bond_atom_site_label_2
_ccdc_geom_bond_type
C18   H18   S    
C16   O6    A    
C32   N1    A    
C25   O9    A    
C34   C35   A    
C11   H10   S    
C6    C7    A    
O5    Zn2   S    
C36   C37   A    
C30   H5    S    
C27   C28   A    
C33   C34   A    
O9    Zn2   S    
C29   C30   A    
C27   H2    S    
C28   C32   S    
C17   C18   A    
C24   N6    A    
C22   N5    A    
C18   C19   A    
C2    C37   A    
C7    C8    A    
C8    C9    A    
C7    H14   S    
C4    C12   S    
C4    O4    A    
C16   O7    A    
C20   C21   A    
C25   O8    A    
C2    C23   S    
C4    O5    A    
C1    C10   S    
C1    O1    A    
C33   H6    S    
C3    C5    A    
C24   H3    S    
C31   O10   D    
C2    C33   A    
N1    N2    A    
N3    N4    A    
C28   C29   A    
C21   N5    A    
C3    H1    S    
C23   N3    A    
O6    Zn1   S    
O4    Zn1   S    
C5    H12   S    
C37   H9    S    
H11   O2    S    
C32   N4    A    
C11   C13   A    
N5    Zn2   S    
C17   C31   S    
C3    C9    A    
C34   H7    S    
O7    Zn2   S    
C22   H16   S    
C25   C35   S    
C14   C16   S    
C35   C36   A    
C15   C21   A    
C12   C30   A    
C29   H4    S    
C1    O3    A    
O8    Zn1   S    
C10   C11   A    
C5    C6    A    
N6    Zn1   S    
C19   H19   S    
C15   H17   S    
C6    H13   S    
C23   N2    A    
O3    Zn2   S    
C22   C24   A    
C8    C14   A    
C20   N6    A    
C9    C10   A    
C13   H15   S    
C19   C20   A    
C15   C17   A    
C26   C27   A    
Br1   C26   S    
O1    Zn1   S    
C13   C14   A    
C12   C26   A    
C36   H8    S    
C31   O2    S    
