data_mof_unit_25694.cif
_audit_creation_date              2012-12-10T20:44:46-0500
_audit_creation_method            fapswitch 2.2
_symmetry_space_group_name_H-M    P1
_symmetry_Int_Tables_number       1
_space_group_crystal_system       triclinic
_cell_length_a                    9.92116
_cell_length_b                    10.813385
_cell_length_c                    16.568482
_cell_angle_alpha                 86.975499
_cell_angle_beta                  94.56237
_cell_angle_gamma                 89.68994
_cell_volume                      1769.30588574

loop_
_atom_site_label
_atom_site_type_symbol
_atom_type_description
_atom_site_fract_x
_atom_site_fract_y
_atom_site_fract_z
_atom_type_partial_charge
C1    C     C_R   0.500494 0.260561 0.499291 0.888734
C2    C     C_R   0.658514 0.551754 0.784865 -0.090546
C3    C     C_R   0.595909 0.382614 0.148189 0.235631
C4    C     C_R   0.592564 0.390451 0.232750 -0.095769
C5    C     C_R   0.479236 0.412559 0.097900 0.204798
C6    C     C_R   0.474574 0.440686 0.263550 -0.257042
C7    C     C_R   0.351201 0.445702 0.213464 0.202743
C8    C     C_R   0.357253 0.434866 0.130017 -0.274126
C9    C     C_R   0.619020 0.060747 0.520733 0.074957
C10   C     C_R   0.500418 0.128853 0.501098 -0.134983
C11   C     C_R   0.377262 0.068834 0.487207 -0.129937
C12   C     C_R   0.518480 0.509671 0.653392 0.940606
C13   C     C_R   0.370129 0.941141 0.494081 -0.012260
C14   C     C_R   0.493765 0.872324 0.502234 -0.211573
C15   C     C_R   0.615874 0.934625 0.514868 0.098789
C16   C     C_3   0.740794 0.934489 0.469110 0.028218
C17   C     C_3   0.750290 0.071731 0.482558 -0.482342
C18   C     C_R   0.078245 0.464243 0.568496 0.049010
C19   C     C_R   0.064108 0.559937 0.437874 -0.050863
C20   C     C_R   0.918634 0.555220 0.436802 -0.023614
C21   C     C_R   0.937318 0.464930 0.567924 0.206187
C22   C     C_3   0.930232 0.349312 0.619077 -0.601600
C23   C     C_R   0.498470 0.740035 0.499339 0.892378
C24   C     C_3   0.085283 0.346938 0.623045 0.138730
C25   C     C_R   0.482538 0.484504 0.347473 0.871057
C26   C     C_R   0.531719 0.535492 0.740215 -0.145744
C27   C     C_R   0.412887 0.546206 0.779416 -0.203396
C28   C     C_R   0.416480 0.550566 0.863209 -0.041962
C29   C     C_R   0.542609 0.538028 0.908731 0.193784
C30   C     C_R   0.663386 0.545545 0.870265 0.128560
H1    H     H_    0.825108 0.877022 0.499841 0.182340
H2    H     H_    0.835460 0.092709 0.527071 0.185985
H3    H     H_    0.744053 0.132070 0.426351 0.205085
H4    H     H_    0.886344 0.366661 0.676971 0.202812
H5    H     H_    0.879850 0.274511 0.585203 0.191120
H6    H     H_    0.268333 0.447018 0.088168 0.156749
H7    H     H_    0.316819 0.552952 0.744220 0.204149
H8    H     H_    0.285265 0.121778 0.471577 0.199394
N1    N     N_2   0.549255 0.517948 0.993549 -0.146200
N2    N     N_2   0.483077 0.425333 0.013566 -0.187629
N3    N     N_R   0.142860 0.499130 0.500540 -0.180166
N4    N     N_R   0.857210 0.499170 0.500530 -0.152528
O1    O     O_R   0.614690 0.316790 0.499990 -0.637370
O2    O     O_R   0.385350 0.316760 0.500000 -0.607473
O3    O     O_R   0.627460 0.498860 0.616130 -0.575236
O4    O     O_R   0.398120 0.498820 0.616130 -0.606665
O5    O     O_R   0.614650 0.683240 0.500000 -0.606591
O6    O     O_R   0.385310 0.683210 0.500010 -0.686782
O7    O     O_R   0.601880 0.501180 0.383870 -0.637761
O8    O     O_R   0.372540 0.501140 0.383870 -0.644190
Zn1   Zn    Zn3+2 0.653130 0.500020 0.499990 0.968616
Zn2   Zn    Zn3+2 0.346870 0.499980 0.500010 0.938715
C31   C     C_2   0.700616 0.330768 0.289874 0.471245
H9    H     H_    0.676068 0.298774 0.349677 0.060898
O9    O     O_2   0.816084 0.315405 0.271854 -0.600601
C32   C     C_2   0.232282 0.887420 0.492587 0.397816
H10   H     H_    0.210238 0.809257 0.532890 0.098560
O10   O     O_2   0.139325 0.934253 0.448416 -0.614627
N5    N     N_2   0.711195 0.911165 0.383789 -0.333168
H11   H     H_    0.622949 0.951255 0.356886 0.237851
C33   C     C_3   0.824031 0.925924 0.333995 -0.687132
H12   H     H_    0.796469 0.889272 0.273608 0.248072
H13   H     H_    0.913642 0.873569 0.362241 0.287840
H14   H     H_    0.849944 0.025288 0.325487 0.257123
C34   C     C_2   0.131009 0.641969 0.378021 0.465797
H15   H     H_    0.231899 0.673154 0.391020 0.139919
O11   O     O_2   0.074311 0.680514 0.313612 -0.555922
C35   C     C_2   0.831721 0.617082 0.370678 0.549484
H16   H     H_    0.756367 0.682756 0.384721 0.108021
O12   O     O_2   0.836045 0.588897 0.300617 -0.543730
N6    N     N_2   0.146416 0.369163 0.704132 -0.257827
H17   H     H_    0.123143 0.455840 0.722517 0.244297
C36   C     C_3   0.128637 0.275568 0.768450 -0.663907
H18   H     H_    0.190410 0.300026 0.824093 0.243453
H19   H     H_    0.162017 0.182812 0.752392 0.275363
H20   H     H_    0.021244 0.271071 0.782549 0.201396
N7    N     N_2   0.713644 0.344423 0.112049 -0.279295
H21   H     H_    0.803095 0.383544 0.133281 0.280696
C37   C     C_3   0.721666 0.213172 0.099859 -0.754085
H22   H     H_    0.725618 0.158907 0.158845 0.255723
H23   H     H_    0.814513 0.192766 0.069536 0.235780
H24   H     H_    0.632661 0.184205 0.060584 0.244121
C38   C     C_2   0.142543 0.237087 0.584787 0.504165
H25   H     H_    0.096711 0.208666 0.527091 0.032370
O13   O     O_2   0.239734 0.179426 0.617638 -0.575570
N8    N     N_2   0.788488 0.547966 0.918777 -0.291537
H26   H     H_    0.854165 0.615757 0.900861 0.242870
C39   C     C_3   0.853387 0.428158 0.935008 -0.727444
H27   H     H_    0.937570 0.435140 0.982837 0.246024
H28   H     H_    0.894807 0.395796 0.879456 0.217847
H29   H     H_    0.780174 0.358934 0.956214 0.267070
C40   C     C_2   0.783962 0.582641 0.745104 0.408851
H30   H     H_    0.880105 0.541434 0.768209 0.077131
O14   O     O_2   0.782362 0.660985 0.689175 -0.552897
N9    N     N_2   0.223709 0.454796 0.247964 -0.271039
H31   H     H_    0.215231 0.393681 0.297190 0.244365
C41   C     C_3   0.099901 0.463461 0.195236 -0.634360
H32   H     H_    0.012742 0.471850 0.232300 0.315470
H33   H     H_    0.085851 0.378400 0.160803 0.206185
H34   H     H_    0.100874 0.547030 0.153332 0.246528
C42   C     C_2   0.289196 0.569733 0.902825 0.397699
H35   H     H_    0.292552 0.588820 0.966525 0.084238
O15   O     O_2   0.178939 0.566578 0.864597 -0.615922

loop_
_geom_bond_atom_site_label_1
_geom_bond_atom_site_label_2
_ccdc_geom_bond_type
C42   H35   S    
C4    C31   S    
C33   H14   S    
C18   C21   A    
C36   H18   S    
C19   C20   A    
C41   H32   S    
C7    C8    A    
C31   H9    S    
C16   H1    S    
C22   H5    S    
C26   C27   A    
C18   C24   S    
C28   C29   A    
C24   C38   S    
N8    C39   S    
C6    C25   S    
O3    Zn1   S    
C15   C16   S    
O4    Zn2   S    
C32   H10   S    
C8    H6    S    
C33   H13   S    
C25   O8    A    
C28   C42   S    
C1    O1    A    
N9    H31   S    
C35   H16   S    
C34   O11   D    
O8    Zn2   S    
C30   N8    S    
C9    C10   A    
N3    Zn2   S    
N4    Zn1   S    
C13   C32   S    
O2    Zn2   S    
N7    C37   S    
N5    H11   S    
C42   O15   D    
C21   C22   S    
C36   H19   S    
C17   H3    S    
C41   H33   S    
C31   O9    D    
C22   H4    S    
N5    C33   S    
C23   O5    A    
C4    C6    A    
C18   N3    A    
N1    N2    D    
C37   H23   S    
N8    H26   S    
C16   C17   S    
O5    Zn1   S    
O7    Zn1   S    
N7    H21   S    
C21   N4    A    
C12   C26   S    
C12   O4    A    
C14   C23   S    
C11   H8    S    
C29   C30   A    
C5    C8    A    
C1    O2    A    
C38   H25   S    
C39   H29   S    
C29   N1    S    
C40   O14   D    
C2    C26   A    
C2    C40   S    
C9    C17   S    
C38   O13   D    
C39   H28   S    
C36   H20   S    
C22   C24   S    
C3    C4    A    
C3    N7    S    
C41   H34   S    
N6    C36   S    
C23   O6    A    
C20   C35   S    
C1    C10   S    
C12   O3    A    
C3    C5    A    
C37   H24   S    
C20   N4    A    
N9    C41   S    
C6    C7    A    
C7    N9    S    
C2    C30   A    
C9    C15   A    
N6    H17   S    
C11   C13   A    
O1    Zn1   S    
C27   H7    S    
C40   H30   S    
C32   O10   D    
C19   C34   S    
C33   H12   S    
C25   O7    A    
C10   C11   A    
C37   H22   S    
O6    Zn2   S    
C39   H27   S    
C35   O12   D    
C34   H15   S    
C5    N2    S    
C27   C28   A    
C17   H2    S    
C14   C15   A    
C13   C14   A    
C16   N5    S    
C19   N3    A    
C24   N6    S    
