data_mof_unit_8164.cif
_audit_creation_date              2012-12-10T20:28:45-0500
_audit_creation_method            fapswitch 2.2
_symmetry_space_group_name_H-M    P1
_symmetry_Int_Tables_number       1
_space_group_crystal_system       triclinic
_cell_length_a                    10.642049
_cell_length_b                    10.680903
_cell_length_c                    9.869967
_cell_angle_alpha                 90.246055
_cell_angle_beta                  89.035665
_cell_angle_gamma                 91.709888
_cell_volume                      1121.22006291

loop_
_atom_site_label
_atom_site_type_symbol
_atom_type_description
_atom_site_fract_x
_atom_site_fract_y
_atom_site_fract_z
_atom_type_partial_charge
C1    C     C_R   0.492611 0.260049 0.499676 0.899621
C2    C     C_R   0.442902 0.930944 0.380834 -0.379702
C3    C     C_R   0.468730 0.869378 0.501878 -0.171502
C4    C     C_R   0.260479 0.500947 0.501163 0.848100
C5    C     C_R   0.468370 0.936203 0.622683 0.090802
C6    C     C_3   0.538306 0.928776 0.752453 -0.473386
C7    C     C_3   0.540122 0.072250 0.753352 -0.099118
C8    C     C_R   0.392462 0.471279 0.072377 0.201046
C9    C     C_R   0.608533 0.518436 0.070083 -0.153704
C10   C     C_R   0.608432 0.519198 0.926312 -0.150777
C11   C     C_R   0.393298 0.467446 0.930114 0.167879
C12   C     C_R   0.069057 0.609015 0.568220 0.040214
C13   C     C_3   0.270381 0.529611 0.921949 -0.510063
C14   C     C_3   0.270137 0.538435 0.076186 -0.156375
C15   C     C_R   0.491800 0.739264 0.500543 0.989874
C16   C     C_R   0.739851 0.504986 0.498509 0.969676
C17   C     C_R   0.136292 0.704645 0.638733 -0.215308
C18   C     C_R   0.073552 0.802958 0.699784 -0.241669
C19   C     C_R   0.945652 0.814770 0.679989 -0.231194
C20   C     C_R   0.879874 0.728006 0.599315 0.526435
C21   C     C_R   0.938520 0.616737 0.555880 -0.022046
C22   C     C_3   0.673261 0.135081 0.755841 -0.354392
C23   C     C_R   0.128592 0.508452 0.503326 -0.056878
C24   C     C_3   0.756144 0.116643 0.628509 -0.328428
C25   C     C_3   0.890123 0.166502 0.651378 -0.915767
C26   C     C_3   0.278754 0.674853 0.128066 -0.326938
C27   C     C_3   0.150982 0.736901 0.119461 -0.389728
C28   C     C_3   0.155693 0.868333 0.180742 -0.877965
C29   C     C_3   0.791441 0.815157 0.417619 -0.380284
C30   C     C_3   0.517901 0.104485 0.162819 -0.311741
C31   C     C_R   0.062544 0.416341 0.431467 -0.218674
C32   C     C_R   0.934301 0.418900 0.428331 -0.252787
C33   C     C_R   0.872776 0.515821 0.493297 -0.111001
C34   C     C_R   0.471792 0.062975 0.621131 0.061787
C35   C     C_R   0.470666 0.127992 0.499192 -0.247177
C36   C     C_R   0.445144 0.061500 0.377690 0.533308
H1    H     H_    0.110431 0.340483 0.381004 0.157285
H2    H     H_    0.125471 0.873728 0.756553 0.163404
H3    H     H_    0.899211 0.895759 0.719933 0.157418
H4    H     H_    0.882540 0.343497 0.378123 0.152531
H5    H     H_    0.428520 0.878992 0.287755 0.182787
H6    H     H_    0.478793 0.887080 0.835271 0.170333
H7    H     H_    0.889944 0.268544 0.673545 0.275649
H8    H     H_    0.932960 0.117887 0.737570 0.255415
H9    H     H_    0.948456 0.150710 0.558881 0.255723
H10   H     H_    0.758373 0.016338 0.600975 0.247234
H11   H     H_    0.718629 0.167798 0.541467 0.205285
H12   H     H_    0.631693 0.886161 0.739468 0.236980
H13   H     H_    0.663818 0.237074 0.774099 0.221437
H14   H     H_    0.721909 0.097902 0.845346 0.185939
H15   H     H_    0.177525 0.863928 0.290271 0.270229
H16   H     H_    0.228223 0.927880 0.127714 0.277305
H17   H     H_    0.062865 0.911690 0.170045 0.244475
H18   H     H_    0.122848 0.743054 0.011812 0.235886
H19   H     H_    0.078342 0.679560 0.175361 0.230454
H20   H     H_    0.307626 0.676092 0.234948 0.244872
H21   H     H_    0.350988 0.730121 0.069062 0.187814
H22   H     H_    0.817992 0.741833 0.343007 0.180517
H23   H     H_    0.478104 0.109153 0.835152 0.143366
H24   H     H_    0.865929 0.890732 0.420235 0.164056
H25   H     H_    0.705527 0.858715 0.380702 0.192529
H26   H     H_    0.612771 0.117992 0.207844 0.148519
H27   H     H_    0.510731 0.174833 0.081144 0.182669
H28   H     H_    0.508146 0.010242 0.115344 0.147050
H29   H     H_    0.695615 0.536721 0.122461 0.152715
H30   H     H_    0.695461 0.538542 0.871279 0.158497
H31   H     H_    0.279067 0.620939 0.868633 0.213937
H32   H     H_    0.195413 0.465111 0.882831 0.193076
H33   H     H_    0.193616 0.480692 0.125347 0.174283
H34   H     H_    0.237211 0.705541 0.647353 0.161582
N1    N     N_R   0.499160 0.499140 0.142800 -0.111366
N2    N     N_R   0.499160 0.499180 0.857150 -0.107164
O1    O     O_R   0.500020 0.316790 0.614690 -0.626453
O2    O     O_3   0.420125 0.123651 0.258504 -0.587499
O3    O     O_R   0.500000 0.316760 0.385350 -0.566050
O4    O     O_R   0.316770 0.500020 0.614690 -0.633148
O5    O     O_R   0.316760 0.499980 0.385350 -0.636846
O6    O     O_R   0.500000 0.683240 0.614650 -0.600378
O7    O     O_R   0.499980 0.683210 0.385310 -0.646552
O8    O     O_R   0.683240 0.500020 0.614650 -0.619927
O9    O     O_R   0.683230 0.499980 0.385310 -0.633914
O10   O     O_3   0.766656 0.762522 0.547168 -0.639141
Zn1   Zn    Zn3+2 0.500010 0.500020 0.653130 0.940110
Zn2   Zn    Zn3+2 0.499990 0.499980 0.346870 0.944936

loop_
_geom_bond_atom_site_label_1
_geom_bond_atom_site_label_2
_ccdc_geom_bond_type
C20   O10   S    
C28   H16   S    
C19   C20   A    
C25   H7    S    
C27   H18   S    
C12   C23   A    
C26   C27   S    
C6    H12   S    
C18   C19   A    
C30   H28   S    
O7    Zn2   S    
C30   O2    S    
C28   H15   S    
C27   H19   S    
O3    Zn2   S    
C15   O6    A    
C21   C33   A    
C2    H5    S    
O4    Zn1   S    
C34   C35   A    
O6    Zn1   S    
C15   O7    A    
C35   C36   A    
C12   C17   A    
C9    C10   A    
C22   H14   S    
C17   H34   S    
C13   C14   S    
O8    Zn1   S    
C25   H8    S    
C7    H23   S    
C10   H30   S    
C29   H25   S    
C1    O3    A    
C24   C25   S    
C4    C23   S    
C11   N2    A    
O5    Zn2   S    
C12   C21   A    
C31   H1    S    
C16   O8    A    
C23   C31   A    
C16   C33   S    
C31   C32   A    
C29   H24   S    
C5    C34   A    
C17   C18   A    
C14   C26   S    
C19   H3    S    
C22   H13   S    
C30   H26   S    
C14   H33   S    
C22   C24   S    
C25   H9    S    
O9    Zn2   S    
C3    C15   S    
C29   H22   S    
C1    C35   S    
N1    Zn2   S    
C13   H31   S    
C2    C36   A    
C36   O2    S    
C8    N1    A    
C8    C14   S    
C24   H11   S    
C9    N1    A    
C3    C5    A    
C26   H20   S    
C28   H17   S    
C6    C7    S    
C7    C22   S    
C24   H10   S    
C32   C33   A    
C2    C3    A    
C18   H2    S    
C1    O1    A    
C4    O5    A    
C11   C13   S    
C5    C6    S    
C8    C11   A    
C16   O9    A    
C7    C34   S    
C32   H4    S    
C26   H21   S    
C9    H29   S    
C4    O4    A    
N2    Zn1   S    
C29   O10   S    
C20   C21   A    
C6    H6    S    
C27   C28   S    
C30   H27   S    
O1    Zn1   S    
C13   H32   S    
C10   N2    A    
