data_mof_unit_59949.cif
_audit_creation_date              2012-10-26T19:28:30-0400
_audit_creation_method            fapswitch 2.2
_symmetry_space_group_name_H-M    P1
_symmetry_Int_Tables_number       1
_space_group_crystal_system       triclinic
_cell_length_a                    14.765928
_cell_length_b                    14.625539
_cell_length_c                    14.354374
_cell_angle_alpha                 76.927101
_cell_angle_beta                  102.914548
_cell_angle_gamma                 114.923966
_cell_volume                      2709.41881999

loop_
_atom_site_label
_atom_site_type_symbol
_atom_type_description
_atom_site_fract_x
_atom_site_fract_y
_atom_site_fract_z
_atom_type_partial_charge
C1    C     C_R   0.880484 0.312003 0.512856 0.537112
C2    C     C_R   0.495688 0.120396 0.406284 -0.162935
C3    C     C_R   0.614160 0.896134 0.534733 -0.125628
C4    C     C_R   0.392401 0.094880 0.387104 -0.123755
C5    C     C_R   0.690087 0.618092 0.313779 -0.140311
C6    C     C_R   0.287021 0.341697 0.670150 -0.160304
C7    C     C_R   0.785382 0.618784 0.354748 0.428615
C8    C     C_R   0.203740 0.368312 0.638153 0.416176
C9    C     C_R   0.719911 0.516915 0.497343 0.015504
C10   C     C_R   0.283134 0.482536 0.506692 0.028646
C11   C     C_R   0.621317 0.516311 0.460848 -0.027794
C12   C     C_R   0.119930 0.688158 0.484621 0.541576
C13   C     C_R   0.366170 0.451869 0.531392 -0.019828
C14   C     C_R   0.607317 0.565086 0.364654 -0.071787
C15   C     C_R   0.370602 0.386883 0.620181 -0.078298
C16   C     C_R   0.000337 0.499728 0.668974 0.536823
C17   C     C_R   0.999723 0.500361 0.331020 0.539880
C18   C     C_R   0.536453 0.468355 0.513812 -0.023231
C19   C     C_R   0.445045 0.485217 0.473050 -0.017388
C20   C     C_R   0.431550 0.526679 0.373109 0.257127
C21   C     C_R   0.537564 0.402759 0.604465 0.242697
C22   C     C_R   0.510753 0.558484 0.318709 -0.003217
C23   C     C_R   0.642668 0.075044 0.483474 -0.013392
C24   C     C_R   0.457210 0.366380 0.657667 0.000191
C25   C     C_1   0.001034 0.499589 0.771528 -0.055669
C26   C     C_1   0.999232 0.500782 0.228461 -0.039469
C27   C     C_1   0.001003 0.499733 0.856904 -0.050409
C28   C     C_1   0.999510 0.500797 0.143108 -0.044971
C29   C     C_1   0.000592 0.500133 0.957404 -0.003415
C30   C     C_1   0.000104 0.500503 0.042628 -0.003466
C31   C     C_R   0.813608 0.203645 0.514809 -0.055501
C32   C     C_R   0.188893 0.796221 0.468124 -0.053701
C33   C     C_R   0.785204 0.024343 0.555675 0.250532
C34   C     C_R   0.363081 0.919765 0.460892 -0.012861
C35   C     C_R   0.220393 0.972606 0.399696 0.250894
C36   C     C_R   0.850804 0.127063 0.550635 -0.126911
C37   C     C_R   0.153062 0.872771 0.425963 -0.122142
C38   C     C_R   0.711075 0.177340 0.479595 -0.160398
C39   C     C_R   0.293066 0.821044 0.488471 -0.159762
C40   C     C_3   0.326518 0.608479 0.273834 -0.006524
C41   C     C_3   0.395500 0.707345 0.317105 -0.297924
C42   C     C_3   0.364860 0.795755 0.266047 -0.459637
C43   C     C_3   0.594906 0.274451 0.630072 0.009668
C44   C     C_3   0.672507 0.236334 0.696991 -0.241276
C45   C     C_R   0.680905 0.998058 0.523678 0.057453
C46   C     C_3   0.631901 0.120113 0.718878 -0.474814
C47   C     C_3   0.842866 0.936237 0.690108 -0.006030
C48   C     C_3   0.881723 0.850857 0.725958 -0.246876
C49   C     C_3   0.902076 0.831395 0.836136 -0.485118
C50   C     C_3   0.158276 0.085068 0.417091 -0.010089
C51   C     C_3   0.136630 0.178656 0.364832 -0.258428
C52   C     C_3   0.106305 0.223804 0.432738 -0.437761
C53   C     C_1   0.490889 0.576564 0.213875 0.198904
C54   C     C_1   0.467970 0.311367 0.754740 0.216036
C55   C     C_3   0.132972 0.307317 0.782029 0.004153
C56   C     C_R   0.325228 0.996073 0.415680 0.055655
C57   C     C_3   0.098453 0.194371 0.825317 -0.282653
C58   C     C_3   0.113119 0.179975 0.935512 -0.470350
C59   C     C_3   0.879689 0.766048 0.258082 -0.010121
C60   C     C_3   0.862054 0.772068 0.147994 -0.266406
C61   C     C_3   0.879278 0.880683 0.097811 -0.480636
C62   C     C_R   0.536646 0.047769 0.455010 0.027299
C63   C     C_R   0.469374 0.944663 0.477296 0.030600
C64   C     C_R   0.510774 0.869972 0.514211 -0.157393
Cu1   Cu    Cu3+1 0.081740 0.475690 0.523180 0.962759
Cu2   Cu    Cu3+1 0.918260 0.524310 0.476820 0.987600
H1    H     H_    0.641424 0.835699 0.563500 0.154035
H2    H     H_    0.740797 0.483688 0.568454 0.206482
H3    H     H_    0.680630 0.657790 0.241420 0.110206
H4    H     H_    0.284849 0.283648 0.732441 0.109928
H5    H     H_    0.247059 0.598189 0.271281 0.158212
H6    H     H_    0.335453 0.617794 0.197233 0.168836
H7    H     H_    0.391108 0.696196 0.395125 0.146486
H8    H     H_    0.475191 0.728943 0.308675 0.159854
H9    H     H_    0.365970 0.807095 0.187076 0.153167
H10   H     H_    0.418777 0.866936 0.294380 0.171340
H11   H     H_    0.287976 0.780457 0.278966 0.157650
H12   H     H_    0.365403 0.154005 0.350487 0.161009
H13   H     H_    0.598986 0.274677 0.553659 0.127393
H14   H     H_    0.517737 0.220887 0.645432 0.138380
H15   H     H_    0.742135 0.265651 0.663183 0.159161
H16   H     H_    0.693267 0.266269 0.766769 0.201556
H17   H     H_    0.572157 0.091404 0.765807 0.161834
H18   H     H_    0.693959 0.095536 0.757044 0.140284
H19   H     H_    0.599331 0.086037 0.651513 0.162987
H20   H     H_    0.772314 0.914730 0.720792 0.129632
H21   H     H_    0.901313 0.007289 0.716123 0.123620
H22   H     H_    0.824861 0.779602 0.699338 0.177981
H23   H     H_    0.317550 0.761231 0.526121 0.134562
H24   H     H_    0.952740 0.872057 0.696696 0.172183
H25   H     H_    0.831130 0.806545 0.866652 0.149004
H26   H     H_    0.958862 0.901643 0.864486 0.142515
H27   H     H_    0.931693 0.770214 0.859709 0.158461
H28   H     H_    0.221850 0.109068 0.477264 0.126620
H29   H     H_    0.089729 0.026976 0.447437 0.142843
H30   H     H_    0.205319 0.237429 0.335546 0.188813
H31   H     H_    0.074631 0.156936 0.303466 0.175989
H32   H     H_    0.035250 0.167738 0.459277 0.152838
H33   H     H_    0.094198 0.293404 0.393697 0.184949
H34   H     H_    0.685848 0.238724 0.453152 0.131857
H35   H     H_    0.166779 0.244562 0.495187 0.159788
H36   H     H_    0.085815 0.339186 0.803586 0.159537
H37   H     H_    0.212162 0.350986 0.813515 0.115454
H38   H     H_    0.017160 0.154588 0.798355 0.156976
H39   H     H_    0.141527 0.159005 0.802086 0.160021
H40   H     H_    0.194282 0.217118 0.964350 0.167376
H41   H     H_    0.086296 0.097299 0.964355 0.147715
H42   H     H_    0.069197 0.213290 0.960395 0.151867
H43   H     H_    0.959251 0.816267 0.279092 0.158910
H44   H     H_    0.833015 0.797891 0.281241 0.107688
H45   H     H_    0.072964 0.855128 0.411869 0.129200
H46   H     H_    0.914873 0.746990 0.126594 0.178147
H47   H     H_    0.783863 0.720493 0.123296 0.166758
H48   H     H_    0.826441 0.906980 0.117299 0.154044
H49   H     H_    0.865773 0.882922 0.018290 0.142103
H50   H     H_    0.958186 0.933278 0.119102 0.160103
H51   H     H_    0.930453 0.146523 0.576442 0.149335
H52   H     H_    0.465693 0.789669 0.527541 0.097610
H53   H     H_    0.541431 0.197903 0.379882 0.110029
H54   H     H_    0.279988 0.542645 0.449537 0.171624
N1    N     N_R   0.795420 0.560790 0.441960 -0.233711
N2    N     N_R   0.204580 0.439210 0.558040 -0.230931
N3    N     N_1   0.475736 0.590753 0.130257 -0.321132
N4    N     N_1   0.476654 0.267596 0.831961 -0.309188
O1    O     O_R   0.977910 0.338120 0.530560 -0.451048
O2    O     O_3   0.617980 0.374760 0.644978 -0.599542
O3    O     O_3   0.823793 0.949546 0.588127 -0.583736
O4    O     O_3   0.183171 0.045231 0.350124 -0.584140
O5    O     O_3   0.115742 0.316766 0.679740 -0.536529
O6    O     O_3   0.866575 0.665266 0.303052 -0.530383
O7    O     O_R   0.022090 0.661880 0.469440 -0.464767
O8    O     O_R   0.839850 0.379180 0.491410 -0.513585
O9    O     O_R   0.160150 0.620820 0.508590 -0.516683
O10   O     O_R   0.069040 0.479460 0.643530 -0.448171
O11   O     O_R   0.930960 0.520540 0.356470 -0.419923
O12   O     O_R   0.930990 0.520530 0.604380 -0.496165
O13   O     O_R   0.069010 0.479470 0.395620 -0.502576
O14   O     O_3   0.334991 0.516135 0.326104 -0.590062

loop_
_geom_bond_atom_site_label_1
_geom_bond_atom_site_label_2
_ccdc_geom_bond_type
C51   H31   S    
C57   H39   S    
C11   C18   A    
C34   C56   A    
C23   C45   A    
C40   H5    S    
C27   C29   S    
C18   C21   A    
C33   C45   A    
C41   C42   S    
C19   C20   A    
C1    C31   S    
C1    O8    A    
C16   O10   A    
C59   H44   S    
C59   O6    S    
C3    C64   A    
C55   H36   S    
C42   H9    S    
C29   C30   T    
C17   C26   S    
C35   C37   A    
C49   H25   S    
C18   C19   A    
C44   H16   S    
C11   C14   A    
C50   H29   S    
C24   C54   S    
C55   H37   S    
C33   O3    S    
C33   C36   A    
C64   H52   S    
C58   H41   S    
C32   C39   A    
C20   O14   S    
C7    O6    S    
C5    H3    S    
C41   H8    S    
C23   C62   A    
C55   O5    S    
C40   O14   S    
C17   O11   A    
C9    N1    A    
C48   H22   S    
Cu1   O10   S    
C51   H30   S    
C46   H19   S    
Cu1   O13   S    
C6    C15   A    
C59   C60   S    
C48   H24   S    
C46   H17   S    
C4    C56   A    
C60   H47   S    
C7    N1    A    
C43   O2    S    
C44   C46   S    
C22   C53   S    
Cu2   O8    S    
C52   H35   S    
C13   C19   A    
C51   C52   S    
C47   H20   S    
C38   H34   S    
C44   H15   S    
C53   N3    T    
C12   O7    A    
C5    C7    A    
C61   H49   S    
C50   H28   S    
C6    C8    A    
C43   H14   S    
C32   C37   A    
C3    C45   A    
C34   C39   A    
C60   C61   S    
C58   H40   S    
Cu1   O1    S    
C2    C4    A    
C43   C44   S    
C4    H12   S    
C62   C63   A    
C60   H46   S    
C47   C48   S    
C61   H50   S    
C50   C51   S    
Cu2   N1    S    
Cu1   N2    S    
C36   H51   S    
C9    C11   A    
C5    C14   A    
C46   H18   S    
C15   C24   A    
C20   C22   A    
C12   O9    A    
C55   C57   S    
Cu2   O12   S    
C50   O4    S    
C49   H26   S    
C16   O12   A    
C61   H48   S    
Cu2   O7    S    
C16   C25   S    
C6    H4    S    
C57   H38   S    
C54   N4    T    
C48   C49   S    
C40   H6    S    
C35   C56   A    
C42   H10   S    
C3    H1    S    
C1    O1    A    
C63   C64   A    
C10   N2    A    
C10   C13   A    
C17   O13   A    
C2    H53   S    
C47   O3    S    
C25   C27   T    
C23   C38   A    
C52   H33   S    
C26   C28   T    
C31   C38   A    
C14   C22   A    
C13   C15   A    
C9    H2    S    
C28   C30   S    
C8    N2    A    
C57   C58   S    
C52   H32   S    
C34   C63   A    
C59   H43   S    
C58   H42   S    
C35   O4    S    
Cu1   O9    S    
C37   H45   S    
C10   H54   S    
C41   H7    S    
Cu2   O11   S    
C42   H11   S    
Cu1   Cu2   S    
C21   C24   A    
C8    O5    S    
C31   C36   A    
C40   C41   S    
C49   H27   S    
C21   O2    S    
C43   H13   S    
C39   H23   S    
C12   C32   S    
C2    C62   A    
C47   H21   S    
