data_mof_unit_63110.cif
_audit_creation_date              2013-03-05T16:00:38-0500
_audit_creation_method            fapswitch 2.2
_symmetry_space_group_name_H-M    P1
_symmetry_Int_Tables_number       1
_space_group_crystal_system       monoclinic
_cell_length_a                    29.409271
_cell_length_b                    29.409273
_cell_length_c                    47.34096
_cell_angle_alpha                 90.0
_cell_angle_beta                  90.000011
_cell_angle_gamma                 90.0
_cell_volume                      40945.4462439

loop_
_atom_site_label
_atom_site_type_symbol
_atom_site_description
_atom_site_fract_x
_atom_site_fract_y
_atom_site_fract_z
_atom_type_partial_charge
O1    O     O_R   0.061940 0.535840 0.000010 -0.549976
O2    O     O_R   0.464160 0.061940 0.000010 -0.549971
O3    O     O_R   0.938060 0.464160 0.000010 -0.549976
O4    O     O_R   0.535840 0.938060 0.000010 -0.549972
O5    O     O_R   0.061940 0.464160 0.999990 -0.549969
O6    O     O_R   0.464160 0.938060 0.999990 -0.549970
O7    O     O_R   0.938060 0.535840 0.999990 -0.549970
O8    O     O_R   0.535840 0.061940 0.999990 -0.549971
O9    O     O_R   0.561940 0.035840 0.500010 -0.549971
O10   O     O_R   0.964160 0.561940 0.500010 -0.549971
O11   O     O_R   0.438060 0.964160 0.500010 -0.549970
O12   O     O_R   0.035840 0.438060 0.500010 -0.549971
O13   O     O_R   0.561940 0.964160 0.499990 -0.549970
O14   O     O_R   0.964160 0.438060 0.499990 -0.549966
O15   O     O_R   0.438060 0.035840 0.499990 -0.549970
O16   O     O_R   0.035840 0.561940 0.499990 -0.549967
O17   O     O_R   0.499970 0.438000 0.023810 -0.550813
O18   O     O_R   0.562000 0.499970 0.023810 -0.550814
O19   O     O_R   0.500030 0.562000 0.023810 -0.550814
O20   O     O_R   0.438000 0.500030 0.023810 -0.550813
O21   O     O_R   0.499970 0.562000 0.976190 -0.550813
O22   O     O_R   0.562000 0.500030 0.976190 -0.550814
O23   O     O_R   0.500030 0.438000 0.976190 -0.550813
O24   O     O_R   0.438000 0.499970 0.976190 -0.550813
O25   O     O_R   0.999970 0.938000 0.523810 -0.550813
O26   O     O_R   0.062000 0.999970 0.523810 -0.550814
O27   O     O_R   0.000030 0.062000 0.523810 -0.550813
O28   O     O_R   0.938000 0.000030 0.523810 -0.550813
O29   O     O_R   0.999970 0.062000 0.476190 -0.550813
O30   O     O_R   0.062000 0.000030 0.476190 -0.550813
O31   O     O_R   0.000030 0.938000 0.476190 -0.550812
O32   O     O_R   0.938000 0.999970 0.476190 -0.550812
C1    C     C_R   0.085519 0.500000 0.000000 0.849758
C2    C     C_R   0.500000 0.085519 0.000000 0.849731
C3    C     C_R   0.914481 0.500000 0.000000 0.849758
C4    C     C_R   0.500000 0.914481 0.000000 0.849732
C5    C     C_R   0.585519 0.000000 0.500000 0.849724
C6    C     C_R   1.000000 0.585519 0.500000 0.849707
C7    C     C_R   0.414481 0.000000 0.500000 0.849724
C8    C     C_R   1.000000 0.414481 0.500000 0.849708
O33   O     O_R   0.999950 0.535840 0.041070 -0.547429
O34   O     O_R   0.464160 0.999950 0.041070 -0.547424
O35   O     O_R   0.000050 0.464160 0.041070 -0.547428
O36   O     O_R   0.535840 0.000050 0.041070 -0.547425
O37   O     O_R   0.999950 0.464160 0.958930 -0.547436
O38   O     O_R   0.464160 0.000050 0.958930 -0.547426
O39   O     O_R   0.000050 0.535840 0.958930 -0.547436
O40   O     O_R   0.535840 0.999950 0.958930 -0.547427
O41   O     O_R   0.499950 0.035840 0.541070 -0.547423
O42   O     O_R   0.964160 0.499950 0.541070 -0.547415
O43   O     O_R   0.500050 0.964160 0.541070 -0.547423
O44   O     O_R   0.035840 0.500050 0.541070 -0.547415
O45   O     O_R   0.499950 0.964160 0.458930 -0.547424
O46   O     O_R   0.964160 0.500050 0.458930 -0.547422
O47   O     O_R   0.500050 0.035840 0.458930 -0.547424
O48   O     O_R   0.035840 0.499950 0.458930 -0.547423
C9    C     C_R   0.000000 0.500000 0.054980 0.901129
C10   C     C_R   0.500000 0.000000 0.054980 0.901122
C11   C     C_R   1.000000 0.500000 0.945020 0.901174
C12   C     C_R   0.500000 0.000000 0.945020 0.901134
C13   C     C_R   0.500000 0.000000 0.554980 0.901116
C14   C     C_R   0.000000 0.500000 0.554980 0.901086
C15   C     C_R   0.500000 0.000000 0.445020 0.901125
C16   C     C_R   0.000000 0.500000 0.445020 0.901124
Cu1   Cu    Cu3+1 1.000000 0.542440 0.000000 1.103262
Cu2   Cu    Cu3+1 0.457560 0.000000 0.000000 1.103269
Cu3   Cu    Cu3+1 1.000000 0.457560 0.000000 1.103262
Cu4   Cu    Cu3+1 0.542440 0.000000 0.000000 1.103269
Cu5   Cu    Cu3+1 0.500000 0.042440 0.500000 1.103270
Cu6   Cu    Cu3+1 0.957560 0.500000 0.500000 1.103275
Cu7   Cu    Cu3+1 0.500000 0.957560 0.500000 1.103271
Cu8   Cu    Cu3+1 0.042440 0.500000 0.500000 1.103275
C17   C     C_R   0.500000 0.415315 0.000000 0.794094
C18   C     C_R   0.584685 0.500000 0.000000 0.794094
C19   C     C_R   0.500000 0.584685 0.000000 0.794094
C20   C     C_R   0.415315 0.500000 0.000000 0.794094
C21   C     C_R   1.000000 0.915315 0.500000 0.794093
C22   C     C_R   0.084685 0.000000 0.500000 0.794094
C23   C     C_R   0.000000 0.084685 0.500000 0.794094
C24   C     C_R   0.915315 0.000000 0.500000 0.794093
C25   C     C_R   0.031034 0.473939 0.309772 0.687967
C26   C     C_R   0.526060 0.031035 0.309772 0.687969
C27   C     C_R   0.968966 0.526061 0.309772 0.687962
C28   C     C_R   0.473940 0.968965 0.309772 0.687967
C29   C     C_R   0.031028 0.526069 0.690228 0.687970
C30   C     C_R   0.526062 0.968966 0.690227 0.687970
C31   C     C_R   0.968972 0.473932 0.690228 0.687970
C32   C     C_R   0.473939 0.031034 0.690227 0.687966
C33   C     C_R   0.531036 0.973941 0.809773 0.687967
C34   C     C_R   0.026051 0.531043 0.809773 0.687963
C35   C     C_R   0.468964 0.026058 0.809772 0.687960
C36   C     C_R   0.973949 0.468957 0.809773 0.687953
C37   C     C_R   0.531035 0.026060 0.190228 0.687966
C38   C     C_R   0.026059 0.468964 0.190228 0.687967
C39   C     C_R   0.468965 0.973940 0.190228 0.687968
C40   C     C_R   0.973941 0.531036 0.190228 0.687961
N1    N     N_R   1.000000 0.500000 0.323834 -0.435509
N2    N     N_R   0.500000 1.000000 0.323834 -0.435507
N3    N     N_R   0.000000 0.500000 0.676166 -0.435505
N4    N     N_R   0.500000 0.000000 0.676166 -0.435507
N5    N     N_R   0.500000 1.000000 0.823834 -0.435509
N6    N     N_R   0.000000 0.500000 0.823834 -0.435511
N7    N     N_R   0.500000 1.000000 0.176166 -0.435507
N8    N     N_R   0.000000 0.500000 0.176166 -0.435508
C41   C     C_R   0.969840 0.528842 0.279972 -0.137510
C42   C     C_R   0.471159 0.969839 0.279972 -0.137511
C43   C     C_R   0.030160 0.471158 0.279972 -0.137511
C44   C     C_R   0.528841 0.030161 0.279972 -0.137511
C45   C     C_R   0.969848 0.471150 0.720028 -0.137509
C46   C     C_R   0.471158 0.030160 0.720028 -0.137511
C47   C     C_R   0.030153 0.528850 0.720028 -0.137510
C48   C     C_R   0.528843 0.969840 0.720028 -0.137511
C49   C     C_R   0.469838 0.028840 0.779972 -0.137512
C50   C     C_R   0.971168 0.469830 0.779972 -0.137512
C51   C     C_R   0.530162 0.971160 0.779972 -0.137511
C52   C     C_R   0.028832 0.530169 0.779972 -0.137512
C53   C     C_R   0.469839 0.971159 0.220028 -0.137511
C54   C     C_R   0.971160 0.530162 0.220028 -0.137512
C55   C     C_R   0.530161 0.028841 0.220028 -0.137511
C56   C     C_R   0.028840 0.469838 0.220028 -0.137512
C57   C     C_R   0.000000 0.500000 0.264980 -0.066532
C58   C     C_R   0.500000 1.000000 0.264980 -0.066531
C59   C     C_R   0.000000 0.500000 0.735020 -0.066533
C60   C     C_R   0.500000 1.000000 0.735020 -0.066531
C61   C     C_R   0.500000 1.000000 0.764980 -0.066531
C62   C     C_R   0.000000 0.500000 0.764980 -0.066529
C63   C     C_R   0.500000 0.000000 0.235020 -0.066531
C64   C     C_R   0.000000 0.500000 0.235020 -0.066531
C65   C     C_R   0.940958 0.558714 0.264824 0.250064
C66   C     C_R   0.441288 0.940956 0.264824 0.250063
C67   C     C_R   0.059042 0.441285 0.264824 0.250065
C68   C     C_R   0.558712 0.059044 0.264824 0.250063
C69   C     C_R   0.940974 0.441269 0.735176 0.250063
C70   C     C_R   0.441285 0.059042 0.735176 0.250064
C71   C     C_R   0.059027 0.558730 0.735176 0.250063
C72   C     C_R   0.558715 0.940958 0.735176 0.250063
C73   C     C_R   0.440953 0.058710 0.764824 0.250064
C74   C     C_R   0.941306 0.440938 0.764824 0.250062
C75   C     C_R   0.559047 0.941290 0.764824 0.250064
C76   C     C_R   0.058695 0.559062 0.764824 0.250063
C77   C     C_R   0.440956 0.941287 0.235176 0.250063
C78   C     C_R   0.941290 0.559046 0.235176 0.250065
C79   C     C_R   0.559044 0.058713 0.235176 0.250064
C80   C     C_R   0.058711 0.440954 0.235176 0.250064
O49   O     O_2   0.062656 0.451241 0.324830 -0.460326
O50   O     O_2   0.548757 0.062657 0.324830 -0.460327
O51   O     O_2   0.937344 0.548759 0.324830 -0.460328
O52   O     O_2   0.451243 0.937343 0.324830 -0.460327
O53   O     O_2   0.062644 0.548774 0.675170 -0.460329
O54   O     O_2   0.548760 0.937345 0.675169 -0.460327
O55   O     O_2   0.937356 0.451226 0.675170 -0.460329
O56   O     O_2   0.451240 0.062655 0.675169 -0.460328
O57   O     O_2   0.562660 0.951246 0.824831 -0.460326
O58   O     O_2   0.048739 0.562672 0.824831 -0.460325
O59   O     O_2   0.437340 0.048754 0.824830 -0.460328
O60   O     O_2   0.951262 0.437328 0.824831 -0.460327
O61   O     O_2   0.562657 0.048758 0.175170 -0.460327
O62   O     O_2   0.048755 0.437341 0.175170 -0.460327
O63   O     O_2   0.437343 0.951242 0.175170 -0.460326
O64   O     O_2   0.951245 0.562659 0.175170 -0.460327
Cu9   Cu    Cu3+1 0.500000 0.500000 0.028170 1.024474
Cu10  Cu    Cu3+1 0.500000 0.500000 0.971830 1.024472
Cu11  Cu    Cu3+1 0.000000 0.000000 0.528170 1.024477
Cu12  Cu    Cu3+1 0.000000 0.000000 0.471830 1.024475
C81   C     C_R   0.038614 0.516183 0.130837 -0.068252
C82   C     C_R   0.483815 0.038613 0.130837 -0.068253
C83   C     C_R   0.961386 0.483817 0.130837 -0.068251
C84   C     C_R   0.516185 0.961387 0.130837 -0.068253
C85   C     C_R   0.038619 0.483827 0.869163 -0.068248
C86   C     C_R   0.483817 0.961385 0.869162 -0.068252
C87   C     C_R   0.961382 0.516173 0.869163 -0.068247
C88   C     C_R   0.516182 0.038614 0.869162 -0.068251
C89   C     C_R   0.538613 0.016187 0.630838 -0.068253
C90   C     C_R   0.983806 0.538610 0.630838 -0.068257
C91   C     C_R   0.461387 0.983813 0.630838 -0.068253
C92   C     C_R   0.016194 0.461390 0.630838 -0.068256
C93   C     C_R   0.538613 0.983815 0.369162 -0.068253
C94   C     C_R   0.983815 0.461386 0.369162 -0.068252
C95   C     C_R   0.461386 0.016185 0.369162 -0.068252
C96   C     C_R   0.016185 0.538613 0.369162 -0.068251
C97   C     C_R   0.039151 0.514628 0.100989 -0.117694
C98   C     C_R   0.485369 0.039150 0.100989 -0.117693
C99   C     C_R   0.960849 0.485372 0.100989 -0.117694
C100  C     C_R   0.514630 0.960850 0.100989 -0.117693
C101  C     C_R   0.039155 0.485382 0.899011 -0.117698
C102  C     C_R   0.485372 0.960848 0.899011 -0.117694
C103  C     C_R   0.960845 0.514618 0.899011 -0.117698
C104  C     C_R   0.514628 0.039151 0.899011 -0.117695
C105  C     C_R   0.539150 0.014632 0.600989 -0.117693
C106  C     C_R   0.985361 0.539147 0.600989 -0.117690
C107  C     C_R   0.460850 0.985368 0.600989 -0.117694
C108  C     C_R   0.014639 0.460853 0.600989 -0.117691
C109  C     C_R   0.539150 0.985370 0.399011 -0.117693
C110  C     C_R   0.985369 0.460850 0.399011 -0.117694
C111  C     C_R   0.460849 0.014630 0.399011 -0.117694
C112  C     C_R   0.014630 0.539150 0.399011 -0.117695
C113  C     C_R   0.000000 0.500000 0.086126 -0.075762
C114  C     C_R   0.500000 0.000000 0.086126 -0.075764
C115  C     C_R   0.000000 0.500000 0.913875 -0.075755
C116  C     C_R   0.500000 1.000000 0.913874 -0.075763
C117  C     C_R   0.500000 1.000000 0.586126 -0.075766
C118  C     C_R   0.000000 0.500000 0.586126 -0.075773
C119  C     C_R   0.500000 0.000000 0.413874 -0.075765
C120  C     C_R   1.000000 0.500000 0.413874 -0.075766
C121  C     C_R   0.000000 0.500000 0.145670 0.299716
C122  C     C_R   0.500000 0.000000 0.145670 0.299717
C123  C     C_R   0.000000 0.500000 0.854330 0.299717
C124  C     C_R   0.500000 1.000000 0.854330 0.299717
C125  C     C_R   0.500000 0.000000 0.645670 0.299717
C126  C     C_R   1.000000 0.500000 0.645670 0.299716
C127  C     C_R   0.500000 0.000000 0.354330 0.299717
C128  C     C_R   0.000000 0.500000 0.354330 0.299717
C129  C     C_1   0.136624 0.500000 0.000000 -0.138654
C130  C     C_1   0.500000 0.136624 0.000000 -0.138669
C131  C     C_1   0.863376 0.500000 0.000000 -0.138654
C132  C     C_1   0.500000 0.863376 0.000000 -0.138668
C133  C     C_1   0.636624 0.000000 0.500000 -0.138673
C134  C     C_1   1.000000 0.636624 0.500000 -0.138682
C135  C     C_1   0.363376 0.000000 0.500000 -0.138673
C136  C     C_1   0.000000 0.363376 0.500000 -0.138682
C137  C     C_1   0.178989 0.500000 0.000000 0.033198
C138  C     C_1   0.500000 0.178989 0.000000 0.033197
C139  C     C_1   0.821011 0.500000 0.000000 0.033198
C140  C     C_1   0.500000 0.821011 0.000000 0.033197
C141  C     C_1   0.678989 0.000000 0.500000 0.033197
C142  C     C_1   1.000000 0.678989 0.500000 0.033197
C143  C     C_1   0.321011 0.000000 0.500000 0.033197
C144  C     C_1   1.000000 0.321011 0.500000 0.033197
C145  C     C_1   0.229220 0.500000 0.000000 0.036311
C146  C     C_1   0.500000 0.229220 0.000000 0.036311
C147  C     C_1   0.770779 0.500000 0.000000 0.036311
C148  C     C_1   0.500000 0.770779 0.000000 0.036311
C149  C     C_1   0.729220 0.000000 0.500000 0.036311
C150  C     C_1   1.000000 0.729221 0.500000 0.036311
C151  C     C_1   0.270779 0.000000 0.500000 0.036311
C152  C     C_1   0.000000 0.270779 0.500000 0.036311
C153  C     C_1   0.271590 0.500000 0.000000 0.035316
C154  C     C_1   0.500000 0.271590 0.000000 0.035316
C155  C     C_1   0.728410 0.500000 0.000000 0.035316
C156  C     C_1   0.500000 0.728410 0.000000 0.035316
C157  C     C_1   0.771590 0.000000 0.500000 0.035316
C158  C     C_1   1.000000 0.771590 0.500000 0.035316
C159  C     C_1   0.228410 0.000000 0.500000 0.035316
C160  C     C_1   0.000000 0.228410 0.500000 0.035317
C161  C     C_1   0.321825 0.500000 0.000000 0.030940
C162  C     C_1   0.500000 0.321825 0.000000 0.030940
C163  C     C_1   0.678175 0.500000 0.000000 0.030940
C164  C     C_1   0.500000 0.678175 0.000000 0.030940
C165  C     C_1   0.821825 0.000000 0.500000 0.030941
C166  C     C_1   1.000000 0.821825 0.500000 0.030941
C167  C     C_1   0.178175 0.000000 0.500000 0.030941
C168  C     C_1   1.000000 0.178175 0.500000 0.030941
C169  C     C_1   0.364195 0.500000 0.000000 -0.160882
C170  C     C_1   0.500000 0.364195 0.000000 -0.160882
C171  C     C_1   0.635805 0.500000 0.000000 -0.160881
C172  C     C_1   0.500000 0.635805 0.000000 -0.160881
C173  C     C_1   0.864195 0.000000 0.500000 -0.160881
C174  C     C_1   1.000000 0.864195 0.500000 -0.160881
C175  C     C_1   0.135805 0.000000 0.500000 -0.160880
C176  C     C_1   0.000000 0.135805 0.500000 -0.160880
N9    N     N_R   0.911562 0.589969 0.279218 0.192106
O65   O     O_R   0.867657 0.585918 0.276994 -0.234140
O66   O     O_R   0.928633 0.625746 0.291422 -0.253809
N10   N     N_R   0.410034 0.911559 0.279218 0.192105
O67   O     O_R   0.414087 0.867654 0.276994 -0.234140
O68   O     O_R   0.374256 0.928628 0.291422 -0.253807
N11   N     N_R   0.088438 0.410031 0.279218 0.192105
O69   O     O_R   0.132343 0.414082 0.276994 -0.234140
O70   O     O_R   0.071367 0.374253 0.291422 -0.253808
N12   N     N_R   0.589965 0.088442 0.279218 0.192106
O71   O     O_R   0.585913 0.132346 0.276994 -0.234140
O72   O     O_R   0.625744 0.071372 0.291422 -0.253807
N13   N     N_R   0.911587 0.410006 0.720782 0.192104
O73   O     O_R   0.867681 0.414043 0.723007 -0.234141
O74   O     O_R   0.928669 0.374235 0.708577 -0.253809
N14   N     N_R   0.410030 0.088437 0.720782 0.192106
O75   O     O_R   0.414081 0.132342 0.723005 -0.234141
O76   O     O_R   0.374253 0.071366 0.708578 -0.253807
N15   N     N_R   0.088414 0.589993 0.720782 0.192105
O77   O     O_R   0.132320 0.585955 0.723006 -0.234141
O78   O     O_R   0.071333 0.625765 0.708577 -0.253808
N16   N     N_R   0.589970 0.911563 0.720782 0.192106
O79   O     O_R   0.585920 0.867658 0.723005 -0.234141
O80   O     O_R   0.625748 0.928634 0.708578 -0.253806
N17   N     N_R   0.411555 0.089962 0.779218 0.192106
O81   O     O_R   0.367651 0.085907 0.776994 -0.234139
O82   O     O_R   0.428623 0.125741 0.791422 -0.253810
N18   N     N_R   0.910062 0.411530 0.779219 0.192107
O83   O     O_R   0.914130 0.367627 0.776995 -0.234138
O84   O     O_R   0.874278 0.428588 0.791422 -0.253809
N19   N     N_R   0.588445 0.910038 0.779218 0.192106
O85   O     O_R   0.632350 0.914093 0.776995 -0.234139
O86   O     O_R   0.571377 0.874259 0.791422 -0.253808
N20   N     N_R   0.089939 0.588469 0.779219 0.192106
O87   O     O_R   0.085872 0.632372 0.776995 -0.234138
O88   O     O_R   0.125723 0.571411 0.791422 -0.253808
N21   N     N_R   0.411559 0.910034 0.220782 0.192105
O89   O     O_R   0.367655 0.914087 0.223005 -0.234140
O90   O     O_R   0.428629 0.874255 0.208578 -0.253806
N22   N     N_R   0.910037 0.588444 0.220781 0.192106
O91   O     O_R   0.914091 0.632348 0.223005 -0.234140
O92   O     O_R   0.874258 0.571376 0.208578 -0.253809
N23   N     N_R   0.588441 0.089966 0.220782 0.192106
O93   O     O_R   0.632345 0.085914 0.223005 -0.234140
O94   O     O_R   0.571371 0.125745 0.208578 -0.253807
N24   N     N_R   0.089963 0.411556 0.220782 0.192105
O95   O     O_R   0.085909 0.367651 0.223005 -0.234140
O96   O     O_R   0.125742 0.428624 0.208578 -0.253807
C177  C     C_2   0.078015 0.536289 0.146423 0.465160
H1    H     H_    0.111705 0.536616 0.137200 0.070954
O97   O     O_2   0.073197 0.554175 0.169501 -0.501699
C178  C     C_2   0.463706 0.078013 0.146423 0.465162
H2    H     H_    0.463377 0.111703 0.137200 0.070955
O98   O     O_2   0.445822 0.073195 0.169501 -0.501702
C179  C     C_2   0.921985 0.463711 0.146424 0.465160
H3    H     H_    0.888295 0.463385 0.137200 0.070954
O99   O     O_2   0.926803 0.445824 0.169500 -0.501699
C180  C     C_2   0.536294 0.921987 0.146423 0.465161
H4    H     H_    0.536624 0.888297 0.137200 0.070955
O100  O     O_2   0.554177 0.926805 0.169501 -0.501702
C181  C     C_2   0.078026 0.463732 0.853577 0.465154
H5    H     H_    0.111716 0.463416 0.862799 0.070949
O101  O     O_2   0.073211 0.445843 0.830500 -0.501696
C182  C     C_2   0.463712 0.921984 0.853577 0.465160
H6    H     H_    0.463385 0.888294 0.862800 0.070953
O102  O     O_2   0.445827 0.926802 0.830499 -0.501699
C183  C     C_2   0.921975 0.536267 0.853576 0.465151
H7    H     H_    0.888284 0.536579 0.862798 0.070949
O103  O     O_2   0.926790 0.554159 0.830501 -0.501694
C184  C     C_2   0.536288 0.078016 0.853576 0.465160
H8    H     H_    0.536612 0.111706 0.862799 0.070952
O104  O     O_2   0.554175 0.073197 0.830500 -0.501698
C185  C     C_2   0.578012 0.036297 0.646423 0.465163
H9    H     H_    0.611701 0.036629 0.637199 0.070955
O105  O     O_2   0.573193 0.054179 0.669501 -0.501702
C186  C     C_2   0.963687 0.578005 0.646423 0.465171
H10   H     H_    0.963347 0.611694 0.637199 0.070958
O106  O     O_2   0.945807 0.573183 0.669502 -0.501705
C187  C     C_2   0.421988 0.963704 0.646424 0.465162
H11   H     H_    0.388299 0.963373 0.637200 0.070955
O107  O     O_2   0.426808 0.945819 0.669501 -0.501702
C188  C     C_2   0.036313 0.421995 0.646423 0.465169
H12   H     H_    0.036653 0.388307 0.637199 0.070959
O108  O     O_2   0.054194 0.426818 0.669502 -0.501703
C189  C     C_2   0.578014 0.963707 0.353577 0.465162
H13   H     H_    0.611703 0.963376 0.362801 0.070954
O109  O     O_2   0.573195 0.945823 0.330499 -0.501702
C190  C     C_2   0.963706 0.421987 0.353577 0.465161
H14   H     H_    0.963376 0.388297 0.362800 0.070955
O110  O     O_2   0.945821 0.426806 0.330499 -0.501700
C191  C     C_2   0.421986 0.036293 0.353577 0.465162
H15   H     H_    0.388297 0.036622 0.362800 0.070954
O111  O     O_2   0.426805 0.054177 0.330499 -0.501701
C192  C     C_2   0.036294 0.578013 0.353576 0.465163
H16   H     H_    0.036622 0.611703 0.362800 0.070954
O112  O     O_2   0.054180 0.573193 0.330499 -0.501699
C193  C     C_2   0.081228 0.527608 0.085481 0.320290
H17   H     H_    0.113673 0.513109 0.091603 0.077399
O113  O     O_2   0.080266 0.555388 0.066348 -0.501598
C194  C     C_2   0.472388 0.081226 0.085481 0.320290
H18   H     H_    0.486886 0.113672 0.091603 0.077399
O114  O     O_2   0.444608 0.080264 0.066349 -0.501591
C195  C     C_2   0.918772 0.472392 0.085481 0.320292
H19   H     H_    0.886327 0.486890 0.091603 0.077398
O115  O     O_2   0.919734 0.444612 0.066348 -0.501596
C196  C     C_2   0.527611 0.918774 0.085481 0.320290
H20   H     H_    0.513114 0.886328 0.091603 0.077400
O116  O     O_2   0.555392 0.919736 0.066349 -0.501591
C197  C     C_2   0.081235 0.472411 0.914519 0.320294
H21   H     H_    0.113677 0.486914 0.908397 0.077400
O117  O     O_2   0.080278 0.444634 0.933654 -0.501619
C198  C     C_2   0.472393 0.918772 0.914519 0.320292
H22   H     H_    0.486892 0.886327 0.908397 0.077399
O118  O     O_2   0.444613 0.919733 0.933652 -0.501596
C199  C     C_2   0.918766 0.527589 0.914519 0.320298
H23   H     H_    0.886323 0.513086 0.908396 0.077399
O119  O     O_2   0.919722 0.555366 0.933654 -0.501619
C200  C     C_2   0.527607 0.081228 0.914519 0.320295
H24   H     H_    0.513108 0.113673 0.908397 0.077398
O120  O     O_2   0.555387 0.080267 0.933651 -0.501596
C201  C     C_2   0.581226 0.027614 0.585481 0.320289
H25   H     H_    0.613672 0.013117 0.591602 0.077399
O121  O     O_2   0.580262 0.055395 0.566349 -0.501587
C202  C     C_2   0.972372 0.581221 0.585482 0.320288
H26   H     H_    0.986865 0.613669 0.591602 0.077399
O122  O     O_2   0.944589 0.580254 0.566350 -0.501570
C203  C     C_2   0.418774 0.972386 0.585481 0.320293
H27   H     H_    0.386328 0.986882 0.591603 0.077398
O123  O     O_2   0.419738 0.944605 0.566349 -0.501587
C204  C     C_2   0.027628 0.418779 0.585482 0.320290
H28   H     H_    0.013134 0.386331 0.591603 0.077398
O124  O     O_2   0.055410 0.419746 0.566351 -0.501571
C205  C     C_2   0.581227 0.972389 0.414519 0.320289
H29   H     H_    0.613672 0.986887 0.408397 0.077399
O125  O     O_2   0.580264 0.944608 0.433651 -0.501590
C206  C     C_2   0.972388 0.418774 0.414519 0.320293
H30   H     H_    0.986885 0.386328 0.408397 0.077399
O126  O     O_2   0.944607 0.419736 0.433651 -0.501588
C207  C     C_2   0.418773 0.027611 0.414519 0.320293
H31   H     H_    0.386328 0.013113 0.408397 0.077399
O127  O     O_2   0.419736 0.055392 0.433651 -0.501591
C208  C     C_2   0.027612 0.581226 0.414519 0.320296
H32   H     H_    0.013115 0.613672 0.408397 0.077398
O128  O     O_2   0.055392 0.580263 0.433651 -0.501589

loop_
_geom_bond_atom_site_label_1
_geom_bond_atom_site_label_2
_geom_bond_distance
_ccdc_geom_bond_type
O4    C4    1.261671 A    
C193  H17   1.084558 S    
N1    C128  1.443710 S    
C55   C79   1.416889 A    
C6    C134  1.502964 S    
N19   O85   1.300949 A    
C56   C80   1.416886 A    
N7    C122  1.443710 S    
O30   Cu12  1.835020 S    
O5    Cu3   1.831923 S    
O34   C10   1.242826 A    
C75   N19   1.434093 S    
N23   O94   1.301128 A    
C95   C111  1.413889 A    
C185  H9    1.082782 S    
N16   O79   1.300950 A    
C99   C113  1.416313 A    
C93   C109  1.413889 A    
C83   C121  1.417462 A    
C96   C192  1.495587 S    
C206  O126  1.220109 D    
C48   C60   1.417727 A    
C68   N12   1.434095 S    
C67   N11   1.434092 S    
O26   Cu11  1.835021 S    
C198  H22   1.084559 S    
C42   C66   1.416889 A    
C66   C77   1.403618 A    
C130  C138  1.245936 T    
C182  H6    1.082782 S    
O48   Cu8   1.953963 S    
C22   C175  1.503381 S    
C34   C52   1.413382 A    
C112  C120  1.416313 A    
C72   N16   1.434095 S    
C208  O128  1.220107 D    
C96   C112  1.413885 A    
C36   N6    1.365126 A    
O38   C12   1.242826 A    
O2    C2    1.261674 A    
C16   C120  1.474458 S    
C38   N8    1.365126 A    
O41   Cu5   1.953959 S    
C8    C136  1.502964 S    
C74   N18   1.434096 S    
C26   N2    1.365129 A    
O43   Cu7   1.953959 S    
O31   C21   1.309831 A    
C37   O61   1.348562 S    
C184  H8    1.082786 S    
C45   C69   1.416892 A    
C159  C167  1.477357 S    
C57   C64   1.418349 A    
C99   C195  1.488605 S    
C1    C129  1.502964 S    
C188  H12   1.082779 S    
O24   C20   1.309831 A    
C59   C62   1.418349 A    
C204  O124  1.220105 D    
C65   C78   1.403623 A    
C161  C169  1.246091 T    
C27   C41   1.413378 A    
O12   C8    1.261671 A    
C132  C140  1.245936 T    
O44   Cu8   1.953959 S    
C91   C187  1.495592 S    
O32   C24   1.309831 A    
N23   O93   1.300952 A    
O46   Cu6   1.953963 S    
C81   C177  1.495589 S    
C56   C64   1.417727 A    
N24   O95   1.300951 A    
C94   C128  1.417460 A    
N8    C121  1.443715 S    
C151  C159  1.246062 T    
C51   C75   1.416891 A    
C100  C114  1.416312 A    
C40   N8    1.365128 A    
C201  H25   1.084558 S    
N12   O72   1.301130 A    
C145  C153  1.246062 T    
C203  H27   1.084561 S    
O45   Cu7   1.953963 S    
N22   O91   1.300951 A    
C168  C176  1.246091 T    
C183  O103  1.220786 D    
N2    C127  1.443715 S    
C207  O127  1.220107 D    
O37   C11   1.242826 A    
C33   N5    1.365125 A    
C45   C59   1.417730 A    
C186  H10   1.082783 S    
C202  O122  1.220111 D    
C85   C123  1.417462 A    
C41   C65   1.416890 A    
C199  H23   1.084560 S    
C205  H29   1.084558 S    
C109  C119  1.416311 A    
O10   C6    1.261674 A    
C105  C117  1.416312 A    
O42   Cu6   1.953959 S    
C141  C149  1.477269 S    
N17   O82   1.301130 A    
C190  H14   1.082782 S    
O11   Cu7   1.831926 S    
N15   O78   1.301131 A    
C12   C116  1.474458 S    
O39   C11   1.242824 A    
C17   C170  1.503381 S    
C111  C119  1.416314 A    
C181  H5    1.082786 S    
C87   C183  1.495586 S    
C24   C173  1.503381 S    
C107  C117  1.416310 A    
C200  H24   1.084558 S    
C81   C121  1.417461 A    
C134  C142  1.245936 T    
C33   C51   1.413377 A    
C80   N24   1.434092 S    
C191  H15   1.082784 S    
C82   C98   1.413889 A    
C97   C113  1.416315 A    
C37   N7    1.365128 A    
C39   C53   1.413377 A    
C90   C186  1.495593 S    
O26   C22   1.309826 A    
C15   C119  1.474458 S    
C39   O63   1.348561 S    
C7    C135  1.502964 S    
N19   O86   1.301130 A    
C30   O54   1.348561 S    
N9    O65   1.300951 A    
C50   C62   1.417728 A    
O18   Cu9   1.835021 S    
C104  C116  1.416313 A    
C207  H31   1.084558 S    
N4    C125  1.443710 S    
C82   C178  1.495590 S    
C178  H2    1.082784 S    
C58   C63   1.418349 A    
C96   C128  1.417463 A    
C34   N6    1.365128 A    
C180  O100  1.220783 D    
O27   Cu11  1.835021 S    
C38   C56   1.413377 A    
C95   C191  1.495587 S    
N10   O67   1.300950 A    
O5    C1    1.261674 A    
O1    Cu1   1.831923 S    
O48   C16   1.242824 A    
C26   C44   1.413377 A    
C46   C60   1.417727 A    
C77   N21   1.434093 S    
O17   C17   1.309827 A    
N21   O90   1.301132 A    
C48   C72   1.416890 A    
C98   C194  1.488603 S    
C194  H18   1.084558 S    
C39   N7    1.365127 A    
C177  O97   1.220786 D    
C69   N13   1.434097 S    
O4    Cu4   1.831926 S    
C106  C118  1.416313 A    
C97   C193  1.488604 S    
N18   O84   1.301133 A    
O11   C7    1.261674 A    
C86   C124  1.417460 A    
C29   N3    1.365130 A    
C28   C42   1.413378 A    
O3    C3    1.261674 A    
N15   O77   1.300953 A    
C110  C120  1.416313 A    
C42   C58   1.417726 A    
O8    C2    1.261671 A    
C101  C115  1.416312 A    
C102  C198  1.488605 S    
O47   Cu5   1.953963 S    
O17   Cu9   1.835021 S    
C150  C158  1.246062 T    
C78   N22   1.434094 S    
C46   C70   1.416890 A    
C34   O58   1.348562 S    
O22   C18   1.309830 A    
C87   C123  1.417463 A    
C156  C164  1.477357 S    
C208  H32   1.084559 S    
C100  C196  1.488606 S    
O31   Cu12  1.835021 S    
C101  C197  1.488611 S    
O21   Cu10  1.835021 S    
C40   O64   1.348563 S    
C89   C125  1.417462 A    
O2    Cu2   1.831923 S    
N11   O69   1.300948 A    
C29   O53   1.348564 S    
O21   C19   1.309830 A    
N16   O80   1.301129 A    
C142  C150  1.477269 S    
C111  C207  1.488605 S    
O44   C14   1.242826 A    
C93   C127  1.417460 A    
C4    C132  1.502964 S    
C104  C200  1.488604 S    
O45   C15   1.242826 A    
O46   C16   1.242826 A    
O25   Cu11  1.835021 S    
O32   Cu12  1.835021 S    
N13   O74   1.301134 A    
O6    C4    1.261674 A    
C91   C125  1.417462 A    
C92   C188  1.495592 S    
C44   C68   1.416891 A    
C146  C154  1.246062 T    
O35   C9    1.242826 A    
C69   C74   1.403618 A    
N14   O75   1.300950 A    
C138  C146  1.477269 S    
O35   Cu3   1.953959 S    
C192  H16   1.082785 S    
C37   C55   1.413377 A    
C3    C131  1.502964 S    
C66   N10   1.434093 S    
O28   Cu11  1.835020 S    
C133  C141  1.245936 T    
C197  O117  1.220111 D    
C55   C63   1.417728 A    
C25   C43   1.413378 A    
N20   O88   1.301132 A    
O16   Cu8   1.831923 S    
C5    C133  1.502964 S    
C70   C73   1.403623 A    
Cu9   Cu10  2.667185 S    
C94   C110  1.413889 A    
C184  O104  1.220783 D    
C71   N15   1.434097 S    
O9    Cu5   1.831923 S    
O38   Cu2   1.953963 S    
N20   O87   1.300952 A    
O22   Cu10  1.835020 S    
C188  O108  1.220783 D    
C136  C144  1.245936 T    
C155  C163  1.477357 S    
O19   Cu9   1.835021 S    
C196  H20   1.084558 S    
C14   C118  1.474463 S    
C28   N2    1.365127 A    
C167  C175  1.246091 T    
C129  C137  1.245936 T    
O36   C10   1.242824 A    
Cu1   Cu3   2.496262 S    
O43   C13   1.242826 A    
O37   Cu3   1.953963 S    
N24   O96   1.301131 A    
C195  H19   1.084559 S    
C189  O109  1.220782 D    
C30   N4    1.365128 A    
C18   C171  1.503381 S    
O23   Cu10  1.835021 S    
C32   C46   1.413377 A    
C68   C79   1.403618 A    
C28   O52   1.348561 S    
O12   Cu8   1.831926 S    
C179  H3    1.082786 S    
C38   O62   1.348561 S    
O14   Cu6   1.831926 S    
O29   Cu12  1.835021 S    
C102  C116  1.416311 A    
C72   C75   1.403623 A    
C65   N9    1.434094 S    
C26   O50   1.348559 S    
C139  C147  1.477269 S    
C185  O105  1.220784 D    
C71   C76   1.403618 A    
O3    Cu3   1.831926 S    
O41   C13   1.242824 A    
C47   C59   1.417725 A    
C158  C166  1.477357 S    
C112  C208  1.488607 S    
C206  H30   1.084559 S    
C186  O106  1.220780 D    
C2    C130  1.502964 S    
C162  C170  1.246091 T    
C203  O123  1.220108 D    
C103  C115  1.416312 A    
C53   C77   1.416890 A    
N17   O81   1.300952 A    
N5    C124  1.443715 S    
O7    Cu1   1.831926 S    
C187  H11   1.082780 S    
O29   C23   1.309830 A    
C86   C102  1.413889 A    
C190  O110  1.220786 D    
C157  C165  1.477357 S    
O40   Cu4   1.953963 S    
C53   C63   1.417726 A    
C32   N4    1.365128 A    
C90   C106  1.413885 A    
O10   Cu6   1.831923 S    
C166  C174  1.246091 T    
C43   C57   1.417727 A    
C200  O120  1.220109 D    
C165  C173  1.246091 T    
C29   C47   1.413374 A    
C191  O111  1.220782 D    
C182  O102  1.220787 D    
C204  H28   1.084559 S    
C31   C45   1.413374 A    
O13   Cu7   1.831923 S    
C192  O112  1.220783 D    
C83   C179  1.495586 S    
O33   C9    1.242824 A    
C183  H7    1.082793 S    
C91   C107  1.413885 A    
N11   O70   1.301130 A    
C47   C71   1.416893 A    
C178  O98   1.220782 D    
N10   O68   1.301132 A    
C27   N1    1.365128 A    
C137  C145  1.477269 S    
C201  O121  1.220110 D    
N12   O71   1.300950 A    
C103  C199  1.488609 S    
C82   C122  1.417462 A    
C135  C143  1.245936 T    
C67   C80   1.403623 A    
C163  C171  1.246091 T    
Cu2   Cu4   2.496262 S    
C107  C203  1.488606 S    
C70   N14   1.434094 S    
N21   O89   1.300952 A    
Cu11  Cu12  2.667185 S    
C98   C114  1.416313 A    
C109  C205  1.488606 S    
C202  H26   1.084558 S    
C194  O114  1.220108 D    
O1    C1    1.261671 A    
C177  H1    1.082783 S    
C106  C202  1.488603 S    
C205  O125  1.220112 D    
O25   C21   1.309827 A    
C23   C176  1.503381 S    
C40   C54   1.413377 A    
O27   C23   1.309826 A    
C140  C148  1.477269 S    
C76   N20   1.434093 S    
C108  C204  1.488604 S    
C92   C108  1.413890 A    
C49   C61   1.417727 A    
C95   C127  1.417462 A    
O20   C20   1.309827 A    
C147  C155  1.246062 T    
C89   C105  1.413889 A    
Cu5   Cu7   2.496262 S    
C105  C201  1.488602 S    
C13   C117  1.474463 S    
C83   C99   1.413889 A    
C11   C115  1.474453 S    
C84   C100  1.413889 A    
C89   C185  1.495589 S    
N22   O92   1.301129 A    
N6    C123  1.443715 S    
C35   N5    1.365127 A    
O13   C5    1.261674 A    
C79   N23   1.434093 S    
C50   C74   1.416891 A    
O18   C18   1.309826 A    
C31   O55   1.348561 S    
C195  O115  1.220112 D    
C154  C162  1.477357 S    
C54   C64   1.417727 A    
O23   C17   1.309831 A    
O40   C12   1.242824 A    
C31   N3    1.365130 A    
C199  O119  1.220111 D    
O15   Cu5   1.831926 S    
C179  O99   1.220782 D    
C153  C161  1.477357 S    
C88   C124  1.417463 A    
C84   C180  1.495590 S    
C43   C67   1.416890 A    
C19   C172  1.503381 S    
N9    O66   1.301131 A    
O33   Cu1   1.953959 S    
C181  O101  1.220785 D    
O14   C8    1.261674 A    
C35   C49   1.413377 A    
O47   C15   1.242824 A    
C193  O113  1.220108 D    
C30   C48   1.413377 A    
C198  O118  1.220108 D    
C35   O59   1.348562 S    
C180  H4    1.082783 S    
C33   O57   1.348563 S    
C73   N17   1.434093 S    
O15   C7    1.261671 A    
O9    C5    1.261671 A    
N13   O73   1.300954 A    
C41   C57   1.417727 A    
C36   O60   1.348563 S    
C86   C182  1.495590 S    
C20   C169  1.503381 S    
C27   O51   1.348562 S    
C149  C157  1.246062 T    
C187  O107  1.220781 D    
N14   O76   1.301128 A    
O8    Cu4   1.831923 S    
C25   O49   1.348562 S    
C21   C174  1.503381 S    
O42   C14   1.242829 A    
C84   C122  1.417463 A    
O36   Cu4   1.953959 S    
C110  C206  1.488603 S    
O34   Cu2   1.953959 S    
C197  H21   1.084558 S    
C10   C114  1.474458 S    
C85   C181  1.495589 S    
C160  C168  1.477357 S    
C90   C126  1.417465 A    
O7    C3    1.261671 A    
O24   Cu10  1.835021 S    
C44   C58   1.417726 A    
C54   C78   1.416888 A    
C131  C139  1.245936 T    
C32   O56   1.348559 S    
Cu6   Cu8   2.496262 S    
C164  C172  1.246091 T    
C143  C151  1.477269 S    
C51   C61   1.417730 A    
C87   C103  1.413889 A    
C81   C97   1.413884 A    
N18   O83   1.300952 A    
C152  C160  1.246062 T    
O19   C19   1.309826 A    
C85   C101  1.413889 A    
C88   C184  1.495590 S    
C25   N1    1.365126 A    
C88   C104  1.413884 A    
O20   Cu9   1.835020 S    
C94   C190  1.495588 S    
C92   C126  1.417463 A    
C49   C73   1.416886 A    
O28   C24   1.309827 A    
C196  O116  1.220109 D    
C144  C152  1.477269 S    
C9    C113  1.474458 S    
O30   C22   1.309830 A    
O6    Cu2   1.831926 S    
C93   C189  1.495590 S    
C148  C156  1.246062 T    
C108  C118  1.416310 A    
C52   C62   1.417728 A    
C189  H13   1.082783 S    
C36   C50   1.413382 A    
O39   Cu1   1.953963 S    
O16   C6    1.261671 A    
C60   C61   1.418349 A    
C52   C76   1.416893 A    
N3    C126  1.443710 S    
