data_mof_unit_15118.cif
_audit_creation_date              2012-10-26T19:21:32-0400
_audit_creation_method            fapswitch 2.2
_symmetry_space_group_name_H-M    P1
_symmetry_Int_Tables_number       1
_space_group_crystal_system       triclinic
_cell_length_a                    9.791184
_cell_length_b                    11.045626
_cell_length_c                    15.794833
_cell_angle_alpha                 94.591909
_cell_angle_beta                  79.155452
_cell_angle_gamma                 111.290482
_cell_volume                      1563.07172641

loop_
_atom_site_label
_atom_site_type_symbol
_atom_type_description
_atom_site_fract_x
_atom_site_fract_y
_atom_site_fract_z
_atom_type_partial_charge
C1    C     C_R   0.556155 0.745445 0.506181 0.561069
C2    C     C_2   0.515706 0.069454 0.501629 -0.160328
C3    C     C_2   0.922667 0.489328 0.493053 -0.024392
C4    C     C_2   0.076483 0.509208 0.507874 -0.021201
C5    C     C_R   0.410309 0.483563 0.662976 0.564630
C6    C     C_R   0.589406 0.514223 0.336930 0.569578
C7    C     C_R   0.353956 0.457305 0.755662 0.003636
C8    C     C_R   0.644620 0.521765 0.243136 0.006750
C9    C     C_R   0.160574 0.349619 0.873767 -0.077862
C10   C     C_R   0.842556 0.586378 0.119610 -0.112530
C11   C     C_R   0.202630 0.390764 0.788000 0.251371
C12   C     C_R   0.443840 0.254555 0.493829 0.559693
C13   C     C_R   0.797284 0.576474 0.209128 0.245969
C14   C     C_R   0.458235 0.489270 0.811143 -0.179958
C15   C     C_R   0.540885 0.474724 0.187187 -0.184345
C16   C     C_R   0.418911 0.445345 0.896534 -0.022726
C17   C     C_R   0.584705 0.481989 0.097041 -0.022031
C18   C     C_R   0.266752 0.376026 0.928214 0.022099
C19   C     C_R   0.738412 0.540586 0.063420 0.021153
C20   C     C_R   0.526859 0.469909 0.951178 -0.009855
C21   C     C_R   0.478979 0.439275 0.039947 -0.014281
C22   C     C_3   0.003540 0.322962 0.098413 -0.132835
C23   C     C_R   0.327618 0.364589 0.068331 -0.107435
C24   C     C_3   0.979635 0.727489 0.909445 -0.140351
C25   C     C_3   0.995399 0.567077 0.260943 -0.111674
C26   C     C_3   0.006749 0.429585 0.754105 -0.100640
C27   C     C_R   0.681326 0.520189 0.919276 -0.109163
C28   C     C_R   0.222456 0.333251 0.013627 0.273125
C29   C     C_R   0.786166 0.556417 0.974269 0.263172
C30   C     C_2   0.587865 0.884554 0.509567 -0.122495
C31   C     C_2   0.412116 0.115450 0.490470 -0.123141
C32   C     C_2   0.484253 0.930550 0.498449 -0.160479
Cu1   Cu    Cu3+1 0.362980 0.479380 0.485080 0.958461
Cu2   Cu    Cu3+1 0.637020 0.520620 0.514920 0.955904
H1    H     H_    0.424976 0.437699 0.215809 0.127743
H2    H     H_    0.696658 0.949842 0.521166 0.110899
H3    H     H_    0.121786 0.576684 0.558034 0.143250
H4    H     H_    0.876701 0.420711 0.443593 0.141014
H5    H     H_    0.111628 0.385157 0.415249 0.194891
H6    H     H_    0.889043 0.616048 0.584043 0.194937
H7    H     H_    0.012702 0.414230 0.068602 0.130055
H8    H     H_    0.046287 0.344192 0.160366 0.097628
H9    H     H_    0.883588 0.262746 0.113026 0.151497
H10   H     H_    0.949566 0.793697 0.960354 0.140449
H11   H     H_    0.930703 0.727892 0.851449 0.109143
H12   H     H_    0.570690 0.549598 0.785879 0.126831
H13   H     H_    0.102384 0.766267 0.890031 0.146766
H14   H     H_    0.072616 0.579596 0.198295 0.098406
H15   H     H_    0.064422 0.606888 0.311910 0.152693
H16   H     H_    0.932363 0.462209 0.274716 0.091591
H17   H     H_    0.933901 0.409805 0.704827 0.136583
H18   H     H_    0.073405 0.535618 0.752671 0.121407
H19   H     H_    0.933339 0.402491 0.817703 0.148451
H20   H     H_    0.044428 0.294728 0.896978 0.168329
H21   H     H_    0.959428 0.635055 0.094436 0.161189
H22   H     H_    0.288179 0.323910 0.131968 0.116544
H23   H     H_    0.724981 0.528271 0.851207 0.101875
H24   H     H_    0.624700 0.134471 0.513217 0.158174
H25   H     H_    0.375250 0.865534 0.486875 0.156864
H26   H     H_    0.303332 0.050162 0.478856 0.110581
N1    N     N_2   0.842890 0.551600 0.537350 -0.349705
N2    N     N_2   0.157110 0.448400 0.462650 -0.349621
O1    O     O_R   0.426810 0.668300 0.492040 -0.504525
O2    O     O_3   0.936689 0.600437 0.940377 -0.606621
O3    O     O_3   0.899130 0.636576 0.263351 -0.537568
O4    O     O_3   0.098316 0.354265 0.733768 -0.549417
O5    O     O_R   0.573190 0.331700 0.507960 -0.504642
O6    O     O_R   0.658240 0.703130 0.517240 -0.482162
O7    O     O_R   0.341760 0.296870 0.482760 -0.481286
O8    O     O_R   0.319390 0.472820 0.610170 -0.444467
O9    O     O_R   0.680610 0.527180 0.389830 -0.446241
O10   O     O_R   0.550820 0.507640 0.635370 -0.513479
O11   O     O_R   0.449180 0.492360 0.364630 -0.514079
O12   O     O_3   0.077458 0.252316 0.041915 -0.572864

loop_
_geom_bond_atom_site_label_1
_geom_bond_atom_site_label_2
_ccdc_geom_bond_type
C31   H26   S    
Cu2   O5    S    
C7    C11   A    
C12   O7    A    
C2    H24   S    
C8    C13   A    
C20   C27   A    
C26   H18   S    
C8    C15   A    
C5    C7    S    
C2    C31   D    
C26   O4    S    
C22   H9    S    
C11   O4    S    
C16   C20   A    
C10   C19   A    
Cu1   O1    S    
C28   O12   S    
C21   C23   A    
Cu1   Cu2   S    
C29   O2    S    
C18   C28   A    
C23   H22   S    
C14   H12   S    
Cu2   N1    S    
C13   O3    S    
C26   H17   S    
C4    H3    S    
C30   C32   D    
C10   H21   S    
C9    C11   A    
C25   H14   S    
C22   H8    S    
Cu1   O8    S    
C24   H11   S    
C1    O1    A    
C2    C32   S    
Cu1   O11   S    
Cu1   O7    S    
C17   C19   A    
C24   O2    S    
C5    O10   A    
C14   C16   A    
C3    N1    D    
C12   C31   S    
C6    O9    A    
C24   H10   S    
C12   O5    A    
C25   H15   S    
C5    O8    A    
C22   H7    S    
C27   C29   A    
C22   O12   S    
Cu2   O10   S    
Cu2   O6    S    
C3    C4    S    
C19   C29   A    
C26   H19   S    
C4    N2    D    
C9    C18   A    
C1    O6    A    
C25   O3    S    
C20   C21   A    
C6    O11   A    
C16   C18   A    
C27   H23   S    
C15   H1    S    
C15   C17   A    
H5    N2    S    
C25   H16   S    
C1    C30   S    
C6    C8    S    
C9    H20   S    
C32   H25   S    
C23   C28   A    
C24   H13   S    
Cu2   O9    S    
C7    C14   A    
C17   C21   A    
H6    N1    S    
C3    H4    S    
Cu1   N2    S    
C10   C13   A    
C30   H2    S    
