data_mof_unit_64360.cif
_audit_creation_date              2012-12-10T19:54:29-0500
_audit_creation_method            fapswitch 2.2
_symmetry_space_group_name_H-M    P1
_symmetry_Int_Tables_number       1
_space_group_crystal_system       triclinic
_cell_length_a                    15.725479
_cell_length_b                    15.011153
_cell_length_c                    14.253339
_cell_angle_alpha                 86.500128
_cell_angle_beta                  88.370111
_cell_angle_gamma                 91.373875
_cell_volume                      3355.85967845

loop_
_atom_site_label
_atom_site_type_symbol
_atom_type_description
_atom_site_fract_x
_atom_site_fract_y
_atom_site_fract_z
_atom_type_partial_charge
Br1   Br    Br    0.649570 0.614265 0.252879 -0.414853
Br2   Br    Br    0.350246 0.385979 0.747161 -0.414949
Br3   Br    Br    0.571654 0.683778 0.046473 -0.402039
Br4   Br    Br    0.428415 0.316140 0.953324 -0.401978
Br5   Br    Br    0.478601 0.024078 0.715278 -0.438723
Br6   Br    Br    0.520537 0.976164 0.284981 -0.438931
Br7   Br    Br    0.636566 0.255805 0.351558 -0.410805
Br8   Br    Br    0.363471 0.743998 0.648817 -0.410666
C1    C     C_R   0.502527 0.327612 0.502846 0.936523
C2    C     C_R   0.434479 0.901365 0.553725 -0.155326
C3    C     C_R   0.511584 0.046781 0.509799 0.012799
C4    C     C_R   0.487857 0.953219 0.490420 0.012570
C5    C     C_R   0.427721 0.464918 0.111561 0.033492
C6    C     C_R   0.572374 0.534870 0.888464 0.033625
C7    C     C_R   0.433605 0.460535 0.210569 -0.084730
C8    C     C_R   0.566489 0.539300 0.789450 -0.084717
C9    C     C_R   0.557480 0.552037 0.198203 0.359296
C10   C     C_R   0.442446 0.448038 0.801792 0.359334
C11   C     C_R   0.549003 0.563845 0.100183 0.163620
C12   C     C_R   0.497425 0.672394 0.497156 0.936380
C13   C     C_R   0.450955 0.436138 0.899798 0.163674
C14   C     C_R   0.495431 0.505072 0.053481 0.068164
C15   C     C_R   0.504598 0.494817 0.946524 0.068225
C16   C     C_R   0.337956 0.499819 0.501178 0.918145
C17   C     C_R   0.662044 0.500180 0.498822 0.918265
C18   C     C_3   0.968271 0.422720 0.533481 0.144412
C19   C     C_3   0.031729 0.577262 0.466522 0.144415
C20   C     C_3   0.028926 0.434456 0.446928 -0.185679
C21   C     C_3   0.971074 0.565526 0.553075 -0.185682
C22   C     C_1   0.249058 0.499234 0.503740 -0.118671
C23   C     C_R   0.477946 0.179785 0.588976 -0.002214
C24   C     C_1   0.750942 0.500759 0.496261 -0.118730
C25   C     C_3   0.023235 0.484576 0.590510 -0.216391
C26   C     C_3   0.976765 0.515406 0.409493 -0.216392
C27   C     C_3   0.083020 0.498388 0.503066 0.140588
C28   C     C_3   0.916979 0.501594 0.496937 0.140594
C29   C     C_1   0.173783 0.498708 0.504380 -0.017337
C30   C     C_1   0.826217 0.501279 0.495622 -0.017347
C31   C     C_R   0.484139 0.087016 0.592178 0.214656
C32   C     C_R   0.515193 0.913074 0.407917 0.214679
C33   C     C_R   0.521526 0.820320 0.410969 -0.001981
C34   C     C_R   0.512355 0.231508 0.510293 -0.161775
C35   C     C_R   0.487386 0.768500 0.489732 -0.162100
C36   C     C_R   0.563864 0.190658 0.444129 0.240071
C37   C     C_R   0.435911 0.809251 0.556071 0.240094
C38   C     C_R   0.565130 0.098535 0.446568 -0.155337
H1    H     H_    0.053692 0.379804 0.405619 0.161564
H2    H     H_    0.894542 0.349140 0.630021 0.193546
H3    H     H_    0.019452 0.703053 0.408986 0.200301
H4    H     H_    0.105457 0.650843 0.369982 0.193544
H5    H     H_    0.472462 0.211152 0.725452 0.266777
H6    H     H_    0.376423 0.191272 0.677611 0.241204
H7    H     H_    0.526725 0.789091 0.274382 0.266544
H8    H     H_    0.622888 0.808959 0.321968 0.241409
H9    H     H_    0.303857 0.490652 0.094774 0.194675
H10   H     H_    0.325799 0.381591 0.102545 0.232566
H11   H     H_    0.674405 0.618078 0.897555 0.232539
H12   H     H_    0.946307 0.620178 0.594385 0.161564
H13   H     H_    0.696234 0.508968 0.905280 0.194677
H14   H     H_    0.956694 0.529888 0.336206 0.170940
H15   H     H_    0.043305 0.470094 0.663798 0.170960
H16   H     H_    0.608260 0.068286 0.398596 0.213999
H17   H     H_    0.391345 0.931503 0.601808 0.214156
H18   H     H_    0.382674 0.428834 0.254099 0.159875
H19   H     H_    0.617477 0.570919 0.745937 0.159852
H20   H     H_    0.980547 0.296929 0.591018 0.200293
N1    N     N_R   0.500000 0.499980 0.252470 -0.132458
N2    N     N_R   0.500000 0.500020 0.747530 -0.132373
N3    N     N_3   0.930686 0.337419 0.569560 -0.422822
N4    N     N_3   0.069314 0.662563 0.430444 -0.422861
N5    N     N_3   0.436744 0.221306 0.665138 -0.369674
N6    N     N_3   0.562610 0.778901 0.334568 -0.369559
N7    N     N_3   0.347169 0.443855 0.072941 -0.394930
N8    N     N_3   0.652958 0.555817 0.927124 -0.394960
O1    O     O_R   0.500010 0.369070 0.579480 -0.584712
O2    O     O_R   0.499990 0.630930 0.420520 -0.584600
O3    O     O_R   0.500010 0.369060 0.420520 -0.585654
O4    O     O_R   0.499990 0.630940 0.579480 -0.585577
O5    O     O_R   0.376780 0.500000 0.579460 -0.553018
O6    O     O_R   0.623220 0.500000 0.420540 -0.553054
O7    O     O_R   0.376780 0.499990 0.420510 -0.647283
O8    O     O_R   0.623220 0.500010 0.579490 -0.647271
Zn1   Zn    Zn3+2 0.500000 0.500010 0.606140 1.031796
Zn2   Zn    Zn3+2 0.500000 0.499990 0.393860 1.031758

loop_
_geom_bond_atom_site_label_1
_geom_bond_atom_site_label_2
_ccdc_geom_bond_type
H11   N8    S    
C20   H1    S    
C23   C34   A    
C19   C21   S    
C10   C13   A    
C2    H17   S    
H2    N3    S    
O6    Zn2   S    
O2    Zn2   S    
C21   C28   S    
C1    C34   S    
C34   C36   A    
C38   H16   S    
C6    N8    S    
C27   C29   S    
H20   N3    S    
Br2   C10   S    
C10   N2    A    
C17   O6    A    
C21   C25   S    
C12   O2    A    
Br8   C37   S    
C18   C25   S    
C9    C11   A    
O4    Zn1   S    
C20   C27   S    
C7    H18   S    
Br3   C11   S    
C8    N2    A    
C6    C8    A    
C24   C30   T    
C17   C24   S    
C23   N5    S    
C20   C26   S    
N1    Zn2   S    
C26   H14   S    
C33   C35   A    
H5    N5    S    
C36   C38   A    
C19   C26   S    
C9    N1    A    
C11   C14   A    
O3    Zn2   S    
C19   C27   S    
C22   C29   T    
C6    C15   A    
C4    C32   A    
C16   O7    A    
C16   O5    A    
C7    N1    A    
C2    C37   A    
C1    O3    A    
Br7   C36   S    
C3    C31   A    
C35   C37   A    
H13   N8    S    
C19   N4    S    
C2    C4    A    
C33   N6    S    
C18   C28   S    
C32   C33   A    
C5    N7    S    
H3    N4    S    
C5    C7    A    
C17   O8    A    
Br6   C32   S    
O7    Zn2   S    
Br5   C31   S    
H10   N7    S    
N2    Zn1   S    
Br1   C9    S    
C3    C4    S    
C18   C20   S    
C12   O4    A    
C13   C15   A    
H4    N4    S    
H6    N5    S    
O5    Zn1   S    
Br4   C13   S    
O1    Zn1   S    
C28   C30   S    
C25   C27   S    
C23   C31   A    
C5    C14   A    
C26   C28   S    
C16   C22   S    
C12   C35   S    
H9    N7    S    
H8    N6    S    
C21   H12   S    
C25   H15   S    
O8    Zn1   S    
C18   N3    S    
C14   C15   S    
C3    C38   A    
C8    H19   S    
C1    O1    A    
H7    N6    S    
