data_mof_unit_20977.cif
_audit_creation_date              2013-03-05T15:55:44-0500
_audit_creation_method            fapswitch 2.2
_symmetry_space_group_name_H-M    P1
_symmetry_Int_Tables_number       1
_space_group_crystal_system       triclinic
_cell_length_a                    10.670321
_cell_length_b                    12.345238
_cell_length_c                    13.247592
_cell_angle_alpha                 116.448597
_cell_angle_beta                  77.490607
_cell_angle_gamma                 101.491634
_cell_volume                      1514.75751929

loop_
_atom_site_label
_atom_site_type_symbol
_atom_site_description
_atom_site_fract_x
_atom_site_fract_y
_atom_site_fract_z
_atom_type_partial_charge
O1    O     O_R   0.537510 0.972500 0.318130 -0.585259
O2    O     O_R   0.487140 0.806530 0.359650 -0.626626
C1    C     C_R   0.511870 0.854374 0.286647 0.813905
O3    O     O_R   0.708330 0.082950 0.479220 -0.593127
O4    O     O_R   0.657960 0.916980 0.520740 -0.606604
C2    C     C_R   0.739496 0.000845 0.501575 0.911401
Cu1   Cu    Cu3+1 0.529830 0.098270 0.475420 1.027028
Cu2   Cu    Cu3+1 0.470170 0.901730 0.524580 1.027445
O5    O     O_R   0.512860 0.193470 0.640350 -0.602173
O6    O     O_R   0.462490 0.027500 0.681870 -0.561775
O7    O     O_R   0.342040 0.083020 0.479260 -0.527899
O8    O     O_R   0.291670 0.917050 0.520780 -0.539157
C3    C     C_R   0.486185 0.144921 0.713055 0.861722
C4    C     C_R   0.260455 0.998189 0.496958 0.955016
C5    C     C_3   0.974123 0.114382 0.542493 0.310544
C6    C     C_3   0.069339 0.053973 0.434416 0.260222
C7    C     C_3   0.124470 0.998223 0.496600 -0.300537
C8    C     C_3   0.027725 0.058140 0.604262 0.306156
C9    C     C_3   0.927295 0.943430 0.565513 -0.290881
C10   C     C_3   0.023954 0.885064 0.456095 0.250027
C11   C     C_3   0.970162 0.940526 0.393912 0.175937
C12   C     C_3   0.874828 0.000625 0.501952 -0.340088
H1    H     H_    0.868888 0.898456 0.619574 0.224512
C13   C     C_R   0.409458 0.262232 0.031071 -0.106658
H2    H     H_    0.422774 0.085729 0.895279 0.205500
H3    H     H_    0.364617 0.222994 0.090347 0.211043
C14   C     C_R   0.478990 0.226803 0.834388 -0.031814
C15   C     C_R   0.599182 0.814597 0.086492 -0.224042
C16   C     C_R   0.649227 0.735030 0.978549 -0.073958
C17   C     C_R   0.629040 0.609738 0.946301 0.410116
C18   C     C_R   0.538084 0.560865 0.016656 -0.029716
C19   C     C_R   0.486635 0.642544 0.126817 -0.012516
C20   C     C_R   0.497409 0.434090 0.982272 0.031352
C21   C     C_R   0.432412 0.388908 0.064077 0.037937
C22   C     C_R   0.381992 0.470991 0.172800 0.291851
C23   C     C_R   0.398612 0.594469 0.197341 -0.178422
C24   C     C_R   0.508752 0.352121 0.867147 -0.183906
C25   C     C_R   0.438627 0.182233 0.917759 -0.124383
C26   C     C_R   0.526216 0.770024 0.164386 -0.044794
H4    H     H_    0.534797 0.385897 0.801999 0.198891
H5    H     H_    0.627625 0.911369 0.112105 0.179964
H6    H     H_    0.714663 0.771627 0.923369 0.186493
H7    H     H_    0.342645 0.651866 0.274112 0.234988
C27   C     C_R   0.698530 0.343363 0.322439 -0.233800
H8    H     H_    0.719829 0.164827 0.301281 0.140770
H9    H     H_    0.741926 0.545427 0.291466 0.201133
H10   H     H_    0.775540 0.341348 0.253395 0.174940
N1    N     N_R   0.575030 0.246270 0.438190 -0.205602
C28   C     C_R   0.319422 0.754101 0.640864 0.472164
C29   C     C_R   0.273981 0.651713 0.662221 -0.271653
C30   C     C_R   0.333639 0.546108 0.603335 0.269154
C31   C     C_R   0.450992 0.546236 0.528214 -0.082486
C32   C     C_R   0.491942 0.652113 0.504527 0.167894
C33   C     C_R   0.526872 0.444927 0.472406 0.038054
C34   C     C_R   0.629146 0.444322 0.383986 0.156336
C35   C     C_R   0.662726 0.544823 0.358241 -0.190415
C36   C     C_R   0.598109 0.647239 0.419092 -0.110935
C37   C     C_R   0.508582 0.344681 0.501698 0.132922
C38   C     C_R   0.668071 0.243775 0.349710 0.080682
N2    N     N_R   0.425760 0.754330 0.561190 -0.272483
H11   H     H_    0.444679 0.343803 0.576171 0.162041
H12   H     H_    0.184598 0.651747 0.719754 0.226466
H13   H     H_    0.633398 0.719992 0.394296 0.226657
O9    O     O_3   0.143847 0.109219 0.365524 -0.592264
H14   H     H_    0.081639 0.142653 0.344375 0.360828
O10   O     O_3   0.709197 0.540836 0.851860 -0.706951
H15   H     H_    0.732567 0.476524 0.867471 0.352588
N3    N     N_R   0.243956 0.853780 0.697341 0.163303
O11   O     O_R   0.258484 0.928181 0.801738 -0.353465
O12   O     O_R   0.132119 0.840089 0.666255 -0.303027
O13   O     O_3   0.947208 0.235146 0.590709 -0.604568
H16   H     H_    0.927187 0.248173 0.527525 0.345890
N4    N     N_R   0.261506 0.437037 0.608217 0.118403
O14   O     O_R   0.230027 0.346448 0.514917 -0.254419
O15   O     O_R   0.206120 0.436814 0.705860 -0.294000
N5    N     N_R   0.056110 0.125419 0.720769 0.201198
O16   O     O_R   0.963682 0.170459 0.803504 -0.290470
O17   O     O_R   0.173240 0.142441 0.742775 -0.318092
N6    N     N_R   0.051105 0.759116 0.404932 0.182752
O18   O     O_R   0.995447 0.686675 0.453035 -0.280784
O19   O     O_R   0.120891 0.715726 0.305239 -0.328917
N7    N     N_R   0.935314 0.874027 0.279461 0.161074
O20   O     O_R   0.990858 0.908456 0.199247 -0.299862
O21   O     O_R   0.848389 0.779455 0.257048 -0.367130
N8    N     N_R   0.306027 0.430816 0.256463 0.119482
O22   O     O_R   0.203117 0.481586 0.317880 -0.270335
O23   O     O_R   0.351354 0.360231 0.285620 -0.350792

loop_
_geom_bond_atom_site_label_1
_geom_bond_atom_site_label_2
_geom_bond_distance
_ccdc_geom_bond_type
C5    C8    1.531625 S    
C34   C35   1.389588 A    
C6    C11   1.534705 S    
C28   N3    1.426941 S    
C16   H6    1.083240 S    
N4    O14   1.300026 A    
C9    C10   1.549890 S    
Cu1   Cu2   2.707215 S    
N8    O22   1.301362 A    
Cu1   O7    1.966527 S    
C28   N2    1.372614 A    
C19   C23   1.413846 A    
C15   C16   1.386302 A    
N5    O17   1.299926 A    
C21   C22   1.404348 A    
C24   H4    1.080030 S    
C17   C18   1.431915 A    
O7    C4    1.294835 A    
C27   C38   1.390422 A    
C5    C6    1.535886 S    
C2    C12   1.445671 S    
C15   H5    1.083290 S    
C7    C10   1.540904 S    
C35   C36   1.386534 A    
C8    C9    1.550283 S    
C19   C26   1.425250 A    
O5    C3    1.302083 A    
C5    C12   1.537852 S    
C22   C23   1.391637 A    
C6    C7    1.541003 S    
C13   C25   1.387465 A    
C18   C20   1.423114 A    
C27   H10   1.083857 S    
C37   H11   1.074053 S    
O10   H15   0.991363 S    
C1    C26   1.478112 S    
C11   C12   1.535528 S    
N4    O15   1.301485 A    
C4    C7    1.452116 S    
O3    Cu1   1.964573 S    
C32   N2    1.391466 A    
C31   C33   1.444597 A    
C36   H13   1.063413 S    
N8    O23   1.300434 A    
C30   C31   1.420968 A    
C9    C12   1.553177 S    
N5    O16   1.300190 A    
O3    C2    1.292310 A    
N6    O19   1.299377 A    
C32   C36   1.406764 A    
N3    O11   1.298060 A    
C15   C26   1.400309 A    
C29   C30   1.386736 A    
C13   C21   1.407644 A    
O1    C1    1.313042 A    
C9    H1    1.110202 S    
C16   C17   1.392783 A    
C6    O9    1.397949 S    
H2    C25   1.078029 S    
C18   C19   1.417944 A    
Cu2   O8    1.964575 S    
C7    C8    1.540673 S    
C10   C11   1.529947 S    
C17   O10   1.377937 S    
Cu2   O6    1.963182 S    
O8    C4    1.293819 A    
N7    O20   1.300088 A    
N7    O21   1.300222 A    
C29   H12   1.084212 S    
C31   C32   1.440919 A    
N1    C38   1.355136 A    
C33   C37   1.420896 A    
Cu1   O5    1.952924 S    
C33   C34   1.415895 A    
H8    C38   1.081897 S    
C8    N5    1.457431 S    
C10   N6    1.454831 S    
O1    Cu1   1.963184 S    
O2    Cu2   1.952924 S    
C30   N4    1.432741 S    
C13   H3    1.078875 S    
O6    C3    1.304475 A    
O4    Cu2   1.966527 S    
N1    C37   1.364134 A    
C5    O13   1.398567 S    
Cu1   N1    2.040272 S    
O2    C1    1.299995 A    
O13   H16   0.991558 S    
O9    H14   0.991066 S    
C22   N8    1.439339 S    
C27   C34   1.402589 A    
O4    C2    1.293395 A    
C14   C24   1.395898 A    
C20   C21   1.423130 A    
C20   C24   1.399544 A    
N6    O18   1.300257 A    
C11   N7    1.457703 S    
N3    O12   1.301060 A    
C28   C29   1.388455 A    
H9    C35   1.084558 S    
C3    C14   1.463378 S    
C23   H7    1.075458 S    
C14   C25   1.396030 A    
Cu2   N2    2.028313 S    
