data_mof_unit_16168.cif
_audit_creation_date              2012-12-10T16:51:14-0500
_audit_creation_method            fapswitch 2.2
_symmetry_space_group_name_H-M    P1
_symmetry_Int_Tables_number       1
_space_group_crystal_system       triclinic
_cell_length_a                    27.656407
_cell_length_b                    8.654278
_cell_length_c                    7.417493
_cell_angle_alpha                 103.312278
_cell_angle_beta                  93.818797
_cell_angle_gamma                 92.081297
_cell_volume                      1721.36777803

loop_
_atom_site_label
_atom_site_type_symbol
_atom_type_description
_atom_site_fract_x
_atom_site_fract_y
_atom_site_fract_z
_atom_type_partial_charge
C1    C     C_R   0.498543 0.199453 0.452897 0.885599
C2    C     C_R   0.501502 0.800565 0.547117 0.888524
C3    C     C_R   0.099330 0.504445 0.402321 -0.061585
C4    C     C_R   0.894025 0.503944 0.331445 -0.059612
C5    C     C_R   0.121903 0.357896 0.367736 -0.004059
C6    C     C_R   0.871037 0.645440 0.403442 -0.004706
C7    C     C_R   0.093894 0.216095 0.303610 -0.175978
C8    C     C_R   0.898278 0.789290 0.460270 -0.173685
C9    C     C_R   0.128167 0.647672 0.466813 -0.073821
C10   C     C_R   0.865544 0.359857 0.260696 -0.092920
C11   C     C_R   0.353968 0.507182 0.507872 -0.101982
C12   C     C_R   0.646106 0.499687 0.483030 -0.084855
C13   C     C_R   0.968697 0.363998 0.273643 -0.013431
C14   C     C_R   0.025143 0.652868 0.418302 -0.009259
C15   C     C_R   0.973437 0.653029 0.403144 0.064767
C16   C     C_R   0.019942 0.361601 0.303872 0.066294
C17   C     C_R   0.945521 0.507157 0.334512 0.072182
C18   C     C_R   0.048000 0.506560 0.374392 0.070809
C19   C     C_R   0.939964 0.226768 0.182927 -0.199890
C20   C     C_R   0.054649 0.793836 0.486267 -0.204650
C21   C     C_R   0.888974 0.220606 0.174491 0.135539
C22   C     C_R   0.105114 0.793458 0.521549 0.139375
C23   C     C_R   0.407406 0.506329 0.504115 0.799847
C24   C     C_R   0.592785 0.498342 0.496609 0.808306
C25   C     C_R   0.044001 0.217410 0.273697 -0.234341
C26   C     C_R   0.948316 0.793654 0.459362 -0.230731
C27   C     C_2   0.497846 0.031332 0.426428 -0.376383
C28   C     C_2   0.502314 0.968714 0.573627 -0.375540
C29   C     C_R   0.172189 0.355548 0.402886 0.513108
C30   C     C_R   0.821246 0.639848 0.423704 0.527123
C31   C     C_R   0.179279 0.638248 0.474288 0.506081
C32   C     C_R   0.814769 0.362608 0.281838 0.497598
C33   C     C_R   0.277709 0.566834 0.655613 0.192894
C34   C     C_R   0.729811 0.438495 0.566382 0.156474
C35   C     C_R   0.329264 0.591577 0.660710 0.090191
C36   C     C_R   0.679918 0.445775 0.606820 0.088491
C37   C     C_R   0.326998 0.419507 0.348070 -0.260733
C38   C     C_R   0.662947 0.553331 0.332670 -0.265244
C39   C     C_R   0.276979 0.416330 0.334324 -0.153787
C40   C     C_R   0.711428 0.552705 0.299812 -0.149451
C41   C     C_R   0.251843 0.490422 0.484417 0.326228
C42   C     C_R   0.744818 0.494324 0.412278 0.334436
Cu1   Cu    Cu3+1 0.505380 0.517380 0.684380 0.936167
Cu2   Cu    Cu3+1 0.494620 0.482620 0.315620 0.944346
H1    H     H_    0.344751 0.355178 0.229661 0.172396
H2    H     H_    0.638327 0.598195 0.239260 0.162385
H3    H     H_    0.462050 0.378478 0.948307 0.226398
H4    H     H_    0.537979 0.621436 0.051663 0.221221
H5    H     H_    0.025216 0.101977 0.234011 0.137654
H6    H     H_    0.965827 0.909984 0.509779 0.137650
N1    N     N_R   0.199833 0.494637 0.457141 -0.446019
N2    N     N_R   0.794893 0.498637 0.372053 -0.445593
N3    N     N_2   0.486510 0.456430 0.038510 -0.216861
N4    N     N_2   0.513490 0.543570 0.961490 -0.218868
O1    O     O_R   0.503500 0.286120 0.619780 -0.581301
O2    O     O_R   0.496500 0.713880 0.380220 -0.582653
O3    O     O_R   0.494410 0.256780 0.308360 -0.583198
O4    O     O_R   0.505590 0.743220 0.691640 -0.590186
O5    O     O_R   0.434810 0.514700 0.655690 -0.599130
O6    O     O_R   0.565190 0.485300 0.344310 -0.588018
O7    O     O_R   0.425720 0.485350 0.344280 -0.578856
O8    O     O_R   0.574280 0.514650 0.655720 -0.582467
O9    O     O_2   0.193420 0.215258 0.383085 -0.556152
O10   O     O_2   0.799375 0.773866 0.499689 -0.552018
O11   O     O_2   0.785235 0.231278 0.219026 -0.571263
O12   O     O_2   0.208496 0.769968 0.492250 -0.563434
H7    H     H_    0.257428 0.353744 0.205671 0.166019
H8    H     H_    0.723262 0.598091 0.185019 0.141949
H9    H     H_    0.110375 0.102179 0.278031 0.187423
H10   H     H_    0.881055 0.899920 0.510470 0.186149
C43   C     C_3   0.663266 0.395930 0.778098 -0.398564
C44   C     C_3   0.638894 0.228770 0.727736 -0.762922
H11   H     H_    0.606912 0.221243 0.627039 0.248339
H12   H     H_    0.665007 0.140946 0.665769 0.248097
H13   H     H_    0.626629 0.197519 0.855033 0.244369
H14   H     H_    0.693415 0.399217 0.884681 0.209877
H15   H     H_    0.639131 0.483005 0.854210 0.220263
C45   C     C_3   0.356087 0.718429 0.816928 -0.418656
C46   C     C_3   0.339090 0.884803 0.816399 -0.809322
H16   H     H_    0.345478 0.913931 0.681363 0.261558
H17   H     H_    0.300044 0.894807 0.839459 0.264612
H18   H     H_    0.360041 0.973953 0.928881 0.235839
H19   H     H_    0.352177 0.690025 0.953801 0.205363
H20   H     H_    0.395459 0.727820 0.804276 0.233860
C47   C     C_3   0.767312 0.371041 0.683356 -0.392232
C48   C     C_3   0.793307 0.501736 0.836511 -0.820780
H21   H     H_    0.815575 0.582453 0.775344 0.260827
H22   H     H_    0.766905 0.572188 0.922272 0.248191
H23   H     H_    0.817763 0.447926 0.926770 0.245712
H24   H     H_    0.751049 0.277152 0.743408 0.220876
H25   H     H_    0.794879 0.307830 0.597062 0.225273
C49   C     C_3   0.250085 0.615863 0.830014 -0.399082
C50   C     C_3   0.225717 0.472246 0.881383 -0.829063
H26   H     H_    0.210907 0.510335 0.019340 0.246950
H27   H     H_    0.195067 0.419200 0.779681 0.263608
H28   H     H_    0.252455 0.380602 0.887715 0.253309
H29   H     H_    0.222420 0.701474 0.811905 0.222073
H30   H     H_    0.273874 0.676718 0.953292 0.221235
C51   C     C_3   0.860094 0.066339 0.075897 -0.308169
C52   C     C_3   0.888707 0.929981 0.971532 -0.881395
H31   H     H_    0.909418 0.968784 0.865089 0.253292
H32   H     H_    0.913538 0.885372 0.069781 0.256937
H33   H     H_    0.863053 0.830084 0.899158 0.265545
H34   H     H_    0.840767 0.019533 0.180381 0.249291
H35   H     H_    0.833179 0.094070 0.971279 0.244451
C53   C     C_3   0.133595 0.945593 0.629188 -0.315748
C54   C     C_3   0.104135 0.074622 0.743634 -0.879920
H36   H     H_    0.081756 0.133659 0.652218 0.255792
H37   H     H_    0.080643 0.023270 0.833295 0.259575
H38   H     H_    0.129330 0.167515 0.834676 0.259819
H39   H     H_    0.160213 0.913705 0.731893 0.227772
H40   H     H_    0.153654 0.998051 0.531281 0.270959
H41   H     H_    0.957359 0.123427 0.114108 0.158175
H42   H     H_    0.039063 0.907272 0.514507 0.154450
H43   H     H_    0.493614 0.958875 0.284951 0.179244
H44   H     H_    0.506575 0.041178 0.715102 0.179355

loop_
_geom_bond_atom_site_label_1
_geom_bond_atom_site_label_2
_ccdc_geom_bond_type
C31   O12   S    
C38   C40   A    
C29   O9    S    
C50   H26   S    
C30   O10   S    
C8    C26   A    
C14   C18   A    
C34   C42   A    
C47   H25   S    
C49   H30   S    
C39   C41   A    
C53   H40   S    
C47   C48   S    
H4    N4    S    
C49   C50   S    
C19   C21   A    
C26   H6    S    
C43   H14   S    
C21   C51   S    
C48   H22   S    
C9    C22   A    
C53   C54   S    
C19   H41   S    
C3    C18   A    
C11   C37   A    
C32   N2    A    
C28   H44   S    
Cu1   O4    S    
Cu2   N3    S    
C54   H36   S    
C12   C36   A    
C36   C43   S    
Cu1   O5    S    
H3    N3    S    
C40   C42   A    
C51   H34   S    
C50   H27   S    
C54   H37   S    
C44   H13   S    
C45   H19   S    
C49   H29   S    
C5    C29   A    
C53   H39   S    
C10   C21   A    
C51   H35   S    
C13   C19   A    
C14   C20   A    
C44   H12   S    
C33   C49   S    
C46   H17   S    
C48   H21   S    
C15   C26   A    
C6    C8    A    
N3    N4    D    
C52   H33   S    
C34   C47   S    
C23   O5    A    
Cu1   Cu2   S    
C3    C9    A    
C1    O3    A    
Cu2   O2    S    
Cu1   N4    S    
C51   C52   S    
Cu2   O3    S    
C24   O6    A    
C52   H32   S    
C4    C17   A    
C4    C6    A    
C6    C30   A    
C20   C22   A    
C50   H28   S    
C54   H38   S    
C4    C10   A    
C43   H15   S    
C5    C7    A    
C29   N1    A    
Cu1   O1    S    
C16   C25   A    
C15   C17   A    
C30   N2    A    
C24   O8    A    
C45   C46   S    
C39   H7    S    
C31   N1    A    
C44   H11   S    
C3    C5    A    
C48   H23   S    
C7    H9    S    
C46   H18   S    
C47   H24   S    
C2    O4    A    
Cu2   O7    S    
C12   C24   S    
C35   C45   S    
C8    H10   S    
C7    C25   A    
C13   C17   A    
C33   C41   A    
C11   C35   A    
C1    O1    A    
C43   C44   S    
C37   C39   A    
C2    O2    A    
C20   H42   S    
Cu2   O6    S    
C11   C23   S    
C52   H31   S    
C33   C35   A    
C34   C36   A    
C12   C38   A    
C25   H5    S    
C45   H20   S    
C38   H2    S    
C22   C53   S    
C9    C31   A    
C46   H16   S    
C10   C32   A    
C23   O7    A    
C16   C18   A    
C40   H8    S    
C13   C16   A    
C27   C28   D    
C1    C27   S    
C14   C15   A    
C2    C28   S    
C37   H1    S    
C41   N1    S    
Cu1   O8    S    
C42   N2    S    
C32   O11   S    
C27   H43   S    
