data_mof_unit_29907.cif
_audit_creation_date              2013-03-05T15:55:19-0500
_audit_creation_method            fapswitch 2.2
_symmetry_space_group_name_H-M    P1
_symmetry_Int_Tables_number       1
_space_group_crystal_system       triclinic
_cell_length_a                    14.675772
_cell_length_b                    14.733496
_cell_length_c                    33.292068
_cell_angle_alpha                 95.969034
_cell_angle_beta                  96.267586
_cell_angle_gamma                 61.497158
_cell_volume                      6277.15762676

loop_
_atom_site_label
_atom_site_type_symbol
_atom_site_description
_atom_site_fract_x
_atom_site_fract_y
_atom_site_fract_z
_atom_type_partial_charge
O1    O     O_R   0.679450 0.499830 0.463150 -0.528644
O2    O     O_R   0.480650 0.664000 0.464630 -0.505694
C1    C     C_R   0.391044 0.700072 0.446198 0.933568
O3    O     O_R   0.323930 0.675950 0.455370 -0.518747
O4    O     O_R   0.354700 0.475360 0.451930 -0.546862
C2    C     C_R   0.404860 0.385971 0.434239 0.828973
O5    O     O_R   0.494470 0.320860 0.448390 -0.506774
O6    O     O_R   0.662580 0.357570 0.460050 -0.536185
C3    C     C_R   0.701137 0.409888 0.447771 0.788979
O7    O     O_R   0.680900 0.502040 0.551870 -0.519901
O8    O     O_R   0.481990 0.666040 0.546870 -0.504957
C4    C     C_R   0.393368 0.701941 0.561252 0.910460
O9    O     O_R   0.325370 0.678160 0.544080 -0.513590
O10   O     O_R   0.356040 0.477400 0.534170 -0.553121
C5    C     C_R   0.407027 0.388528 0.548976 0.869296
O11   O     O_R   0.495910 0.323070 0.537100 -0.478700
O12   O     O_R   0.663920 0.359620 0.542290 -0.502897
C6    C     C_R   0.704456 0.411979 0.562266 0.846615
Cr1   Cr    Cr6+3 0.576280 0.580550 0.506370 1.061287
Cr2   Cr    Cr6+3 0.346780 0.572400 0.496520 1.049030
Cr3   Cr    Cr6+3 0.576960 0.347070 0.497150 1.108209
O13   O     O_3   0.500010 0.500010 0.500010 -0.383196
H1    H     H_    0.444996 0.159009 0.109747 0.180304
H2    H     H_    0.459197 0.183715 0.183030 0.160621
H3    H     H_    0.422419 0.181500 0.315036 0.185365
C7    C     C_R   0.366689 0.366773 0.392914 -0.170645
C8    C     C_R   0.300792 0.453553 0.370535 -0.195909
C9    C     C_R   0.282697 0.442778 0.328907 -0.099028
C10   C     C_R   0.329580 0.345263 0.308913 0.041019
C11   C     C_R   0.389014 0.257219 0.330869 -0.163395
C12   C     C_R   0.406810 0.266541 0.373093 0.370363
C13   C     C_R   0.392627 0.240685 0.166034 -0.095545
C14   C     C_R   0.384229 0.227204 0.124077 -0.210917
C15   C     C_R   0.220436 0.387218 0.121387 0.399770
C16   C     C_R   0.229344 0.398879 0.163804 -0.188833
C17   C     C_R   0.313295 0.324112 0.185959 0.030135
C18   C     C_1   0.317476 0.331575 0.229259 0.021635
C19   C     C_1   0.322018 0.337001 0.265597 0.023308
C20   C     C_R   0.295259 0.296050 0.101358 -0.159569
H4    H     H_    0.268468 0.531150 0.384703 0.181954
H5    H     H_    0.170318 0.465829 0.179564 0.182081
H6    H     H_    0.236036 0.511217 0.312061 0.157145
N1    N     N_R   0.894094 0.360367 0.234637 -0.272796
N2    N     N_R   0.883742 0.366031 0.274022 -0.262794
C21   C     C_R   0.757898 0.372061 0.410957 -0.057603
C22   C     C_R   0.798601 0.429406 0.395731 -0.117196
C23   C     C_R   0.830559 0.407362 0.356498 -0.098201
C24   C     C_R   0.821441 0.328211 0.331948 0.015313
C25   C     C_R   0.789263 0.265240 0.348372 -0.060902
C26   C     C_R   0.758211 0.286655 0.387723 -0.111792
N3    N     N_R   0.799638 0.264188 0.262377 -0.255508
N4    N     N_R   0.809699 0.258773 0.222842 -0.165036
C27   C     C_R   0.857015 0.307072 0.208358 0.656232
C28   C     C_R   0.837185 0.317332 0.288679 0.542770
C29   C     C_R   0.975483 0.280630 0.157392 -0.262763
C30   C     C_R   0.002273 0.268986 0.117817 0.345655
C31   C     C_R   0.832291 0.282932 0.093373 0.209041
C32   C     C_R   0.807070 0.292793 0.134090 0.398774
C33   C     C_R   0.878877 0.293528 0.165730 -0.089061
C34   C     C_R   0.929941 0.273065 0.085747 -0.163036
H7    H     H_    0.800098 0.494998 0.413201 0.169980
H8    H     H_    0.728059 0.240442 0.398877 0.171955
H9    H     H_    0.856357 0.456405 0.344690 0.167853
H10   H     H_    0.783633 0.202399 0.330277 0.174531
H11   H     H_    0.031467 0.277883 0.181998 0.169197
N5    N     N_R   0.216589 0.906356 0.235331 -0.165028
N6    N     N_R   0.232065 0.883468 0.273838 -0.218728
C35   C     C_R   0.368301 0.764441 0.411540 -0.299801
C36   C     C_R   0.265555 0.840274 0.401410 0.231562
C37   C     C_R   0.242499 0.892443 0.365652 0.267868
C38   C     C_R   0.322717 0.869335 0.340345 -0.295379
C39   C     C_R   0.426378 0.798688 0.351577 0.286618
C40   C     C_R   0.449301 0.744522 0.386956 0.266802
N7    N     N_R   0.345049 0.955297 0.285593 -0.194984
N8    N     N_R   0.329072 0.978672 0.247026 -0.281072
C41   C     C_R   0.264597 0.954423 0.221168 0.606321
C42   C     C_R   0.296649 0.907308 0.299557 0.679470
C43   C     C_R   0.158894 0.994849 0.154479 0.295045
C44   C     C_R   0.152950 0.005540 0.112375 0.269817
C45   C     C_R   0.333620 0.972871 0.118030 0.308571
C46   C     C_R   0.337970 0.962866 0.159359 -0.178707
C47   C     C_R   0.252143 0.973643 0.177897 -0.206628
C48   C     C_R   0.240990 0.993474 0.093700 -0.212647
H12   H     H_    0.410502 0.944526 0.177064 0.203410
N9    N     N_R   0.272396 0.438661 0.770829 -0.234131
N10   N     N_R   0.274377 0.439339 0.730989 -0.194893
C49   C     C_R   0.370193 0.368334 0.585036 -0.160740
C50   C     C_R   0.286652 0.449757 0.604304 -0.327810
C51   C     C_R   0.263393 0.441027 0.642996 0.362313
C52   C     C_R   0.328374 0.350707 0.663790 -0.091441
C53   C     C_R   0.408174 0.265103 0.643328 0.235576
C54   C     C_R   0.424487 0.272328 0.602815 0.323125
N11   N     N_R   0.361588 0.258852 0.726252 -0.163629
N12   N     N_R   0.360625 0.257954 0.766076 -0.179352
C55   C     C_R   0.317130 0.347810 0.789083 0.566852
C56   C     C_R   0.319110 0.349466 0.707783 0.600328
C57   C     C_R   0.216945 0.398327 0.849332 -0.129561
C58   C     C_R   0.205202 0.377021 0.887516 -0.161804
C59   C     C_R   0.391522 0.263294 0.896564 0.248630
C60   C     C_R   0.402588 0.280226 0.856641 0.331122
C61   C     C_R   0.313597 0.345493 0.832757 -0.136580
C62   C     C_R   0.290714 0.304802 0.910358 -0.190033
H13   H     H_    0.241447 0.522366 0.589917 0.191319
H14   H     H_    0.127522 0.412000 0.897918 0.193277
H15   H     H_    0.148481 0.448994 0.831254 0.200742
H16   H     H_    0.965963 0.123252 0.873684 0.219703
H17   H     H_    0.792151 0.208614 0.672141 0.229672
C63   C     C_R   0.763912 0.375637 0.601986 -0.334495
C64   C     C_R   0.796442 0.440019 0.627651 0.281309
C65   C     C_R   0.815200 0.427273 0.669699 0.368097
C66   C     C_R   0.808422 0.345929 0.685603 -0.177501
C67   C     C_R   0.791066 0.274326 0.659711 -0.182957
C68   C     C_R   0.771396 0.286414 0.618024 0.338449
C69   C     C_R   0.888945 0.212928 0.822087 0.374394
C70   C     C_R   0.922788 0.200728 0.863083 -0.274767
C71   C     C_R   0.847483 0.387061 0.876324 0.306018
C72   C     C_R   0.815877 0.400603 0.834576 0.266841
C73   C     C_R   0.839440 0.313080 0.807510 -0.181042
C74   C     C_1   0.826101 0.325234 0.764450 0.221968
C75   C     C_1   0.817790 0.334825 0.728544 0.194698
C76   C     C_R   0.906427 0.286198 0.889996 -0.187234
H18   H     H_    0.508570 0.751415 0.693241 0.195276
C77   C     C_R   0.375408 0.757465 0.601872 -0.249637
C78   C     C_R   0.272872 0.819725 0.614287 0.214983
C79   C     C_R   0.256401 0.854261 0.655353 0.304674
C80   C     C_R   0.342602 0.826356 0.683596 -0.109881
C81   C     C_R   0.443249 0.771312 0.670963 -0.219741
C82   C     C_R   0.460990 0.736623 0.630357 0.334395
C83   C     C_R   0.388447 0.893355 0.830509 0.309591
C84   C     C_R   0.378295 0.909802 0.872659 0.230816
C85   C     C_R   0.233465 0.869564 0.864224 0.345703
C86   C     C_R   0.243646 0.855252 0.822424 -0.161726
C87   C     C_R   0.317272 0.871101 0.805484 -0.156339
C88   C     C_1   0.323285 0.857515 0.762344 0.173643
C89   C     C_1   0.330330 0.845241 0.726347 0.175161
C90   C     C_R   0.294422 0.906996 0.889380 -0.339103
H19   H     H_    0.194463 0.830444 0.802943 0.224039
O14   O     O_R   0.170070 0.978950 0.027680 -0.477598
O15   O     O_R   0.001760 0.175230 0.026640 -0.535519
C91   C     C_R   0.963300 0.264198 0.045258 0.835394
O16   O     O_R   0.984760 0.333570 0.037150 -0.495377
O17   O     O_R   0.183410 0.309240 0.041890 -0.485331
C92   C     C_R   0.273826 0.260522 0.059731 0.825436
O18   O     O_R   0.340240 0.172500 0.045430 -0.570208
O19   O     O_R   0.309670 0.000990 0.032050 -0.528325
C93   C     C_R   0.230304 0.009280 0.049575 0.905910
O20   O     O_R   0.168330 0.982130 0.939200 -0.510886
O21   O     O_R   0.000140 0.178170 0.944610 -0.550069
C94   C     C_R   0.961755 0.267859 0.930779 0.850078
O22   O     O_R   0.983010 0.336750 0.948660 -0.505081
O23   O     O_R   0.181800 0.312190 0.959860 -0.537700
C95   C     C_R   0.271353 0.264514 0.945560 0.828705
O24   O     O_R   0.338500 0.175680 0.956950 -0.502669
O25   O     O_R   0.308050 0.003930 0.950020 -0.505438
C96   C     C_R   0.257794 0.962224 0.929361 0.907028
Cr4   Cr    Cr6+3 0.087320 0.083240 0.984860 1.064386
Cr5   Cr    Cr6+3 0.087720 0.316210 0.996740 1.085867
Cr6   Cr    Cr6+3 0.317350 0.090340 0.995890 1.066915
O26   O     O_3   0.164130 0.163270 0.992500 -0.402033
O27   O     O_3   0.100001 0.251175 0.109587 -0.651105
H20   H     H_    0.143358 0.243622 0.135304 0.273404
O28   O     O_3   0.760240 0.284727 0.062524 -0.618093
H21   H     H_    0.787457 0.278176 0.035889 0.304732
O29   O     O_3   0.712604 0.304877 0.143963 -0.607957
H22   H     H_    0.670341 0.302067 0.119056 0.358580
N13   N     N_R   0.185443 0.867695 0.428381 0.180552
O30   O     O_R   0.189149 0.913865 0.463539 -0.298390
O31   O     O_R   0.119244 0.831966 0.420705 -0.288211
O32   O     O_3   0.548513 0.667229 0.397049 -0.609424
H23   H     H_    0.593701 0.649346 0.374437 0.340526
O33   O     O_3   0.061488 0.029965 0.088767 -0.594858
H24   H     H_    0.002033 0.057192 0.105953 0.337060
N14   N     N_R   0.138352 0.971239 0.355565 0.156549
O34   O     O_R   0.059902 0.953181 0.355814 -0.287449
O35   O     O_R   0.122093 0.059935 0.344186 -0.344200
N15   N     N_R   0.507594 0.777954 0.325983 0.110748
O36   O     O_R   0.581447 0.800710 0.339184 -0.303820
O37   O     O_R   0.510627 0.731763 0.290273 -0.352675
N16   N     N_R   0.070426 0.005296 0.173201 0.100190
O38   O     O_R   0.030477 0.944101 0.161292 -0.304804
O39   O     O_R   0.032936 0.072347 0.203513 -0.361208
O40   O     O_3   0.423003 0.957442 0.102360 -0.592288
H25   H     H_    0.405884 0.022251 0.090006 0.314806
O41   O     O_3   0.493971 0.187705 0.580431 -0.571996
H26   H     H_    0.499123 0.124061 0.590206 0.338249
O42   O     O_3   0.179850 0.521383 0.661487 -0.578880
H27   H     H_    0.142782 0.578376 0.642874 0.346098
O43   O     O_3   0.473137 0.177925 0.664118 -0.586906
H28   H     H_    0.542633 0.144625 0.653124 0.352306
N17   N     N_R   0.479890 0.204496 0.923513 -0.123850
O44   O     O_R   0.568520 0.203704 0.922116 -0.000009
O45   O     O_R   0.568521 0.203701 0.922116 -0.000009
N18   N     N_R   0.501890 0.226570 0.839472 0.147025
O46   O     O_R   0.535780 0.276867 0.820892 -0.334037
O47   O     O_R   0.554768 0.126221 0.839536 -0.242766
N19   N     N_R   0.910349 0.122632 0.795341 0.159190
O48   O     O_R   0.989804 0.033908 0.803551 -0.319960
O49   O     O_R   0.845853 0.126282 0.764663 -0.309699
N20   N     N_R   0.760495 0.206772 0.592550 0.163186
O50   O     O_R   0.715347 0.158652 0.605283 -0.322224
O51   O     O_R   0.811815 0.169653 0.560116 -0.300952
O52   O     O_3   0.811933 0.514978 0.612578 -0.561745
H29   H     H_    0.838104 0.489640 0.585271 0.327998
N21   N     N_R   0.766821 0.502223 0.819288 0.129652
O53   O     O_R   0.809178 0.562597 0.827635 -0.285333
O54   O     O_R   0.683232 0.532279 0.795017 -0.334240
O55   O     O_3   0.822824 0.470189 0.904294 -0.586547
H30   H     H_    0.763489 0.532536 0.893053 0.365322
N22   N     N_R   0.464745 0.174533 0.395108 0.127785
O56   O     O_R   0.436762 0.169452 0.430232 -0.328302
O57   O     O_R   0.535471 0.090787 0.377742 -0.316481
N23   N     N_R   0.841752 0.496659 0.695877 0.166154
O58   O     O_R   0.912890 0.461734 0.725472 -0.326057
O59   O     O_R   0.797567 0.594694 0.689425 -0.286244
N24   N     N_R   0.451845 0.931752 0.898023 0.176266
O60   O     O_R   0.470285 0.005829 0.890069 -0.295787
O61   O     O_R   0.505522 0.873159 0.927591 -0.305728
N25   N     N_R   0.471875 0.897901 0.813365 0.176562
O62   O     O_R   0.452827 0.955911 0.783388 -0.312077
O63   O     O_R   0.567372 0.843670 0.827629 -0.239595
O64   O     O_3   0.561243 0.677302 0.618550 -0.593866
H31   H     H_    0.611277 0.669826 0.642132 0.351779
N26   N     N_R   0.185873 0.850951 0.584990 0.182045
O65   O     O_R   0.127100 0.806454 0.582281 -0.287837
O66   O     O_R   0.176353 0.910263 0.556768 -0.289274
N27   N     N_R   0.162565 0.843908 0.880669 0.152432
O67   O     O_R   0.077829 0.855558 0.859737 -0.289021
O68   O     O_R   0.190597 0.793295 0.913442 -0.319479
N28   N     N_R   0.152954 0.918028 0.668282 0.151160
O69   O     O_R   0.080851 0.890709 0.658567 -0.270088
O70   O     O_R   0.132163 0.000462 0.692052 -0.330427
N29   N     N_R   0.135068 0.467323 0.099486 0.135678
O71   O     O_R   0.044815 0.518233 0.114720 -0.326854
O72   O     O_R   0.151483 0.500581 0.067706 -0.331220

loop_
_geom_bond_atom_site_label_1
_geom_bond_atom_site_label_2
_geom_bond_distance
_ccdc_geom_bond_type
C63   C68   1.421490 A    
C44   C48   1.421537 A    
O33   H24   0.988349 S    
C3    C21   1.464365 S    
N11   N12   1.328946 A    
C70   C76   1.403558 A    
O22   Cr5   2.033480 S    
C29   C33   1.393209 A    
C64   C65   1.411352 A    
C62   C95   1.478136 S    
O32   H23   0.988378 S    
C66   C67   1.392923 A    
N6    C42   1.353836 A    
N24   O60   1.300838 A    
C32   O29   1.383297 S    
C46   H12   1.084034 S    
O40   H25   0.987010 S    
O19   C93   1.307586 A    
C27   C33   1.461591 S    
N25   O62   1.301196 A    
C77   C78   1.419939 A    
O4    Cr2   1.923286 S    
N14   O34   1.300494 A    
C63   C64   1.425591 A    
C24   C28   1.464055 S    
N18   O46   1.301302 A    
O8    Cr1   1.926138 S    
C7    C8    1.409173 A    
C80   C81   1.392034 A    
C69   N19   1.441282 S    
O4    C2    1.277238 A    
C13   C17   1.392702 A    
Cr3   O13   1.977906 S    
C17   C18   1.431088 S    
C1    C35   1.477680 S    
O14   C93   1.296548 A    
C83   C84   1.410871 A    
C79   N28   1.438766 S    
N24   O61   1.301222 A    
C23   H9    1.082892 S    
C11   C12   1.406074 A    
C45   C46   1.390337 A    
N19   O48   1.301206 A    
C5    O11   1.273032 A    
C48   C93   1.490907 S    
C57   C58   1.388047 A    
O24   Cr6   2.038938 S    
O41   H26   0.990628 S    
C15   C16   1.404084 A    
C51   O42   1.382650 S    
C44   O33   1.384330 S    
H18   C81   1.084790 S    
C73   C74   1.443646 S    
C60   C61   1.412891 A    
C65   C66   1.408483 A    
N1    C27   1.356129 A    
C31   O28   1.383974 S    
N26   O65   1.300887 A    
C35   C36   1.412505 A    
H1    C14   1.081881 S    
C53   O43   1.381974 S    
C10   C19   1.431151 S    
O23   C95   1.278021 A    
C81   C82   1.400975 A    
N15   O36   1.300948 A    
C37   C38   1.409269 A    
C45   O40   1.372865 S    
C72   N21   1.438318 S    
O20   C96   1.274188 A    
O7    Cr1   2.037536 S    
C52   C53   1.418478 A    
C57   H15   1.083787 S    
N15   O37   1.301108 A    
C79   C80   1.406363 A    
O42   H27   0.991805 S    
N20   O50   1.301356 A    
Cr5   O26   1.977810 S    
C25   H10   1.083096 S    
C49   C54   1.407669 A    
N13   O31   1.300836 A    
N21   O53   1.301342 A    
O29   H22   0.989495 S    
N13   O30   1.300592 A    
C36   C37   1.405945 A    
C45   C48   1.418834 A    
C36   N13   1.432996 S    
C67   C68   1.398589 A    
C29   H11   1.084414 S    
N28   O69   1.300387 A    
C46   C47   1.396812 A    
N14   O35   1.301457 A    
C84   C90   1.424659 A    
O1    Cr1   2.044132 S    
N9    N10   1.331013 A    
O52   H29   0.991052 S    
C22   H7    1.083178 S    
C15   C20   1.421453 A    
C71   O55   1.382582 S    
O10   Cr2   1.922201 S    
Cr1   O13   1.967100 S    
O1    C3    1.269424 A    
C91   O16   1.264869 A    
N22   O56   1.301562 A    
C85   C90   1.420244 A    
C71   C76   1.411272 A    
C41   C47   1.472012 S    
C53   C54   1.418636 A    
C90   C96   1.495404 S    
C43   C44   1.415395 A    
O6    C3    1.270361 A    
C31   C34   1.418551 A    
N18   O47   1.301314 A    
C35   C40   1.413717 A    
C21   C22   1.401598 A    
N7    C42   1.356609 A    
O12   Cr3   1.915718 S    
O55   H30   0.989470 S    
C66   C75   1.440037 S    
C16   C17   1.396692 A    
Cr6   O26   1.971653 S    
C18   C19   1.200729 T    
N8    C41   1.358274 A    
H2    C13   1.083802 S    
N17   O44   1.301051 A    
C10   C11   1.398544 A    
C86   C87   1.393325 A    
N2    C28   1.353979 A    
O64   H31   0.991271 S    
C43   C47   1.409916 A    
N25   O63   1.301136 A    
C23   C24   1.404519 A    
C12   N22   1.438147 S    
C78   N26   1.433149 S    
C8    H4    1.083372 S    
C74   C75   1.204420 T    
N5    C41   1.355901 A    
C29   C30   1.386243 A    
N29   O72   1.301403 A    
O12   C6    1.279142 A    
C68   N20   1.436749 S    
C84   N24   1.435297 S    
H17   C67   1.084454 S    
C14   C20   1.409154 A    
C4    O9    1.270012 A    
C52   C56   1.488423 S    
O20   Cr4   2.043695 S    
O25   C96   1.276122 A    
C69   C73   1.410499 A    
N10   C56   1.359969 A    
C34   C91   1.456095 S    
C83   C87   1.404545 A    
O16   Cr5   2.040084 S    
C24   C25   1.400993 A    
C83   N25   1.438100 S    
C20   C92   1.484804 S    
C80   C89   1.435734 S    
N27   O67   1.301351 A    
N11   C56   1.357138 A    
N27   O68   1.301594 A    
N1    N2    1.325874 A    
C54   O41   1.381635 S    
C87   C88   1.435842 S    
C26   H8    1.083194 S    
C32   C33   1.409393 A    
Cr2   O13   1.971710 S    
O17   Cr5   1.917202 S    
C40   O32   1.385645 S    
C1    O3    1.269657 A    
C9    C10   1.392237 A    
O23   Cr5   1.922061 S    
N7    N8    1.330914 A    
C38   C42   1.464086 S    
C50   H13   1.083414 S    
N4    C27   1.355421 A    
C5    C49   1.480343 S    
O28   H21   0.988895 S    
O14   Cr4   2.040758 S    
H3    C11   1.083915 S    
C22   C23   1.389842 A    
C64   O52   1.379498 S    
N17   O45   1.301051 A    
O9    Cr2   2.040103 S    
O2    Cr1   1.922243 S    
O10   C5    1.279063 A    
C7    C12   1.419603 A    
Cr4   O26   1.967050 S    
C15   N29   1.436136 S    
C65   N23   1.441247 S    
N21   O54   1.301303 A    
C39   C40   1.410706 A    
C85   C86   1.399175 A    
O6    Cr3   1.921596 S    
C82   O64   1.382250 S    
C59   N17   1.439659 S    
O15   C91   1.273678 A    
N26   O66   1.300599 A    
O11   Cr3   2.038008 S    
C69   C70   1.399847 A    
C2    O5    1.275282 A    
C88   C89   1.201538 T    
C55   C61   1.465072 S    
C59   C60   1.417739 A    
H16   C70   1.083379 S    
C30   O27   1.382955 S    
N3    C28   1.359164 A    
C13   C14   1.390620 A    
C60   N18   1.436602 S    
O2    C1    1.270018 A    
C86   H19   1.084217 S    
N3    N4    1.330395 A    
N28   O70   1.301367 A    
C58   C62   1.403876 A    
C94   O22   1.271946 A    
O27   H20   0.991773 S    
O5    Cr3   2.033857 S    
O19   Cr6   1.922446 S    
N9    C55   1.354770 A    
C85   N27   1.438081 S    
C43   N16   1.436636 S    
C31   C32   1.418758 A    
C2    C7    1.479420 S    
C4    C77   1.486407 S    
C21   C26   1.405190 A    
O7    C6    1.277336 A    
C58   H14   1.083281 S    
C9    H6    1.083957 S    
N29   O71   1.301386 A    
N22   O57   1.301691 A    
C76   C94   1.483926 S    
C71   C72   1.419585 A    
N5    N6    1.327423 A    
O21   C94   1.278667 A    
C39   N15   1.435312 S    
N12   C55   1.355039 A    
C16   H5    1.083874 S    
C37   N14   1.439499 S    
C6    C63   1.498709 S    
N19   O49   1.301417 A    
N23   O59   1.301198 A    
N16   O38   1.301239 A    
O3    Cr2   2.040344 S    
C30   C34   1.405471 A    
C38   C39   1.408220 A    
C59   C62   1.414218 A    
C50   C51   1.401682 A    
C49   C50   1.400614 A    
O15   Cr4   1.927009 S    
C25   C26   1.389511 A    
C77   C82   1.415458 A    
C8    C9    1.389426 A    
N20   O51   1.301531 A    
O25   Cr6   1.920283 S    
O17   C92   1.279179 A    
O43   H28   0.990679 S    
C95   O24   1.272244 A    
O21   Cr4   1.922593 S    
C51   C52   1.412725 A    
C72   C73   1.412521 A    
O18   Cr6   2.037211 S    
C57   C61   1.396497 A    
C92   O18   1.274772 A    
O8    C4    1.275657 A    
N23   O58   1.301411 A    
C78   C79   1.413001 A    
N16   O39   1.300838 A    
