data_mof_unit_51979.cif
_audit_creation_date              2012-12-11T17:17:09-0500
_audit_creation_method            fapswitch 2.2
_symmetry_space_group_name_H-M    P1
_symmetry_Int_Tables_number       1
_space_group_crystal_system       triclinic
_cell_length_a                    8.679889
_cell_length_b                    16.854152
_cell_length_c                    18.772832
_cell_angle_alpha                 98.652557
_cell_angle_beta                  92.12544
_cell_angle_gamma                 96.329588
_cell_volume                      2694.4823821

loop_
_atom_site_label
_atom_site_type_symbol
_atom_type_description
_atom_site_fract_x
_atom_site_fract_y
_atom_site_fract_z
_atom_type_partial_charge
Ba1   Ba    Ba6+2 0.843980 0.537940 0.465850 1.840968
Ba2   Ba    Ba6+2 0.345840 0.462130 0.534150 1.838193
C1    C     C_3   0.792733 0.829744 0.280919 0.292049
C2    C     C_3   0.399400 0.564211 0.245848 0.063354
C3    C     C_2   0.366553 0.540155 0.166165 -0.097808
C4    C     C_3   0.181838 0.780141 0.255690 0.743867
C5    C     C_2   0.224201 0.504595 0.141942 -0.052168
C6    C     C_2   0.112976 0.474246 0.195795 0.275376
C7    C     C_1   0.157742 0.479040 0.267429 0.031519
C8    C     C_R   0.072240 0.488966 0.922062 0.511067
C9    C     C_R   0.175932 0.500755 0.063222 0.579324
C10   C     C_R   0.092421 0.514703 0.795031 -0.132562
C11   C     C_R   0.034143 0.510345 0.723450 0.089786
C12   C     C_3   0.721002 0.751951 0.308446 0.305968
C13   C     C_R   0.791919 0.437030 0.752921 -0.057395
C14   C     C_R   0.853151 0.438114 0.824821 0.293644
C15   C     C_R   0.005563 0.478321 0.846076 -0.145123
C16   C     C_3   0.206571 0.865679 0.234971 -0.261685
C17   C     C_R   0.886476 0.469769 0.702887 -0.365145
C18   C     C_R   0.394354 0.731631 0.487181 -0.263516
C19   C     C_R   0.534409 0.761151 0.523397 0.007033
C20   C     C_R   0.583568 0.845164 0.539172 -0.092434
C21   C     C_R   0.487634 0.898524 0.512971 0.331930
C22   C     C_R   0.351496 0.865834 0.469114 -0.146618
C23   C     C_3   0.539350 0.288154 0.295531 0.528024
C24   C     C_R   0.308581 0.781695 0.455198 -0.030625
C25   C     C_R   0.586725 0.148951 0.504700 0.360201
C26   C     C_R   0.637741 0.233927 0.509103 -0.079532
C27   C     C_R   0.685250 0.098850 0.535452 0.239623
C28   C     C_3   0.240128 0.725998 0.661876 0.269894
C29   C     C_R   0.778547 0.266234 0.547509 -0.251673
C30   C     C_R   0.880327 0.215562 0.571701 0.028167
C31   C     C_R   0.831768 0.132936 0.566528 -0.200437
C32   C     C_3   0.309235 0.796705 0.721967 0.340504
C33   C     C_3   0.929516 0.265655 0.306443 0.750877
C34   C     C_3   0.555518 0.231377 0.221557 0.673613
C35   C     C_3   0.956346 0.215919 0.230965 0.261964
C36   C     C_3   0.733051 0.647557 0.679464 0.282022
C37   C     C_3   0.664514 0.635421 0.751682 0.318150
C38   C     C_3   0.431076 0.856939 0.696646 -0.392390
C39   C     C_3   0.587546 0.774189 0.354249 -0.344020
C40   C     C_3   0.688390 0.861674 0.226831 -0.280300
C41   C     C_3   0.296350 0.870265 0.166735 -0.309391
C42   C     C_3   0.732019 0.878392 0.584281 -0.305702
C43   C     C_3   0.138074 0.754375 0.604739 -0.280072
C44   C     C_3   0.083398 0.285006 0.734231 0.271923
C45   C     C_3   0.121814 0.262617 0.807798 -0.255859
C46   C     C_3   0.547007 0.248545 0.692914 0.390018
C47   C     C_3   0.501458 0.167398 0.717248 -0.264223
C48   C     C_2   0.296409 0.517476 0.292562 -0.177279
H1    H     H_    0.810434 0.731872 0.343421 0.118841
H2    H     H_    0.617254 0.345529 0.299596 -0.016407
H3    H     H_    0.670672 0.213911 0.225461 -0.077386
H4    H     H_    0.890184 0.813049 0.249999 0.133665
H5    H     H_    0.129592 0.349245 0.734650 0.046473
H6    H     H_    0.954775 0.277273 0.725256 -0.036362
H7    H     H_    0.249131 0.272931 0.820256 0.175788
H8    H     H_    0.064026 0.300351 0.849932 0.092977
H9    H     H_    0.080128 0.198035 0.808453 0.140493
H10   H     H_    0.674890 0.255469 0.688007 -0.091564
H11   H     H_    0.486370 0.247830 0.639618 0.026863
H12   H     H_    0.368824 0.768750 0.763535 0.127301
H13   H     H_    0.532170 0.117898 0.676154 0.058950
H14   H     H_    0.374731 0.158179 0.724135 0.161412
H15   H     H_    0.564059 0.164568 0.769254 0.166216
H16   H     H_    0.447239 0.563495 0.129324 0.130549
H17   H     H_    0.205059 0.548205 0.811551 0.132905
H18   H     H_    0.324908 0.531054 0.350194 0.100570
H19   H     H_    0.840518 0.468299 0.648323 0.071729
H20   H     H_    0.282075 0.905024 0.444758 0.126922
H21   H     H_    0.299476 0.763932 0.263331 -0.006688
H22   H     H_    0.911961 0.093739 0.583717 0.114086
H23   H     H_    0.824254 0.293817 0.307642 -0.237132
H24   H     H_    0.358322 0.667078 0.477434 0.079345
H25   H     H_    0.819577 0.329568 0.549209 0.061108
H26   H     H_    0.094666 0.888528 0.224936 0.198425
H27   H     H_    0.272565 0.906666 0.280519 0.135573
H28   H     H_    0.337263 0.697028 0.635996 -0.030769
H29   H     H_    0.525837 0.824783 0.674232 0.119110
H30   H     H_    0.381202 0.889932 0.656252 0.130014
H31   H     H_    0.482297 0.902054 0.743096 0.194839
H32   H     H_    0.989415 0.922760 0.735862 0.373411
H33   H     H_    0.045639 0.107860 0.405593 0.382289
H34   H     H_    0.079510 0.222578 0.221074 0.188830
H35   H     H_    0.816681 0.027769 0.111767 0.368758
H36   H     H_    0.100469 0.966595 0.363972 0.347947
H37   H     H_    0.849260 0.760572 0.914557 0.390461
H38   H     H_    0.504472 0.805583 0.326850 0.078065
H39   H     H_    0.528776 0.720969 0.371403 0.115433
H40   H     H_    0.633376 0.814705 0.403507 0.141486
H41   H     H_    0.590551 0.889185 0.253034 0.145974
H42   H     H_    0.757137 0.909213 0.202377 0.182154
H43   H     H_    0.644063 0.812147 0.182615 0.120003
H44   H     H_    0.342090 0.380266 0.210421 0.326406
H45   H     H_    0.904796 0.242599 0.187322 0.107336
H46   H     H_    0.241953 0.096288 0.128331 0.383346
H47   H     H_    0.387101 0.281817 0.051020 0.386295
H48   H     H_    0.348247 0.933373 0.166363 0.195848
H49   H     H_    0.389439 0.830348 0.163694 0.127438
H50   H     H_    0.217166 0.851510 0.117846 0.211819
H51   H     H_    0.907333 0.702527 0.099364 0.388393
H52   H     H_    0.847667 0.517461 0.131940 0.362796
H53   H     H_    0.898561 0.339804 0.957800 0.366719
H54   H     H_    0.196478 0.038404 0.479974 0.340302
H55   H     H_    0.783143 0.833596 0.612117 0.144552
H56   H     H_    0.857725 0.670142 0.688539 0.072321
H57   H     H_    0.821179 0.902072 0.549669 0.180922
H58   H     H_    0.709006 0.927798 0.627341 0.113784
H59   H     H_    0.112431 0.705266 0.558050 0.092855
H60   H     H_    0.026436 0.769168 0.627006 0.175190
H61   H     H_    0.194724 0.808747 0.585855 0.056577
H62   H     H_    0.720697 0.587836 0.644261 -0.047247
H63   H     H_    0.717108 0.586628 0.773260 -0.034546
H64   H     H_    0.538267 0.617497 0.742927 0.062258
N1    N     N_R   0.012592 0.538949 0.974871 -0.144083
N2    N     N_R   0.063674 0.544750 0.043634 -0.145525
N3    N     N_R   0.239691 0.452696 0.010044 -0.189089
N4    N     N_R   0.188867 0.446942 0.940942 -0.220420
N5    N     N_2   0.520125 0.984172 0.532148 -0.148701
N6    N     N_2   0.656118 0.012330 0.523021 -0.154907
O1    O     O_2   0.875590 0.454550 0.328720 -0.449075
O2    O     O_2   0.193645 0.210017 0.543965 -0.369156
O3    O     O_3   0.152805 0.234971 0.681080 -0.601248
O4    O     O_3   0.127960 0.455900 0.416100 -0.440447
O5    O     O_3   0.560420 0.597610 0.535760 -0.471393
O6    O     O_2   0.379340 0.302240 0.465940 -0.328663
O7    O     O_3   0.566734 0.247527 0.355471 -0.567853
O8    O     O_2   0.476477 0.465026 0.755064 -0.453566
O9    O     O_3   0.502061 0.311052 0.743344 -0.523321
O10   O     O_3   0.634460 0.601950 0.371690 -0.507200
O11   O     O_2   0.713864 0.533612 0.244844 -0.397855
O12   O     O_3   0.655555 0.704836 0.649999 -0.636890
O13   O     O_3   0.054990 0.325505 0.325175 -0.543932
O14   O     O_3   0.675829 0.688736 0.249786 -0.594033
O15   O     O_2   0.810360 0.697790 0.534100 -0.509314
O16   O     O_3   0.049190 0.643760 0.407000 -0.453253
O17   O     O_2   0.272372 0.675996 0.340144 -0.571588
O18   O     O_2   0.043871 0.792775 0.791728 -0.199886
O19   O     O_2   0.241183 0.907211 0.832147 -0.222715
O20   O     O_3   0.083060 0.906274 0.711805 -0.545883
O21   O     O_2   0.991088 0.262699 0.442954 -0.355159
O22   O     O_2   0.776765 0.163046 0.385680 -0.288214
O23   O     O_3   0.091090 0.779102 0.317913 -0.616803
O24   O     O_3   0.053656 0.134653 0.362213 -0.349508
O25   O     O_2   0.025076 0.061461 0.223050 -0.192186
O26   O     O_2   0.760323 0.082364 0.253920 -0.170570
O27   O     O_3   0.835958 0.087511 0.122277 -0.447290
O28   O     O_2   0.737013 0.960942 0.375647 -0.188530
O29   O     O_2   0.916310 0.874199 0.418740 -0.396135
O30   O     O_3   0.012944 0.968814 0.329310 -0.440745
O31   O     O_2   0.722043 0.798843 0.787609 -0.263207
O32   O     O_2   0.551455 0.725645 0.863206 -0.274390
O33   O     O_3   0.846052 0.714040 0.875190 -0.453378
O34   O     O_2   0.314110 0.545480 0.671320 -0.484765
O35   O     O_2   0.264901 0.241969 0.321281 -0.176248
O36   O     O_2   0.361889 0.385860 0.355562 -0.383936
O37   O     O_3   0.281417 0.330354 0.219478 -0.541960
O38   O     O_2   0.418208 0.099599 0.273700 -0.147448
O39   O     O_2   0.516448 0.077913 0.153191 -0.261883
O40   O     O_3   0.262690 0.142568 0.168069 -0.424527
O41   O     O_2   0.575280 0.367632 0.156099 -0.275150
O42   O     O_2   0.676694 0.248183 0.093251 -0.163572
O43   O     O_3   0.380494 0.250359 0.091556 -0.423167
O44   O     O_2   0.213744 0.682312 0.133057 -0.336870
O45   O     O_3   0.061730 0.544170 0.583900 -0.515615
O46   O     O_2   0.011485 0.637359 0.211369 -0.322284
O47   O     O_3   0.958739 0.748517 0.134404 -0.543108
O48   O     O_2   0.003404 0.343703 0.102718 -0.239313
O49   O     O_2   0.850865 0.374961 0.207042 -0.321011
O50   O     O_3   0.835005 0.461247 0.106476 -0.368731
O51   O     O_2   0.593481 0.420334 0.897057 -0.199790
O52   O     O_2   0.706208 0.297802 0.850093 -0.319195
O53   O     O_3   0.835325 0.385540 0.964898 -0.400321
O54   O     O_2   0.337172 0.154196 0.412435 -0.175194
O55   O     O_2   0.455040 0.030297 0.401034 -0.230075
O56   O     O_3   0.555240 0.398120 0.628310 -0.526308
O57   O     O_3   0.287554 0.065755 0.510826 -0.531660
O58   O     O_3   0.146177 0.672065 0.696230 -0.614408
O59   O     O_3   0.629280 0.402460 0.464250 -0.482156
O60   O     O_3   0.140510 0.356300 0.593010 -0.465269
P1    P     P_3+3 0.048660 0.430750 0.339650 1.198671
P2    P     P_3+3 0.638170 0.686040 0.555200 0.958517
P3    P     P_3+3 0.165634 0.728049 0.385173 0.964065
P4    P     P_3+3 0.141040 0.569320 0.660360 0.980492
P5    P     P_3+3 0.088017 0.254271 0.596917 1.064044
P6    P     P_3+3 0.607953 0.595587 0.278176 1.051729
P7    P     P_3+3 0.556249 0.298400 0.447076 1.207963
P8    P     P_3+3 0.583755 0.403513 0.721567 1.043156
S1    S     S_3+6 0.165438 0.851412 0.767286 -0.018198
S2    S     S_3+6 0.947997 0.410738 0.153891 0.006520
S3    S     S_3+6 0.743045 0.384525 0.884522 -0.016157
S4    S     S_3+6 0.414849 0.100245 0.453813 0.005442
S5    S     S_3+6 0.933453 0.205346 0.376349 0.004539
S6    S     S_3+6 0.892552 0.108647 0.210355 0.040001
S7    S     S_3+6 0.863565 0.909620 0.354359 -0.082391
S8    S     S_3+6 0.693680 0.722611 0.820040 -0.018663
S9    S     S_3+6 0.356259 0.313266 0.298503 -0.068509
S10   S     S_3+6 0.437532 0.134736 0.205384 0.094878
S11   S     S_3+6 0.550499 0.277072 0.139700 0.051609
S12   S     S_3+6 0.090029 0.708525 0.182110 -0.096753

loop_
_geom_bond_atom_site_label_1
_geom_bond_atom_site_label_2
_ccdc_geom_bond_type
H52   O50   S    
C39   H39   S    
C1    C40   S    
C36   H56   S    
C47   H13   S    
C25   C27   A    
C40   H43   S    
O14   P6    S    
C28   C43   S    
O36   S9    D    
C41   H48   S    
H53   O53   S    
C33   O13   S    
Ba1   P1    S    
C22   H20   S    
C5    C6    S    
C29   C30   A    
C42   H55   S    
C5    C9    S    
C47   H15   S    
C30   P5    S    
C32   C38   S    
O6    P7    D    
C33   C35   S    
C41   H49   S    
Ba1   Ba2   S    
H36   O30   S    
C21   N5    S    
C36   C37   S    
C1    H4    S    
C43   H59   S    
O59   P7    S    
C8    C15   S    
C13   C14   A    
C27   C31   A    
C32   H12   S    
O48   S2    D    
C35   H45   S    
O27   S6    S    
C40   H41   S    
C2    P6    S    
H51   O47   S    
H32   O20   S    
C34   H3    S    
C31   H22   S    
O12   P2    S    
O39   S10   D    
C20   C42   S    
C12   H1    S    
C6    S2    S    
C14   C15   A    
H47   O43   S    
O34   P4    D    
C44   H5    S    
O7    P7    S    
O47   S12   S    
C38   H30   S    
C35   H34   S    
O56   P8    S    
O26   S6    D    
Ba1   O16   S    
O37   S9    S    
O35   S9    D    
O16   P3    S    
O10   P6    S    
Ba2   O56   S    
C24   P3    S    
C11   P4    S    
C39   H40   S    
O43   S11   S    
Ba2   O34   S    
C47   H14   S    
C19   C20   A    
O20   S1    S    
C4    H21   S    
Ba2   O60   S    
O49   S2    D    
C27   N6    S    
C46   H10   S    
O46   S12   D    
C42   H58   S    
O52   S3    D    
C19   P2    S    
C4    C16   S    
C10   H17   S    
C28   C32   S    
C18   H24   S    
C7    P1    S    
C41   H50   S    
Ba1   O10   S    
C26   P7    S    
O55   S4    D    
C3    C5    D    
O32   S8    D    
C43   H60   S    
C6    C7    D    
C11   C17   A    
O21   S5    D    
O24   S5    S    
C12   O14   S    
C37   H63   S    
O42   S11   D    
O53   S3    S    
C1    S7    S    
C30   C31   A    
C2    C48   S    
O23   P3    S    
O31   S8    D    
O3    P5    S    
C13   C17   A    
O11   P6    D    
C8    N4    A    
C14   S3    S    
C45   H7    S    
O54   S4    D    
O28   S7    D    
C29   H25   S    
H54   O57   S    
Ba1   O45   S    
C21   C22   A    
C37   H64   S    
H37   O33   S    
C28   O58   S    
C38   H29   S    
O51   S3    D    
Ba2   P4    S    
O58   P4    S    
C18   C19   A    
N5    N6    D    
C9    N2    A    
Ba2   O45   S    
O25   S6    D    
C1    C12   S    
C12   C39   S    
Ba2   O6    S    
O13   P1    S    
C46   C47   S    
H46   O40   S    
H44   O37   S    
C26   C29   A    
C44   O3    S    
C17   H19   S    
O18   S1    D    
C25   S4    S    
C36   H62   S    
C9    N3    A    
O1    P1    D    
C13   P8    S    
C42   H57   S    
C39   H38   S    
C44   C45   S    
C33   H23   S    
C34   S11   S    
C16   H26   S    
O5    P2    S    
O8    P8    D    
O45   P4    S    
C38   H31   S    
C32   S1    S    
C7    C48   D    
H35   O27   S    
C34   S10   S    
C2    C3    S    
O2    P5    D    
O40   S10   S    
Ba1   P2    S    
C43   H61   S    
O17   P3    D    
Ba2   O4    S    
C37   S8    S    
O50   S2    S    
Ba1   O5    S    
C35   S6    S    
C23   O7    S    
C23   H2    S    
O4    P1    S    
Ba1   O15   S    
N3    N4    A    
C3    H16   S    
C45   H8    S    
C4    S12   S    
Ba1   O59   S    
C22   C24   A    
C46   H11   S    
H33   O24   S    
O33   S8    S    
C18   C24   A    
C16   H27   S    
O41   S11   D    
O38   S10   D    
O22   S5    D    
C40   H42   S    
C46   O9    S    
Ba1   O1    S    
O30   S7    S    
Ba1   O4    S    
C23   S9    S    
O60   P5    S    
C33   S5    S    
C23   C34   S    
C45   H9    S    
C28   H28   S    
Ba2   O5    S    
O19   S1    D    
C10   C15   A    
C10   C11   A    
Ba2   O59   S    
O9    P8    S    
C44   H6    S    
C25   C26   A    
O57   S4    S    
C20   C21   A    
O15   P2    D    
N1    N2    A    
C4    O23   S    
C16   C41   S    
C48   H18   S    
O29   S7    D    
C8    N1    A    
O44   S12   D    
C36   O12   S    
