data_mof_unit_26956.cif
_audit_creation_date              2013-03-05T16:35:50-0500
_audit_creation_method            fapswitch 2.2
_symmetry_space_group_name_H-M    P1
_symmetry_Int_Tables_number       1
_space_group_crystal_system       triclinic
_cell_length_a                    23.610181
_cell_length_b                    9.081379
_cell_length_c                    7.772189
_cell_angle_alpha                 89.826096
_cell_angle_beta                  90.076837
_cell_angle_gamma                 89.999242
_cell_volume                      1666.44920017

loop_
_atom_site_label
_atom_site_type_symbol
_atom_site_description
_atom_site_fract_x
_atom_site_fract_y
_atom_site_fract_z
_atom_type_partial_charge
O1    O     O_R   0.500000 0.288390 0.642760 -0.581160
O2    O     O_R   0.500000 0.711610 0.357240 -0.581226
O3    O     O_R   0.500000 0.711610 0.642760 -0.572691
O4    O     O_R   0.500000 0.288390 0.357240 -0.579328
C1    C     C_R   0.500040 0.219984 0.500164 0.826340
C2    C     C_R   0.500086 0.780014 0.499839 0.834203
O5    O     O_R   0.417880 0.500000 0.642820 -0.550355
O6    O     O_R   0.582120 0.500000 0.357180 -0.599594
O7    O     O_R   0.582120 0.500000 0.642820 -0.547135
O8    O     O_R   0.417880 0.500000 0.357180 -0.599488
C3    C     C_R   0.209399 0.502591 0.515544 -0.027574
C4    C     C_R   0.792182 0.500664 0.513201 -0.034879
C5    C     C_R   0.390766 0.498895 0.499772 0.896994
C6    C     C_R   0.609559 0.499100 0.499834 0.882188
Cu1   Cu    Cu3+1 0.500000 0.500000 0.669080 1.013559
Cu2   Cu    Cu3+1 0.500000 0.500000 0.330920 0.982939
C7    C     C_R   0.299909 0.593294 0.620011 0.080800
C8    C     C_R   0.701887 0.445990 0.649703 0.083722
C9    C     C_R   0.296462 0.411489 0.387929 0.055062
C10   C     C_R   0.704614 0.545319 0.356325 0.051343
C11   C     C_R   0.328376 0.502246 0.500413 -0.295173
C12   C     C_R   0.672554 0.495757 0.500568 -0.305204
C13   C     C_R   0.881476 0.631438 0.489576 0.751537
C14   C     C_R   0.120421 0.378690 0.569549 0.750358
C15   C     C_R   0.881795 0.373699 0.551618 0.755490
C16   C     C_R   0.120193 0.629668 0.476457 0.751758
N1    N     N_R   0.853177 0.502064 0.518845 -0.443265
N2    N     N_R   0.148589 0.503897 0.521485 -0.442947
C17   C     C_R   0.941253 0.372898 0.561700 -0.226014
C18   C     C_R   0.060673 0.633565 0.479842 -0.225366
C19   C     C_R   0.941003 0.634076 0.484939 -0.223886
C20   C     C_R   0.060889 0.375088 0.569425 -0.223562
C21   C     C_R   0.971014 0.503797 0.524053 -0.164845
C22   C     C_R   0.030905 0.504217 0.524708 -0.162231
C23   C     C_R   0.971636 0.245021 0.607151 0.628565
C24   C     C_R   0.030213 0.762243 0.438039 0.627084
C25   C     C_R   0.971195 0.762801 0.441918 0.629475
C26   C     C_R   0.030639 0.246425 0.612359 0.628324
C27   C     C_1   0.500030 0.065382 0.500232 -0.188026
C28   C     C_1   0.500049 0.934619 0.499780 -0.189660
C29   C     C_R   0.240654 0.590668 0.628518 0.572131
C30   C     C_R   0.761108 0.454778 0.656830 0.577537
C31   C     C_R   0.237355 0.414099 0.395460 0.625372
C32   C     C_R   0.763738 0.543154 0.363005 0.624993
N3    N     N_1   0.500000 0.500000 0.076820 -0.052541
N4    N     N_1   0.500000 0.500000 0.923180 -0.043515
O9    O     O_2   0.851915 0.757096 0.466114 -0.386504
O10   O     O_2   0.150180 0.258442 0.617336 -0.383696
O11   O     O_2   0.852669 0.247010 0.572036 -0.382449
O12   O     O_2   0.149683 0.749817 0.427059 -0.383162
F1    F     F_    0.944596 0.118255 0.650399 -0.510718
F2    F     F_    0.057130 0.888744 0.392959 -0.507788
F3    F     F_    0.943964 0.889363 0.398738 -0.510464
F4    F     F_    0.057756 0.120474 0.658661 -0.507380
F5    F     F_    0.213184 0.675820 0.745110 -0.594078
F6    F     F_    0.788783 0.415200 0.803264 -0.583615
F7    F     F_    0.206809 0.329820 0.284980 -0.569418
F8    F     F_    0.793811 0.583095 0.221396 -0.564598
N5    N     N_2   0.330822 0.689169 0.730458 -0.377592
H1    H     H_    0.312735 0.703576 0.849977 0.304667
C33   C     C_3   0.346719 0.827561 0.651418 -0.588825
H2    H     H_    0.308306 0.893733 0.621730 0.253106
H3    H     H_    0.370912 0.808496 0.531037 0.202324
H4    H     H_    0.374011 0.890805 0.741183 0.219244
N6    N     N_2   0.672225 0.384154 0.792230 -0.379753
H5    H     H_    0.691342 0.402199 0.909582 0.305205
C34   C     C_3   0.656591 0.231285 0.770109 -0.573470
H6    H     H_    0.695180 0.161440 0.762838 0.250775
H7    H     H_    0.631061 0.216531 0.651220 0.208031
H8    H     H_    0.630670 0.194683 0.881437 0.214275
N7    N     N_2   0.322461 0.312566 0.270317 -0.355861
H9    H     H_    0.353135 0.357598 0.192316 0.277743
C35   C     C_3   0.337819 0.171507 0.343553 -0.556246
H10   H     H_    0.370920 0.185440 0.443913 0.178431
H11   H     H_    0.354662 0.098852 0.241002 0.219829
H12   H     H_    0.300032 0.117603 0.401024 0.264377
N8    N     N_2   0.679153 0.600202 0.202998 -0.362811
H13   H     H_    0.650277 0.531923 0.144298 0.273521
C36   C     C_3   0.663078 0.753767 0.208114 -0.525953
H14   H     H_    0.629030 0.771559 0.304323 0.192524
H15   H     H_    0.647283 0.788389 0.079586 0.213664
H16   H     H_    0.700295 0.823001 0.241449 0.256558

loop_
_geom_bond_atom_site_label_1
_geom_bond_atom_site_label_2
_geom_bond_distance
_ccdc_geom_bond_type
C35   H10   1.110935 S    
C9    N7    1.423337 S    
O3    C2    1.271070 A    
N8    H13   1.028746 S    
C8    N6    1.425197 S    
C10   N8    1.422808 S    
O1    C1    1.272159 A    
C24   C25   1.393797 A    
C9    C11   1.419154 A    
C16   O12   1.349411 S    
Cu1   Cu2   2.628244 S    
C17   C21   1.411009 A    
C33   H3    1.110883 S    
C29   F5    1.358533 S    
C4    C30   1.399091 A    
C30   F6    1.359017 S    
C32   F8    1.358960 S    
N6    C34   1.447199 S    
C19   C21   1.411195 A    
C3    C31   1.399544 A    
O1    Cu1   1.933186 S    
C20   C26   1.408905 A    
O2    Cu2   1.933185 S    
C24   F2    1.358148 S    
C25   F3    1.357964 S    
O5    Cu1   1.949311 S    
N5    H1    1.031591 S    
O6    Cu2   1.949309 S    
C35   H11   1.110324 S    
O2    C2    1.272167 A    
C10   C32   1.396944 A    
C9    C31   1.397039 A    
C7    C29   1.400869 A    
N8    C36   1.445976 S    
C15   C17   1.405898 A    
N5    C33   1.446964 S    
C13   O9    1.349425 S    
C18   C22   1.411930 A    
C4    N1    1.440760 S    
C34   H6    1.111729 S    
C14   O10   1.349417 S    
C23   C26   1.393674 A    
C27   C28   1.187521 T    
C36   H15   1.110365 S    
N3    N4    1.194120 T    
C7    C11   1.416239 A    
C19   C25   1.408822 A    
C34   H7    1.111019 S    
C13   C19   1.406158 A    
O4    Cu2   1.931951 S    
C33   H4    1.110445 S    
O7    C6    1.287156 A    
C14   C20   1.405939 A    
C26   F4    1.358150 S    
C21   C22   1.414033 A    
C5    C11   1.473383 S    
C7    N5    1.424966 S    
C10   C12   1.425350 A    
C16   C18   1.406021 A    
C13   N1    1.370167 A    
C1    C27   1.404005 S    
C23   F1    1.357964 S    
C35   H12   1.111231 S    
C2    C28   1.404024 S    
O3    Cu1   1.931950 S    
N7    C35   1.446186 S    
O6    C6    1.283383 A    
C8    C12   1.422005 A    
C14   N2    1.368515 A    
O4    C1    1.271087 A    
O8    C5    1.280614 A    
Cu2   N3    1.974912 S    
C36   H16   1.111285 S    
C15   N1    1.370424 A    
C17   C23   1.408831 A    
C16   N2    1.368736 A    
C18   C24   1.409033 A    
C34   H8    1.110578 S    
C6    C12   1.487624 S    
C8    C30   1.401545 A    
O7    Cu1   1.949853 S    
N7    H9    1.029057 S    
C4    C32   1.399204 A    
O8    Cu2   1.949855 S    
C3    N2    1.436596 S    
C3    C29   1.399238 A    
C33   H2    1.111512 S    
C15   O11   1.349437 S    
C31   F7    1.358516 S    
C36   H14   1.110770 S    
O5    C5    1.282242 A    
N6    H5    1.030668 S    
Cu1   N4    1.974912 S    
C20   C22   1.412079 A    
