data_mof_unit_45518.cif
_audit_creation_date              2012-12-10T18:10:19-0500
_audit_creation_method            fapswitch 2.2
_symmetry_space_group_name_H-M    P1
_symmetry_Int_Tables_number       1
_space_group_crystal_system       triclinic
_cell_length_a                    10.782672
_cell_length_b                    9.580985
_cell_length_c                    15.813351
_cell_angle_alpha                 88.048914
_cell_angle_beta                  88.222892
_cell_angle_gamma                 89.703148
_cell_volume                      1631.90915025

loop_
_atom_site_label
_atom_site_type_symbol
_atom_type_description
_atom_site_fract_x
_atom_site_fract_y
_atom_site_fract_z
_atom_type_partial_charge
C1    C     C_R   0.260067 0.500695 0.495670 0.735437
C2    C     C_3   0.622268 0.572603 0.945609 -0.379151
C3    C     C_3   0.622800 0.577251 0.043449 -0.380521
C4    C     C_1   0.503426 0.493839 0.825002 -0.127441
C5    C     C_1   0.505689 0.507946 0.174908 -0.111305
C6    C     C_1   0.504630 0.507275 0.250634 -0.201555
C7    C     C_3   0.070002 0.647541 0.520010 -0.418618
C8    C     C_3   0.070664 0.399542 0.565627 -0.391034
C9    C     C_3   0.927443 0.648342 0.520240 -0.389867
C10   C     C_3   0.927865 0.394552 0.568441 -0.401337
C11   C     C_3   0.066384 0.467142 0.402294 0.240767
C12   C     C_3   0.120839 0.502014 0.493384 0.151675
C13   C     C_3   0.876601 0.500523 0.502469 0.138854
C14   C     C_R   0.502037 0.502140 0.340602 0.802075
C15   C     C_3   0.921736 0.456817 0.414053 -0.391827
C16   C     C_3   0.599525 0.079072 0.554572 -0.214247
C17   C     C_3   0.606797 0.914338 0.547192 -0.189816
C18   C     C_3   0.382145 0.081195 0.537038 -0.255839
C19   C     C_3   0.387707 0.915206 0.545735 -0.244792
C20   C     C_3   0.521390 0.091431 0.413565 0.078047
C21   C     C_3   0.501135 0.926818 0.412389 0.105206
C22   C     C_R   0.738903 0.499830 0.504186 0.746246
C23   C     C_R   0.500078 0.498000 0.659490 0.834186
C24   C     C_3   0.389326 0.580449 0.048825 -0.383354
C25   C     C_3   0.504251 0.351207 0.054420 -0.386576
C26   C     C_3   0.503500 0.346809 0.956611 -0.378766
C27   C     C_3   0.388654 0.576140 0.951107 -0.380759
C28   C     C_1   0.501865 0.494008 0.749301 -0.208431
C29   C     C_3   0.505682 0.504512 0.082789 0.344165
C30   C     C_3   0.504554 0.497037 0.917190 0.343537
Cu1   Cu    Cu3+1 0.499860 0.642410 0.500040 0.888022
Cu2   Cu    Cu3+1 0.499860 0.357590 0.500040 0.882672
H1    H     H_    0.302693 0.523727 0.931623 0.155416
H2    H     H_    0.419578 0.290324 0.937245 0.156158
H3    H     H_    0.896443 0.725664 0.471420 0.159824
H4    H     H_    0.897260 0.286857 0.555288 0.162012
H5    H     H_    0.872542 0.522992 0.366436 0.117100
H6    H     H_    0.886080 0.351940 0.403642 0.155069
H7    H     H_    0.582548 0.104721 0.622085 0.145687
H8    H     H_    0.610535 0.865222 0.611778 0.145516
H9    H     H_    0.691614 0.124298 0.537188 0.131375
H10   H     H_    0.695568 0.886354 0.515321 0.127934
H11   H     H_    0.447878 0.138429 0.373861 0.120318
H12   H     H_    0.404014 0.916595 0.390812 0.070087
H13   H     H_    0.305261 0.111728 0.495434 0.153695
H14   H     H_    0.302151 0.872811 0.519186 0.149318
H15   H     H_    0.587123 0.294057 0.077899 0.159418
H16   H     H_    0.388358 0.691068 0.068109 0.159859
H17   H     H_    0.586086 0.287731 0.933197 0.155466
H18   H     H_    0.387288 0.684665 0.923647 0.156587
H19   H     H_    0.625541 0.687830 0.062707 0.153737
H20   H     H_    0.707910 0.524661 0.067035 0.157362
H21   H     H_    0.625272 0.680969 0.917927 0.155853
H22   H     H_    0.706983 0.517372 0.922179 0.154707
H23   H     H_    0.107173 0.734113 0.478335 0.165131
H24   H     H_    0.109966 0.293585 0.562147 0.156640
H25   H     H_    0.100795 0.671099 0.584579 0.164957
H26   H     H_    0.101644 0.435398 0.627820 0.150266
H27   H     H_    0.890535 0.683113 0.582624 0.161013
H28   H     H_    0.891675 0.419364 0.632908 0.151885
N1    N     N_3   0.500250 0.143650 0.501830 -0.140070
N2    N     N_3   0.500250 0.856350 0.501830 -0.121068
O1    O     O_R   0.317570 0.620260 0.500050 -0.603343
O2    O     O_R   0.317570 0.379740 0.500050 -0.591627
O3    O     O_R   0.499890 0.620310 0.379470 -0.589787
O4    O     O_R   0.499890 0.379690 0.379470 -0.581216
O5    O     O_R   0.682190 0.620260 0.500020 -0.603179
O6    O     O_R   0.682190 0.379740 0.500020 -0.618031
O7    O     O_R   0.499870 0.620210 0.620600 -0.580516
O8    O     O_R   0.499870 0.379790 0.620600 -0.576345
C31   C     C_3   0.085318 0.590550 0.333660 -0.470593
C32   C     C_3   0.217990 0.629225 0.305776 -0.362597
C33   C     C_3   0.219615 0.730554 0.229099 -0.894007
H29   H     H_    0.180195 0.680251 0.173761 0.250549
H30   H     H_    0.164519 0.825487 0.243012 0.262383
H31   H     H_    0.316556 0.762129 0.212825 0.238663
H32   H     H_    0.264594 0.681176 0.357169 0.249596
H33   H     H_    0.268682 0.534115 0.287681 0.213674
H34   H     H_    0.037431 0.561159 0.275425 0.202185
H35   H     H_    0.036933 0.687136 0.353351 0.205960
C34   C     C_3   0.121919 0.330623 0.361031 -0.379145
C35   C     C_3   0.081465 0.183581 0.395195 -0.360050
C36   C     C_3   0.141506 0.069911 0.342141 -0.923006
H36   H     H_    0.106607 0.076410 0.276754 0.257090
H37   H     H_    0.243784 0.080933 0.339281 0.243099
H38   H     H_    0.117971 0.965594 0.370885 0.242282
H39   H     H_    0.109091 0.163736 0.460616 0.210314
H40   H     H_    0.980447 0.166371 0.392868 0.209343
H41   H     H_    0.098505 0.333921 0.292948 0.192173
H42   H     H_    0.224579 0.334222 0.361582 0.198155
H43   H     H_    0.359021 0.124956 0.599855 0.156113
H44   H     H_    0.385311 0.881882 0.613882 0.151942
C37   C     C_3   0.650190 0.141919 0.370699 -0.351541
C38   C     C_3   0.651229 0.189677 0.275258 -0.378355
C39   C     C_3   0.750890 0.299173 0.253379 -0.878586
H45   H     H_    0.734233 0.394402 0.289780 0.252076
H46   H     H_    0.844170 0.256084 0.267223 0.248365
H47   H     H_    0.749266 0.328756 0.184957 0.237446
H48   H     H_    0.674703 0.104250 0.232630 0.210903
H49   H     H_    0.559203 0.230087 0.256824 0.228317
H50   H     H_    0.683115 0.230012 0.402841 0.262702
H51   H     H_    0.725877 0.067273 0.382039 0.157796
C40   C     C_3   0.572090 0.864625 0.332716 -0.287221
C41   C     C_3   0.705360 0.802876 0.338638 -0.256728
C42   C     C_3   0.777515 0.814022 0.253950 -0.964369
H52   H     H_    0.720323 0.776665 0.202123 0.258513
H53   H     H_    0.806964 0.923048 0.239641 0.263277
H54   H     H_    0.862529 0.748501 0.256987 0.243117
H55   H     H_    0.760669 0.851495 0.386780 0.180416
H56   H     H_    0.702474 0.690625 0.355058 0.241709
H57   H     H_    0.512123 0.799577 0.294794 0.176836
H58   H     H_    0.570992 0.944528 0.282455 0.141853
H59   H     H_    0.303845 0.529747 0.076214 0.161736
H60   H     H_    0.420790 0.296621 0.082063 0.154749

loop_
_geom_bond_atom_site_label_1
_geom_bond_atom_site_label_2
_ccdc_geom_bond_type
C20   C37   S    
C1    O2    A    
C37   C38   S    
C33   H29   S    
C23   O7    A    
C39   H45   S    
Cu1   N2    S    
C24   C27   S    
C7    H23   S    
C8    H24   S    
C31   H34   S    
C34   C35   S    
C39   H47   S    
C27   H1    S    
Cu1   O5    S    
C42   H53   S    
C18   H43   S    
Cu2   N1    S    
C5    C6    T    
C11   C31   S    
C19   N2    S    
C35   H39   S    
C40   H57   S    
C18   C19   S    
C20   N1    S    
C3    C29   S    
C9    C13   S    
C17   H10   S    
C31   H35   S    
C32   H33   S    
C19   H44   S    
C8    H26   S    
C24   C29   S    
C11   C15   S    
C26   H2    S    
C15   H5    S    
Cu1   Cu2   S    
C16   C17   S    
C25   H15   S    
C27   H18   S    
Cu2   O6    S    
C34   H41   S    
C24   H59   S    
C27   C30   S    
C33   H30   S    
C23   O8    A    
C1    C12   S    
C1    O1    A    
C41   C42   S    
C4    C28   T    
C5    C29   S    
C25   C29   S    
C7    C12   S    
C42   H54   S    
C19   H14   S    
C24   H16   S    
Cu1   O1    S    
Cu2   O2    S    
C2    H22   S    
C26   H17   S    
C37   H50   S    
C3    H19   S    
Cu2   O8    S    
C25   C26   S    
C2    H21   S    
C11   C34   S    
C40   H58   S    
C9    H27   S    
C17   H8    S    
C10   H28   S    
C15   H6    S    
C32   H32   S    
C17   N2    S    
C6    C14   S    
C21   H12   S    
C36   H36   S    
C38   H49   S    
C8    C12   S    
C14   O4    A    
C23   C28   S    
C22   O6    A    
C21   N2    S    
C34   H42   S    
C36   H37   S    
C26   C30   S    
C13   C15   S    
C33   H31   S    
C16   N1    S    
C18   H13   S    
C20   H11   S    
Cu2   O4    S    
Cu1   O3    S    
C32   C33   S    
C10   C13   S    
C37   H51   S    
C3    H20   S    
C39   H46   S    
C18   N1    S    
C42   H52   S    
C2    C30   S    
C2    C3    S    
C31   C32   S    
C25   H60   S    
C41   H56   S    
C41   H55   S    
C38   H48   S    
C35   H40   S    
C14   O3    A    
C13   C22   S    
C38   C39   S    
C22   O5    A    
C16   H7    S    
C21   C40   S    
C7    C9    S    
Cu1   O7    S    
C36   H38   S    
C20   C21   S    
C8    C10   S    
C35   C36   S    
C40   C41   S    
C9    H3    S    
C10   H4    S    
C16   H9    S    
C7    H25   S    
C4    C30   S    
C11   C12   S    
