data_mof_unit_7048.cif
_audit_creation_date              2012-10-26T18:26:09-0400
_audit_creation_method            fapswitch 2.2
_symmetry_space_group_name_H-M    P1
_symmetry_Int_Tables_number       1
_space_group_crystal_system       triclinic
_cell_length_a                    14.005468
_cell_length_b                    8.807808
_cell_length_c                    7.727304
_cell_angle_alpha                 104.146204
_cell_angle_beta                  93.046551
_cell_angle_gamma                 103.261057
_cell_volume                      893.624661465

loop_
_atom_site_label
_atom_site_type_symbol
_atom_type_description
_atom_site_fract_x
_atom_site_fract_y
_atom_site_fract_z
_atom_type_partial_charge
C1    C     C_R   0.496936 0.199378 0.452212 0.519803
C2    C     C_1   0.870991 0.519742 0.463022 -0.054713
C3    C     C_2   0.495568 0.029991 0.428098 -0.146450
C4    C     C_2   0.504432 0.970009 0.571901 -0.146450
C5    C     C_R   0.388721 0.308594 0.959890 0.199977
C6    C     C_R   0.335470 0.218119 0.071636 -0.065302
C7    C     C_R   0.264601 0.070288 0.010815 -0.156367
C8    C     C_R   0.236504 0.002583 0.830354 -0.100717
C9    C     C_R   0.276589 0.087103 0.712997 -0.165310
C10   C     C_R   0.347377 0.235387 0.775954 -0.075556
C11   C     C_R   0.611278 0.691406 0.040110 0.199977
C12   C     C_R   0.503064 0.800622 0.547788 0.519803
C13   C     C_R   0.664530 0.781881 0.928364 -0.065302
C14   C     C_R   0.735399 0.929712 0.989185 -0.156367
C15   C     C_R   0.763496 0.997417 0.169646 -0.100717
C16   C     C_R   0.723411 0.912897 0.287003 -0.165310
C17   C     C_R   0.652623 0.764613 0.224046 -0.075556
C18   C     C_R   0.319060 0.500576 0.524071 0.521379
C19   C     C_R   0.680939 0.499423 0.475929 0.521379
C20   C     C_1   0.784115 0.508851 0.470613 -0.013200
C21   C     C_1   0.215885 0.491149 0.529387 -0.013199
C22   C     C_2   0.974834 0.534677 0.452129 -0.130501
C23   C     C_2   0.025166 0.465323 0.547871 -0.130501
C24   C     C_1   0.129009 0.480258 0.536978 -0.054713
Cu1   Cu    Cu3+1 0.510540 0.517220 0.682700 0.911057
Cu2   Cu    Cu3+1 0.489460 0.482780 0.317300 0.911057
H1    H     H_    0.988569 0.396405 0.635193 0.134776
H2    H     H_    0.657622 0.750069 0.788698 0.176373
H3    H     H_    0.769371 0.991257 0.893964 0.104960
H4    H     H_    0.818277 0.111691 0.217817 0.131407
H5    H     H_    0.748305 0.961718 0.429475 0.100753
H6    H     H_    0.639848 0.723949 0.336086 0.178834
H7    H     H_    0.011431 0.603595 0.364807 0.134776
H8    H     H_    0.487310 0.954437 0.291394 0.149245
H9    H     H_    0.512690 0.045562 0.708606 0.149245
H10   H     H_    0.342378 0.249931 0.211302 0.176373
H11   H     H_    0.230629 0.008744 0.106036 0.104960
H12   H     H_    0.181722 0.888310 0.782183 0.131407
H13   H     H_    0.251695 0.038282 0.570525 0.100753
H14   H     H_    0.360152 0.276051 0.663914 0.178834
N1    N     N_2   0.473570 0.456830 0.042740 -0.145847
N2    N     N_2   0.526430 0.543170 0.957260 -0.145847
O1    O     O_R   0.506850 0.286020 0.618680 -0.519213
O2    O     O_R   0.493150 0.713980 0.381320 -0.519213
O3    O     O_R   0.489050 0.256940 0.310110 -0.518598
O4    O     O_R   0.510950 0.743060 0.689890 -0.518598
O5    O     O_R   0.372320 0.516630 0.676100 -0.511985
O6    O     O_R   0.627680 0.483370 0.323900 -0.511985
O7    O     O_R   0.354510 0.487550 0.367530 -0.524805
O8    O     O_R   0.645490 0.512450 0.632470 -0.524806

loop_
_geom_bond_atom_site_label_1
_geom_bond_atom_site_label_2
_ccdc_geom_bond_type
Cu1   N2    S    
C2    C22   S    
C23   C24   S    
C13   H2    S    
C6    C7    A    
C23   H1    S    
C8    C9    A    
C4    C12   S    
C18   C21   S    
N1    N2    D    
Cu1   O5    S    
C19   C20   S    
Cu2   O3    S    
Cu2   O6    S    
C18   O5    A    
Cu1   O1    S    
C7    H11   S    
C4    H9    S    
Cu2   O2    S    
C5    C10   A    
C12   O2    A    
C13   C14   A    
C16   H5    S    
C11   C13   A    
C19   O8    A    
C1    O3    A    
C8    H12   S    
C11   N2    S    
C10   H14   S    
C6    H10   S    
C22   C23   D    
C5    C6    A    
Cu2   O7    S    
C7    C8    A    
C14   H3    S    
C2    C20   T    
C3    C4    D    
C9    H13   S    
Cu2   N1    S    
C15   H4    S    
C12   O4    A    
C9    C10   A    
C21   C24   T    
C17   H6    S    
C22   H7    S    
C5    N1    S    
Cu1   O8    S    
C11   C17   A    
C19   O6    A    
C3    H8    S    
Cu1   Cu2   S    
C14   C15   A    
Cu1   O4    S    
C1    O1    A    
C15   C16   A    
C18   O7    A    
C16   C17   A    
C1    C3    S    
