data_mof_unit_63511.cif
_audit_creation_date              2012-12-10T18:44:33-0500
_audit_creation_method            fapswitch 2.2
_symmetry_space_group_name_H-M    P1
_symmetry_Int_Tables_number       1
_space_group_crystal_system       triclinic
_cell_length_a                    12.982649
_cell_length_b                    19.433775
_cell_length_c                    18.12644
_cell_angle_alpha                 90.142221
_cell_angle_beta                  95.796323
_cell_angle_gamma                 90.471572
_cell_volume                      4549.77295657

loop_
_atom_site_label
_atom_site_type_symbol
_atom_type_description
_atom_site_fract_x
_atom_site_fract_y
_atom_site_fract_z
_atom_type_partial_charge
C1    C     C_R   0.499874 0.367374 0.499869 0.893968
C2    C     C_R   0.500126 0.632626 0.500131 0.893968
C3    C     C_R   0.502028 0.852709 0.498694 -0.104158
C4    C     C_R   0.497973 0.147291 0.501306 -0.104158
C5    C     C_R   0.505242 0.817558 0.566098 -0.273134
C6    C     C_R   0.494756 0.182442 0.433902 -0.273134
C7    C     C_R   0.504727 0.745915 0.567265 0.636052
C8    C     C_R   0.495271 0.254085 0.432735 0.636053
C9    C     C_R   0.500362 0.708410 0.500305 -0.262466
C10   C     C_R   0.499638 0.291590 0.499695 -0.262465
C11   C     C_R   0.416424 0.962297 0.522152 -0.225549
C12   C     C_R   0.583576 0.037703 0.477848 -0.225548
C13   C     C_R   0.413659 0.033965 0.523252 0.345172
C14   C     C_R   0.586341 0.966035 0.476748 0.345172
C15   C     C_R   0.498002 0.071935 0.501258 0.043545
C16   C     C_R   0.501998 0.928065 0.498742 0.043544
C17   C     C_R   0.436344 0.455824 0.716512 0.731997
C18   C     C_R   0.563653 0.544177 0.283488 0.732001
C19   C     C_R   0.435606 0.454687 0.793964 0.529940
C20   C     C_R   0.564392 0.545314 0.206036 0.529945
C21   C     C_R   0.501525 0.498955 0.838765 -0.085347
C22   C     C_R   0.498476 0.501045 0.161235 -0.085346
C23   C     C_R   0.300589 0.501900 0.486388 0.897924
C24   C     C_R   0.699411 0.498100 0.513612 0.897924
C25   C     C_R   0.565308 0.544546 0.803606 -0.309843
C26   C     C_R   0.434696 0.455453 0.196394 -0.309849
C27   C     C_R   0.563766 0.544018 0.725917 0.032384
C28   C     C_R   0.436237 0.455980 0.274083 0.032379
C29   C     C_R   0.472586 0.558389 0.958018 -0.236491
C30   C     C_R   0.527416 0.441611 0.041981 -0.236491
C31   C     C_R   0.469770 0.559793 0.035405 0.342929
C32   C     C_R   0.530232 0.440207 0.964595 0.342926
C33   C     C_R   0.497923 0.501111 0.078510 0.065158
C34   C     C_R   0.502078 0.498889 0.921490 0.065157
C35   C     C_R   0.811586 0.492741 0.521094 -0.245609
C36   C     C_R   0.188414 0.507258 0.478906 -0.245609
C37   C     C_R   0.030163 0.560320 0.425633 -0.093266
C38   C     C_R   0.969837 0.439679 0.574367 -0.093264
C39   C     C_R   0.136897 0.553000 0.427692 0.166383
C40   C     C_R   0.863103 0.447000 0.572307 0.166383
C41   C     C_R   0.132622 0.469122 0.527223 0.594419
C42   C     C_R   0.867378 0.530878 0.472777 0.594418
C43   C     C_R   0.025807 0.477006 0.525588 -0.106677
C44   C     C_R   0.974192 0.522994 0.474411 -0.106677
C45   C     C_R   0.496081 0.744174 0.432735 -0.251273
C46   C     C_R   0.503920 0.255826 0.567265 -0.251275
C47   C     C_R   0.496593 0.815857 0.431854 0.715694
C48   C     C_R   0.503409 0.184143 0.568146 0.715695
Cu1   Cu    Cu3+1 0.499970 0.500000 0.573360 1.089173
Cu2   Cu    Cu3+1 0.500030 0.500000 0.426640 1.089173
H1    H     H_    0.616607 0.579865 0.836094 0.213337
H2    H     H_    0.383400 0.420132 0.163906 0.213339
H3    H     H_    0.613821 0.578905 0.699421 0.202873
H4    H     H_    0.386184 0.421092 0.300579 0.202878
H5    H     H_    0.449816 0.603728 0.925957 0.200554
H6    H     H_    0.550188 0.396272 0.074043 0.200554
H7    H     H_    0.991500 0.596037 0.386466 0.247701
H8    H     H_    0.008499 0.403962 0.613532 0.247701
H9    H     H_    0.491953 0.716756 0.380407 0.243657
H10   H     H_    0.508050 0.283243 0.619592 0.243655
H11   H     H_    0.508802 0.845830 0.617909 0.214696
H12   H     H_    0.491195 0.154169 0.382091 0.214696
H13   H     H_    0.351237 0.933091 0.538831 0.197426
H14   H     H_    0.648763 0.066909 0.461169 0.197426
N1    N     N_R   0.499990 0.500020 0.683620 -0.279136
N2    N     N_R   0.500010 0.499980 0.316380 -0.279137
O1    O     O_R   0.499960 0.400180 0.561970 -0.539225
O2    O     O_R   0.500040 0.599820 0.438030 -0.539224
O3    O     O_R   0.500010 0.400190 0.438070 -0.550642
O4    O     O_R   0.499990 0.599810 0.561930 -0.550641
O5    O     O_R   0.348980 0.499990 0.551890 -0.508687
O6    O     O_R   0.651020 0.500010 0.448110 -0.508688
O7    O     O_R   0.349030 0.499990 0.427990 -0.580998
O8    O     O_R   0.650970 0.500010 0.572010 -0.580998
F1    F     F_    0.817519 0.575960 0.424483 -0.588547
F2    F     F_    0.182480 0.424041 0.575518 -0.588545
F3    F     F_    0.372892 0.412348 0.674333 -0.548481
F4    F     F_    0.627103 0.587654 0.325667 -0.548485
F5    F     F_    0.369696 0.411352 0.824880 -0.566390
F6    F     F_    0.630300 0.588649 0.175120 -0.566392
Br1   Br    Br    0.421293 0.641977 0.079001 -0.309237
Br2   Br    Br    0.578711 0.358023 0.920999 -0.309239
Br3   Br    Br    0.791610 0.389270 0.636864 -0.400989
Br4   Br    Br    0.208389 0.610728 0.363134 -0.400988
F7    F     F_    0.490700 0.849301 0.365912 -0.584736
F8    F     F_    0.509304 0.150699 0.634088 -0.584736
F9    F     F_    0.508852 0.713828 0.633926 -0.631553
F10   F     F_    0.491144 0.286172 0.366074 -0.631556
Br5   Br    Br    0.291654 0.077541 0.552012 -0.322547
Br6   Br    Br    0.708347 0.922459 0.447989 -0.322545

loop_
_geom_bond_atom_site_label_1
_geom_bond_atom_site_label_2
_ccdc_geom_bond_type
C38   C40   A    
C9    C45   A    
C11   H13   S    
C42   F1    S    
Cu1   N1    S    
C47   F7    S    
C19   C21   A    
Cu2   O3    S    
C39   Br4   S    
C2    O2    A    
C12   H14   S    
C35   C42   A    
Cu2   O6    S    
C14   Br6   S    
C1    O1    A    
C38   H8    S    
C7    F9    S    
C10   C46   A    
C31   C33   A    
C13   Br5   S    
C41   C43   A    
C40   Br3   S    
C36   C41   A    
C42   C44   A    
C23   O7    A    
C45   C47   A    
C46   C48   A    
C24   C35   S    
C20   F6    S    
C23   O5    A    
C4    C6    A    
Cu2   O7    S    
C5    C7    A    
C28   H4    S    
C48   F8    S    
C6    C8    A    
C21   C34   S    
C29   H5    S    
C30   H6    S    
C29   C34   A    
C1    O3    A    
C8    F10   S    
C32   C34   A    
C28   N2    A    
C43   C44   A    
C25   H1    S    
C27   N1    A    
C26   H2    S    
C11   C16   A    
C12   C15   A    
C18   F4    S    
C17   F3    S    
C5    H11   S    
C19   F5    S    
Cu2   N2    S    
C8    C10   A    
C12   C14   A    
Cu1   Cu2   S    
Cu1   O4    S    
C13   C15   A    
Cu1   O5    S    
C14   C16   A    
C18   N2    A    
C24   O6    A    
C4    C48   A    
C7    C9    A    
C22   C33   S    
C21   C25   A    
C45   H9    S    
Cu1   O1    S    
C30   C33   A    
C46   H10   S    
C26   C28   A    
C36   C39   A    
C1    C10   S    
C20   C22   A    
C3    C5    A    
C27   H3    S    
C25   C27   A    
C32   Br2   S    
C17   N1    A    
C31   Br1   S    
C6    H12   S    
C37   C44   A    
C35   C40   A    
C38   C43   A    
C37   C39   A    
C41   F2    S    
C30   C32   A    
C11   C13   A    
C24   O8    A    
C4    C15   S    
C3    C47   A    
C17   C19   A    
C18   C20   A    
C29   C31   A    
C23   C36   S    
C22   C26   A    
Cu1   O8    S    
C2    O4    A    
C2    C9    S    
Cu2   O2    S    
C37   H7    S    
C3    C16   S    
