data_mof_unit_63226.cif
_audit_creation_date              2012-12-10T19:38:54-0500
_audit_creation_method            fapswitch 2.2
_symmetry_space_group_name_H-M    P1
_symmetry_Int_Tables_number       1
_space_group_crystal_system       triclinic
_cell_length_a                    25.900452
_cell_length_b                    43.192149
_cell_length_c                    25.124387
_cell_angle_alpha                 89.999118
_cell_angle_beta                  121.016983
_cell_angle_gamma                 90.001927
_cell_volume                      24087.7286997

loop_
_atom_site_label
_atom_site_type_symbol
_atom_type_description
_atom_site_fract_x
_atom_site_fract_y
_atom_site_fract_z
_atom_type_partial_charge
C1    C     C_R   0.360221 0.749631 0.000644 0.786641
C2    C     C_R   0.639786 0.250364 0.999367 0.789804
C3    C     C_R   0.639784 0.749638 0.999365 0.786624
C4    C     C_R   0.360213 0.250361 0.000631 0.789809
C5    C     C_R   0.860218 0.249635 0.000638 0.786610
C6    C     C_R   0.139782 0.750369 0.999359 0.789808
C7    C     C_R   0.139784 0.249638 0.999366 0.786596
C8    C     C_R   0.860214 0.750362 0.000631 0.789780
C9    C     C_R   0.500001 0.967456 1.000000 0.103462
C10   C     C_R   0.500000 0.032544 0.000001 0.103475
C11   C     C_R   0.000000 0.467456 0.999999 0.103456
C12   C     C_R   1.000000 0.532544 0.000000 0.103469
C13   C     C_R   0.500013 0.532555 0.999985 0.102851
C14   C     C_R   0.500005 0.467444 0.999994 0.102953
C15   C     C_R   0.999993 0.032555 0.000008 0.102852
C16   C     C_R   0.999985 0.967445 0.000017 0.102949
C17   C     C_R   0.622384 0.651903 0.959777 -0.119725
C18   C     C_R   0.377532 0.348120 0.040048 -0.120692
C19   C     C_R   0.377084 0.651768 0.039475 -0.119450
C20   C     C_R   0.622693 0.348176 0.960238 -0.120595
C21   C     C_R   0.122344 0.151912 0.959730 -0.119715
C22   C     C_R   0.877506 0.848124 0.040005 -0.120674
C23   C     C_R   0.877458 0.151860 0.040003 -0.119663
C24   C     C_R   0.123024 0.848259 0.960724 -0.120412
C25   C     C_R   0.644922 0.681139 0.958517 -0.128397
C26   C     C_R   0.355034 0.318881 0.041363 -0.131365
C27   C     C_R   0.354715 0.681016 0.040963 -0.128263
C28   C     C_R   0.645124 0.318932 0.958837 -0.131343
C29   C     C_R   0.144887 0.181148 0.958487 -0.128346
C30   C     C_R   0.855015 0.818886 0.041331 -0.131348
C31   C     C_R   0.854976 0.181101 0.041324 -0.128322
C32   C     C_R   0.145351 0.819008 0.959176 -0.131256
C33   C     C_R   0.702233 0.690406 0.006796 0.136626
C34   C     C_R   0.297718 0.309595 0.993124 0.136858
C35   C     C_R   0.297486 0.690412 0.992717 0.136780
C36   C     C_R   0.702400 0.309592 0.007074 0.136904
C37   C     C_R   0.202213 0.190404 0.006756 0.136596
C38   C     C_R   0.797702 0.809594 0.993095 0.136858
C39   C     C_R   0.797680 0.190404 0.993065 0.136698
C40   C     C_R   0.202576 0.809588 0.007390 0.137039
C41   C     C_R   0.736765 0.669784 0.055830 -0.138470
C42   C     C_R   0.263141 0.330203 0.944074 -0.136410
C43   C     C_R   0.262869 0.669908 0.943474 -0.138470
C44   C     C_R   0.737003 0.330150 0.056215 -0.136343
C45   C     C_R   0.236753 0.169768 0.055762 -0.138448
C46   C     C_R   0.763121 0.830197 0.944039 -0.136394
C47   C     C_R   0.763106 0.169809 0.943986 -0.138518
C48   C     C_R   0.237234 0.830071 0.056661 -0.136366
C49   C     C_R   0.714088 0.640540 0.056801 -0.141093
C50   C     C_R   0.285778 0.359449 0.943050 -0.142620
C51   C     C_R   0.285379 0.640653 0.942273 -0.141091
C52   C     C_R   0.714433 0.359401 0.057328 -0.142582
C53   C     C_R   0.214070 0.140524 0.056715 -0.141078
C54   C     C_R   0.785750 0.859444 0.943004 -0.142589
C55   C     C_R   0.785727 0.140560 0.942953 -0.141109
C56   C     C_R   0.214767 0.859329 0.057922 -0.142608
C57   C     C_R   0.657019 0.631593 0.008772 -0.106996
C58   C     C_R   0.342852 0.368415 0.991038 -0.106231
C59   C     C_R   0.342361 0.631575 0.990278 -0.107156
C60   C     C_R   0.657401 0.368422 0.009337 -0.106303
C61   C     C_R   0.156987 0.131588 0.008698 -0.107030
C62   C     C_R   0.842822 0.868415 0.990988 -0.106240
C63   C     C_R   0.842780 0.131578 0.990964 -0.107063
C64   C     C_R   0.157787 0.868431 0.009949 -0.106386
C65   C     C_R   0.281710 0.222597 0.007689 -0.244696
C66   C     C_R   0.718264 0.777400 0.992267 -0.246980
C67   C     C_R   0.718243 0.222603 0.992228 -0.244741
C68   C     C_R   0.281857 0.777381 0.007960 -0.247009
C69   C     C_R   0.781721 0.722598 0.007710 -0.244732
C70   C     C_R   0.218271 0.277401 0.992282 -0.246978
C71   C     C_R   0.218159 0.722617 0.992067 -0.244757
C72   C     C_R   0.781780 0.277392 0.007810 -0.246951
C73   C     C_R   0.304685 0.250882 0.001820 -0.044474
C74   C     C_R   0.695304 0.749117 0.998163 -0.045206
C75   C     C_R   0.695317 0.250885 0.998184 -0.044513
C76   C     C_R   0.304697 0.749108 0.001839 -0.045329
C77   C     C_R   0.804686 0.750882 0.001822 -0.044481
C78   C     C_R   0.195303 0.249117 0.998161 -0.045184
C79   C     C_R   0.195314 0.750891 0.998178 -0.044605
C80   C     C_R   0.804698 0.249112 0.001841 -0.045242
C81   C     C_R   0.416028 0.749930 0.831918 0.777194
C82   C     C_R   0.584042 0.250029 0.168088 0.776751
C83   C     C_R   0.583971 0.749930 0.168082 0.777218
C84   C     C_R   0.415952 0.250026 0.831907 0.776916
C85   C     C_R   0.916029 0.249930 0.831917 0.777217
C86   C     C_R   0.084043 0.750028 0.168089 0.776781
C87   C     C_R   0.083972 0.249931 0.168077 0.777008
C88   C     C_R   0.915958 0.750029 0.831913 0.776730
C89   C     C_R   0.273205 0.278745 0.994739 0.001019
C90   C     C_R   0.726779 0.721255 0.005236 0.000504
C91   C     C_R   0.726850 0.278741 0.005358 0.000967
C92   C     C_R   0.273095 0.721262 0.994535 0.000394
C93   C     C_R   0.773197 0.778744 0.994725 0.001031
C94   C     C_R   0.226767 0.221253 0.005215 0.000532
C95   C     C_R   0.226929 0.778736 0.005507 0.000916
C96   C     C_R   0.773184 0.221254 0.994699 0.000477
C97   C     C_R   0.549053 0.384585 0.047212 -0.203140
C98   C     C_R   0.450956 0.615414 0.952776 -0.199644
C99   C     C_R   0.450945 0.384584 0.952794 -0.203101
C100  C     C_R   0.549065 0.615415 0.047192 -0.199482
C101  C     C_R   0.049035 0.884585 0.047236 -0.203208
C102  C     C_R   0.950927 0.115413 0.952814 -0.199546
C103  C     C_R   0.950943 0.884584 0.952797 -0.203052
C104  C     C_R   0.049073 0.115415 0.047183 -0.199512
C105  C     C_R   0.500000 0.368189 0.000003 -0.001327
C106  C     C_R   0.500006 0.631810 0.999989 -0.004622
C107  C     C_R   0.999994 0.868189 0.000011 -0.001334
C108  C     C_R   1.000000 0.131810 0.999998 -0.004645
C109  C     C_R   0.864146 0.720147 0.733847 -0.186569
C110  C     C_R   0.083186 0.247603 0.266105 -0.189520
C111  C     C_R   0.135746 0.720143 0.266159 -0.186555
C112  C     C_R   0.916826 0.247927 0.733863 -0.189486
C113  C     C_R   0.364699 0.220138 0.733812 -0.186536
C114  C     C_R   0.583174 0.747953 0.266139 -0.189483
C115  C     C_R   0.635814 0.220146 0.266156 -0.186541
C116  C     C_R   0.416827 0.747890 0.733868 -0.189495
C117  C     C_R   0.827779 0.718792 0.669373 -0.147524
C118  C     C_R   0.113251 0.245127 0.330590 -0.146378
C119  C     C_R   0.172110 0.718783 0.330632 -0.147541
C120  C     C_R   0.886800 0.245462 0.669380 -0.146494
C121  C     C_R   0.328353 0.218761 0.669340 -0.147660
C122  C     C_R   0.613196 0.745487 0.330622 -0.146525
C123  C     C_R   0.672180 0.218790 0.330629 -0.147507
C124  C     C_R   0.386797 0.745422 0.669385 -0.146503
C125  C     C_R   0.808394 0.746148 0.634138 0.164073
C126  C     C_R   0.176516 0.244717 0.365831 0.162246
C127  C     C_R   0.191605 0.746137 0.365867 0.164075
C128  C     C_R   0.823547 0.244735 0.634150 0.162386
C129  C     C_R   0.308414 0.246105 0.634117 0.164196
C130  C     C_R   0.676447 0.744734 0.365851 0.162412
C131  C     C_R   0.691606 0.246146 0.365864 0.164054
C132  C     C_R   0.323542 0.744730 0.634153 0.162384
C133  C     C_R   0.826646 0.774881 0.664626 -0.107706
C134  C     C_R   0.209110 0.247170 0.335339 -0.107421
C135  C     C_R   0.173468 0.774874 0.335377 -0.107780
C136  C     C_R   0.790920 0.246856 0.664651 -0.107522
C137  C     C_R   0.326086 0.274854 0.664616 -0.107888
C138  C     C_R   0.709077 0.746829 0.335349 -0.107542
C139  C     C_R   0.673397 0.274880 0.335375 -0.107732
C140  C     C_R   0.290917 0.746891 0.664651 -0.107520
C141  C     C_R   0.861136 0.776221 0.729318 -0.184910
C142  C     C_R   0.178961 0.248449 0.270649 -0.182223
C143  C     C_R   0.138978 0.776216 0.270685 -0.184925
C144  C     C_R   0.821052 0.248129 0.729341 -0.182188
C145  C     C_R   0.360567 0.276203 0.729308 -0.184856
C146  C     C_R   0.678946 0.748101 0.270659 -0.182198
C147  C     C_R   0.638906 0.276220 0.270683 -0.184913
C148  C     C_R   0.321051 0.748165 0.729341 -0.182208
C149  C     C_R   0.880242 0.748846 0.764110 0.010591
C150  C     C_R   0.115900 0.248831 0.235862 0.009260
C151  C     C_R   0.119760 0.748844 0.235894 0.010480
C152  C     C_R   0.884106 0.248830 0.764124 0.008733
C153  C     C_R   0.380233 0.248840 0.764094 0.010051
C154  C     C_R   0.615894 0.748829 0.235876 0.008705
C155  C     C_R   0.619758 0.248846 0.235892 0.010546
C156  C     C_R   0.384105 0.748830 0.764126 0.008801
C157  C     C_R   0.718986 0.763135 0.530708 -0.001950
C158  C     C_R   0.257489 0.222568 0.469273 -0.001048
C159  C     C_R   0.281082 0.763070 0.469294 -0.001948
C160  C     C_R   0.743012 0.222377 0.530711 -0.001039
C161  C     C_R   0.218650 0.262806 0.530689 -0.002024
C162  C     C_R   0.756945 0.722361 0.469291 -0.001005
C163  C     C_R   0.781039 0.263114 0.469294 -0.001971
C164  C     C_R   0.242952 0.722396 0.530714 -0.001031
C165  C     C_R   0.500001 0.665846 0.999997 0.780928
C166  C     C_R   0.500000 0.334154 0.000001 0.776556
C167  C     C_R   1.000000 0.165846 0.999999 0.780953
C168  C     C_R   0.999999 0.834154 0.000003 0.776486
C169  C     C_R   0.689805 0.762822 0.465762 -0.243733
C170  C     C_R   0.289418 0.224573 0.534210 -0.244541
C171  C     C_R   0.310261 0.762763 0.534240 -0.243728
C172  C     C_R   0.711040 0.224386 0.465774 -0.244464
C173  C     C_R   0.189477 0.262518 0.465742 -0.243707
C174  C     C_R   0.788922 0.724371 0.534228 -0.244514
C175  C     C_R   0.810219 0.262802 0.534239 -0.243702
C176  C     C_R   0.210985 0.724405 0.465776 -0.244515
C177  C     C_R   0.708174 0.742855 0.434499 -0.006574
C178  C     C_R   0.270983 0.244499 0.565474 -0.006827
C179  C     C_R   0.291808 0.742845 0.565505 -0.006555
C180  C     C_R   0.729073 0.244557 0.434508 -0.006813
C181  C     C_R   0.208278 0.242817 0.434479 -0.006538
C182  C     C_R   0.770923 0.744560 0.565493 -0.006815
C183  C     C_R   0.791817 0.242854 0.565502 -0.006563
C184  C     C_R   0.229068 0.744545 0.434510 -0.006809
C185  C     C_R   0.549064 0.416854 0.047204 -0.197428
C186  C     C_R   0.450950 0.583145 0.952778 -0.196287
C187  C     C_R   0.450936 0.416853 0.952798 -0.197455
C188  C     C_R   0.549078 0.583147 0.047182 -0.196345
C189  C     C_R   0.049041 0.916854 0.047233 -0.197397
C190  C     C_R   0.950916 0.083145 0.952822 -0.196321
C191  C     C_R   0.950928 0.916852 0.952809 -0.197459
C192  C     C_R   0.049080 0.083146 0.047180 -0.196333
C193  C     C_R   0.500001 0.433271 0.999999 0.120312
C194  C     C_R   0.500015 0.566728 0.999980 0.119151
C195  C     C_R   0.999984 0.933271 0.000021 0.120359
C196  C     C_R   0.999997 0.066728 0.000003 0.119095
C197  C     C_R   0.479955 0.483860 0.944481 -0.182077
C198  C     C_R   0.520063 0.516139 0.055497 -0.181515
C199  C     C_R   0.520058 0.483865 0.055502 -0.182093
C200  C     C_R   0.479959 0.516134 0.944477 -0.181561
C201  C     C_R   0.979925 0.983862 0.944503 -0.182060
C202  C     C_R   0.020055 0.016140 0.055523 -0.181533
C203  C     C_R   0.020050 0.983866 0.055527 -0.182101
C204  C     C_R   0.979927 0.016135 0.944498 -0.181549
C205  C     C_R   0.500000 0.834112 1.000000 0.785046
C206  C     C_R   0.500000 0.165888 0.000000 0.784004
C207  C     C_R   0.000000 0.334112 1.000000 0.785019
C208  C     C_R   1.000000 0.665888 0.000000 0.783985
C209  C     C_R   0.514055 0.115389 0.960854 -0.186995
C210  C     C_R   0.485886 0.884613 0.039101 -0.185432
C211  C     C_R   0.485945 0.115387 0.039148 -0.186986
C212  C     C_R   0.514114 0.884614 0.960897 -0.185443
C213  C     C_R   0.013978 0.615388 0.960796 -0.186980
C214  C     C_R   0.985963 0.384614 0.039160 -0.185444
C215  C     C_R   0.986021 0.615386 0.039207 -0.186996
C216  C     C_R   0.014037 0.384615 0.960837 -0.185443
C217  C     C_R   0.514039 0.083119 0.960854 -0.178043
C218  C     C_R   0.485906 0.916883 0.039104 -0.178035
C219  C     C_R   0.485961 0.083117 0.039149 -0.178034
C220  C     C_R   0.514095 0.916885 0.960894 -0.178044
C221  C     C_R   0.013960 0.583118 0.960794 -0.178038
C222  C     C_R   0.985985 0.416884 0.039164 -0.178051
C223  C     C_R   0.986040 0.583116 0.039208 -0.178044
C224  C     C_R   0.014015 0.416886 0.960833 -0.178046
C225  C     C_R   0.500000 0.066707 0.000001 0.113484
C226  C     C_R   0.500001 0.933294 0.999999 0.112939
C227  C     C_R   1.000000 0.566707 0.000001 0.113464
C228  C     C_R   1.000000 0.433295 0.999999 0.112928
C229  C     C_R   0.500000 0.131811 0.000001 -0.005928
C230  C     C_R   0.500000 0.868190 0.999999 -0.006840
C231  C     C_R   1.000000 0.631810 0.000001 -0.005944
C232  C     C_R   0.000000 0.368191 0.999999 -0.006846
C233  C     C_R   0.525280 0.016133 0.056181 -0.178940
C234  C     C_R   0.474723 0.983866 0.943820 -0.178874
C235  C     C_R   0.474721 0.016133 0.943820 -0.178937
C236  C     C_R   0.525278 0.983866 0.056180 -0.178870
C237  C     C_R   0.025380 0.516133 0.056188 -0.178942
C238  C     C_R   0.974622 0.483866 0.943812 -0.178873
C239  C     C_R   0.974619 0.516134 0.943812 -0.178943
C240  C     C_R   0.025378 0.483866 0.056187 -0.178884
H1    H     H_    0.587495 0.372490 0.084139 0.165053
H2    H     H_    0.412513 0.627509 0.915850 0.167642
H3    H     H_    0.412502 0.372488 0.915868 0.165023
H4    H     H_    0.587508 0.627511 0.084119 0.167659
H5    H     H_    0.087470 0.872489 0.084171 0.165030
H6    H     H_    0.912469 0.127508 0.915907 0.167672
H7    H     H_    0.912509 0.872487 0.915861 0.165062
H8    H     H_    0.087532 0.127511 0.084088 0.167696
H9    H     H_    0.781062 0.676416 0.093394 0.131490
H10   H     H_    0.218839 0.323557 0.906541 0.131864
H11   H     H_    0.218633 0.676639 0.905931 0.131502
H12   H     H_    0.781276 0.323464 0.093749 0.131898
H13   H     H_    0.281060 0.176391 0.093317 0.131515
H14   H     H_    0.718821 0.823546 0.906509 0.131875
H15   H     H_    0.718819 0.176465 0.906436 0.131487
H16   H     H_    0.281470 0.823322 0.094179 0.131876
H17   H     H_    0.740824 0.624782 0.094747 0.132500
H18   H     H_    0.259005 0.375195 0.905093 0.132257
H19   H     H_    0.258576 0.624986 0.904167 0.132541
H20   H     H_    0.741226 0.375109 0.095355 0.132287
H21   H     H_    0.240813 0.124756 0.094640 0.132507
H22   H     H_    0.758974 0.875186 0.905042 0.132271
H23   H     H_    0.758957 0.124823 0.904972 0.132507
H24   H     H_    0.241603 0.874979 0.096049 0.132304
H25   H     H_    0.878415 0.698801 0.760246 0.145620
H26   H     H_    0.034378 0.247741 0.239684 0.145109
H27   H     H_    0.121392 0.698799 0.239763 0.145705
H28   H     H_    0.965628 0.248311 0.760269 0.145567
H29   H     H_    0.379393 0.198797 0.760193 0.146063
H30   H     H_    0.534373 0.748358 0.239735 0.145607
H31   H     H_    0.621514 0.198801 0.239758 0.145658
H32   H     H_    0.465630 0.748246 0.760277 0.145514
H33   H     H_    0.814409 0.696366 0.647024 0.137951
H34   H     H_    0.087086 0.243304 0.352942 0.140029
H35   H     H_    0.185390 0.696355 0.352983 0.137950
H36   H     H_    0.912988 0.243896 0.647019 0.140070
H37   H     H_    0.315436 0.196324 0.646981 0.137969
H38   H     H_    0.587006 0.743942 0.352984 0.140063
H39   H     H_    0.685516 0.196364 0.352980 0.137955
H40   H     H_    0.412985 0.743827 0.647027 0.140055
H41   H     H_    0.813800 0.796266 0.638378 0.126917
H42   H     H_    0.257876 0.247847 0.361584 0.128917
H43   H     H_    0.186401 0.796260 0.361623 0.126927
H44   H     H_    0.742144 0.247281 0.638412 0.128959
H45   H     H_    0.312800 0.296241 0.638376 0.126933
H46   H     H_    0.757852 0.747233 0.361587 0.128941
H47   H     H_    0.686275 0.296265 0.361622 0.126929
H48   H     H_    0.242142 0.747345 0.638411 0.128924
H49   H     H_    0.873792 0.798556 0.752163 0.138612
H50   H     H_    0.204746 0.249689 0.247798 0.142089
H51   H     H_    0.126410 0.798553 0.247840 0.138690
H52   H     H_    0.795249 0.249116 0.752195 0.142494
H53   H     H_    0.372779 0.298544 0.752155 0.139058
H54   H     H_    0.704749 0.749069 0.247805 0.142523
H55   H     H_    0.626282 0.298555 0.247838 0.138639
H56   H     H_    0.295248 0.749181 0.752193 0.142430
H57   H     H_    0.651663 0.778042 0.439076 0.176437
H58   H     H_    0.328745 0.210080 0.560892 0.176019
H59   H     H_    0.348466 0.777948 0.560924 0.176420
H60   H     H_    0.672004 0.209707 0.439092 0.176036
H61   H     H_    0.151009 0.277545 0.439056 0.176446
H62   H     H_    0.827934 0.709678 0.560910 0.176021
H63   H     H_    0.848386 0.278009 0.560924 0.176430
H64   H     H_    0.171912 0.709749 0.439096 0.176020
H65   H     H_    0.587786 0.428977 0.083684 0.133098
H66   H     H_    0.412229 0.571022 0.916295 0.133753
H67   H     H_    0.412215 0.428975 0.916316 0.133098
H68   H     H_    0.587802 0.571025 0.083662 0.133805
H69   H     H_    0.087758 0.928976 0.083723 0.133049
H70   H     H_    0.912180 0.071021 0.916360 0.133799
H71   H     H_    0.912209 0.928974 0.916321 0.133102
H72   H     H_    0.087814 0.071023 0.083644 0.133823
H73   H     H_    0.525242 0.127448 0.930320 0.159967
H74   H     H_    0.474650 0.872554 0.069597 0.161044
H75   H     H_    0.474758 0.127446 0.069683 0.159996
H76   H     H_    0.525350 0.872556 0.930400 0.161042
H77   H     H_    0.025103 0.627448 0.930214 0.160001
H78   H     H_    0.974790 0.372555 0.069704 0.161062
H79   H     H_    0.974896 0.627445 0.069789 0.159992
H80   H     H_    0.025210 0.372557 0.930293 0.161050
H81   H     H_    0.525749 0.070985 0.930799 0.132633
H82   H     H_    0.474155 0.929018 0.069126 0.132939
H83   H     H_    0.474252 0.070983 0.069204 0.132646
H84   H     H_    0.525846 0.929020 0.930872 0.132933
H85   H     H_    0.025607 0.570984 0.930690 0.132661
H86   H     H_    0.974298 0.429019 0.069235 0.132950
H87   H     H_    0.974393 0.570981 0.069312 0.132654
H88   H     H_    0.025702 0.429022 0.930762 0.132948
H89   H     H_    0.465118 0.471728 0.901228 0.133203
H90   H     H_    0.534899 0.528271 0.098750 0.134099
H91   H     H_    0.534892 0.471736 0.098758 0.133216
H92   H     H_    0.465125 0.528263 0.901220 0.134079
H93   H     H_    0.965081 0.971730 0.901247 0.133217
H94   H     H_    0.034904 0.028272 0.098778 0.134096
H95   H     H_    0.034892 0.971738 0.098785 0.133201
H96   H     H_    0.965081 0.028265 0.901240 0.134102
H97   H     H_    0.545851 0.028263 0.100166 0.133884
H98   H     H_    0.454157 0.971735 0.899836 0.134136
H99   H     H_    0.454149 0.028264 0.899835 0.133880
H100  H     H_    0.545845 0.971734 0.100164 0.134138
H101  H     H_    0.046028 0.528264 0.100177 0.133888
H102  H     H_    0.953978 0.471734 0.899825 0.134149
H103  H     H_    0.953971 0.528265 0.899824 0.133893
H104  H     H_    0.046022 0.471733 0.100174 0.134138
H105  H     H_    0.639700 0.608890 0.009458 0.137086
H106  H     H_    0.360141 0.391120 0.990310 0.136814
H107  H     H_    0.359546 0.608862 0.989416 0.136943
H108  H     H_    0.640166 0.391131 0.010131 0.136760
H109  H     H_    0.139663 0.108885 0.009370 0.137091
H110  H     H_    0.860105 0.891120 0.990251 0.136812
H111  H     H_    0.860054 0.108871 0.990231 0.137031
H112  H     H_    0.140635 0.891146 0.010856 0.136676
H113  H     H_    0.578157 0.644940 0.922644 0.125829
H114  H     H_    0.421765 0.355097 0.077150 0.122482
H115  H     H_    0.421246 0.644705 0.076589 0.125875
H116  H     H_    0.578492 0.355194 0.923135 0.122528
H117  H     H_    0.078105 0.144958 0.922605 0.125831
H118  H     H_    0.921736 0.855106 0.077104 0.122487
H119  H     H_    0.921674 0.144872 0.077122 0.125806
H120  H     H_    0.078862 0.855341 0.923635 0.122565
H121  H     H_    0.617868 0.696485 0.919837 0.102193
H122  H     H_    0.382122 0.303548 0.080055 0.101909
H123  H     H_    0.381830 0.696270 0.079796 0.102140
H124  H     H_    0.618019 0.303637 0.920079 0.101907
H125  H     H_    0.117827 0.196503 0.919826 0.102185
H126  H     H_    0.882105 0.803556 0.080028 0.101894
H127  H     H_    0.882061 0.196424 0.080039 0.102102
H128  H     H_    0.118206 0.803772 0.920322 0.101814
O1    O     O_3   0.500000 0.749970 0.000000 -0.478010
O2    O     O_3   0.500000 0.250030 0.000000 -0.477939
O3    O     O_3   1.000000 0.249970 0.000000 -0.478044
O4    O     O_3   0.000000 0.750030 0.000000 -0.477961
O5    O     O_R   0.402360 0.768140 0.036330 -0.647456
O6    O     O_R   0.597640 0.231860 0.963670 -0.646475
O7    O     O_R   0.597640 0.768140 0.963670 -0.647435
O8    O     O_R   0.402360 0.231860 0.036330 -0.646457
O9    O     O_R   0.902360 0.268140 0.036330 -0.647410
O10   O     O_R   0.097640 0.731860 0.963670 -0.646478
O11   O     O_R   0.097640 0.268140 0.963670 -0.647439
O12   O     O_R   0.902360 0.731860 0.036330 -0.646469
O13   O     O_R   0.400350 0.731780 0.861400 -0.635333
O14   O     O_R   0.599650 0.268220 0.138600 -0.634811
O15   O     O_R   0.599650 0.731780 0.138600 -0.635369
O16   O     O_R   0.400350 0.268220 0.861400 -0.634959
O17   O     O_R   0.900350 0.231780 0.861400 -0.635351
O18   O     O_R   0.099650 0.768220 0.138600 -0.634818
O19   O     O_R   0.099650 0.231780 0.138600 -0.635208
O20   O     O_R   0.900350 0.768220 0.861400 -0.634798
O21   O     O_R   0.451490 0.680670 0.963650 -0.637068
O22   O     O_R   0.548510 0.319330 0.036350 -0.639494
O23   O     O_R   0.548510 0.680670 0.036350 -0.637030
O24   O     O_R   0.451490 0.319330 0.963650 -0.639504
O25   O     O_R   0.951490 0.180670 0.963650 -0.637065
O26   O     O_R   0.048510 0.819330 0.036350 -0.639508
O27   O     O_R   0.048510 0.180670 0.036350 -0.637043
O28   O     O_R   0.951490 0.819330 0.963650 -0.639467
O29   O     O_R   0.487790 0.819270 0.036340 -0.645148
O30   O     O_R   0.512210 0.180730 0.963660 -0.646599
O31   O     O_R   0.512210 0.819270 0.963660 -0.645153
O32   O     O_R   0.487790 0.180730 0.036340 -0.646578
O33   O     O_R   0.987790 0.319270 0.036340 -0.645144
O34   O     O_R   0.012210 0.680730 0.963660 -0.646573
O35   O     O_R   0.012210 0.319270 0.963660 -0.645153
O36   O     O_R   0.987790 0.680730 0.036340 -0.646584
O37   O     O_R   0.461070 0.768120 0.861410 -0.641477
O38   O     O_R   0.538930 0.231880 0.138590 -0.642378
O39   O     O_R   0.538930 0.768120 0.138590 -0.641505
O40   O     O_R   0.461070 0.231880 0.861410 -0.642480
O41   O     O_R   0.961070 0.268120 0.861410 -0.641491
O42   O     O_R   0.038930 0.731880 0.138590 -0.642398
O43   O     O_R   0.038930 0.268120 0.138590 -0.641394
O44   O     O_R   0.961070 0.731880 0.861410 -0.642385
O45   O     O_R   0.366040 0.731790 0.963660 -0.629236
O46   O     O_R   0.633960 0.268210 0.036340 -0.626042
O47   O     O_R   0.633960 0.731790 0.036340 -0.629197
O48   O     O_R   0.366040 0.268210 0.963660 -0.626028
O49   O     O_R   0.866040 0.231790 0.963660 -0.629215
O50   O     O_R   0.133960 0.768210 0.036340 -0.626070
O51   O     O_R   0.133960 0.231790 0.036340 -0.629167
O52   O     O_R   0.866040 0.768210 0.963660 -0.626021
Zn1   Zn    Zn3+2 0.517420 0.775920 0.948090 0.964817
Zn2   Zn    Zn3+2 0.482580 0.224080 0.051910 0.965051
Zn3   Zn    Zn3+2 0.482580 0.775920 0.051910 0.964787
Zn4   Zn    Zn3+2 0.517420 0.224080 0.948090 0.964978
Zn5   Zn    Zn3+2 0.017420 0.275920 0.948090 0.964788
Zn6   Zn    Zn3+2 0.982580 0.724080 0.051910 0.965012
Zn7   Zn    Zn3+2 0.982580 0.275920 0.051910 0.964828
Zn8   Zn    Zn3+2 0.017420 0.724080 0.948090 0.965005
Zn9   Zn    Zn3+2 0.430670 0.724000 0.948080 0.980124
Zn10  Zn    Zn3+2 0.569330 0.276000 0.051920 0.980107
Zn11  Zn    Zn3+2 0.569330 0.724000 0.051920 0.980136
Zn12  Zn    Zn3+2 0.430670 0.276000 0.948080 0.980047
Zn13  Zn    Zn3+2 0.930670 0.224000 0.948080 0.980117
Zn14  Zn    Zn3+2 0.069330 0.776000 0.051920 0.980066
Zn15  Zn    Zn3+2 0.069330 0.224000 0.051920 0.980190
Zn16  Zn    Zn3+2 0.930670 0.776000 0.948080 0.980104
H129  H     H_    0.305658 0.201281 0.011800 0.156909
H130  H     H_    0.694306 0.798715 0.988136 0.156664
H131  H     H_    0.694258 0.201291 0.988048 0.156972
H132  H     H_    0.305907 0.798687 0.012267 0.156862
H133  H     H_    0.805675 0.701283 0.011836 0.156930
H134  H     H_    0.194320 0.298716 0.988164 0.156657
H135  H     H_    0.194114 0.701311 0.987765 0.157125
H136  H     H_    0.805768 0.298704 0.011997 0.156747
C241  C     C_2   0.692304 0.781888 0.560203 0.882763
O53   O     O_2   0.665244 0.805827 0.535555 -0.626198
O54   O     O_R   0.696223 0.771722 0.615025 -0.792323
H137  H     H_    0.676054 0.786424 0.630231 0.349686
C242  C     C_2   0.274975 0.198159 0.439797 0.880967
O55   O     O_2   0.327572 0.189927 0.464380 -0.624829
O56   O     O_R   0.231151 0.183783 0.385067 -0.794712
H138  H     H_    0.248710 0.167477 0.369862 0.348160
C243  C     C_2   0.307839 0.781763 0.439795 0.882757
O57   O     O_2   0.334977 0.805688 0.464429 -0.626195
O58   O     O_R   0.303899 0.771556 0.384987 -0.792326
H139  H     H_    0.324126 0.786218 0.369779 0.349665
C244  C     C_2   0.726022 0.197736 0.560191 0.881001
O59   O     O_2   0.673599 0.189203 0.535596 -0.624821
O60   O     O_R   0.770131 0.183493 0.614937 -0.794765
H140  H     H_    0.752902 0.167006 0.630142 0.348129
C245  C     C_2   0.191569 0.281239 0.560187 0.882807
O61   O     O_2   0.163988 0.305060 0.535533 -0.626094
O62   O     O_R   0.195714 0.270897 0.615014 -0.792352
H141  H     H_    0.175223 0.285382 0.630214 0.349676
C246  C     C_2   0.773894 0.697703 0.439813 0.880974
O63   O     O_2   0.826303 0.689147 0.464409 -0.624910
O64   O     O_R   0.729761 0.683469 0.385067 -0.794771
H142  H     H_    0.746964 0.666969 0.369865 0.348129
C247  C     C_2   0.807750 0.281846 0.439797 0.882801
O65   O     O_2   0.834829 0.305782 0.464435 -0.626139
O66   O     O_R   0.803834 0.271661 0.384987 -0.792301
H143  H     H_    0.824026 0.286350 0.369782 0.349707
C248  C     C_2   0.225899 0.697785 0.560193 0.880967
O67   O     O_2   0.173454 0.689289 0.535599 -0.624915
O68   O     O_R   0.269972 0.683525 0.614938 -0.794762
H144  H     H_    0.252700 0.667061 0.630142 0.348114

loop_
_geom_bond_atom_site_label_1
_geom_bond_atom_site_label_2
_ccdc_geom_bond_type
C101  C107  A    
O60   H140  S    
O33   Zn7   S    
C13   C200  A    
O34   Zn8   S    
C219  H83   S    
C244  O59   D    
C34   C42   A    
C27   H123  S    
C2    O46   A    
C110  C118  A    
C99   C187  A    
C101  C189  A    
C83   C154  S    
C247  O65   D    
C97   C185  A    
C58   H106  S    
C10   C235  A    
C81   C156  S    
C170  C178  A    
O1    Zn9   S    
C100  C188  A    
C121  H37   S    
C237  H101  S    
C80   C96   A    
C123  H39   S    
C168  O26   A    
C234  H98   S    
C30   C38   A    
C40   C48   A    
C3    C74   S    
C162  C177  A    
O18   Zn14  S    
C81   O13   A    
C238  C239  A    
C18   C58   A    
C83   O15   A    
C11   C228  S    
C242  O56   S    
C102  H6    S    
C174  H62   S    
C9    C226  S    
C147  C155  A    
C112  H28   S    
O52   Zn16  S    
O3    Zn5   S    
C97   C105  A    
C143  C151  A    
C214  C232  A    
O47   Zn11  S    
C187  C193  A    
O48   Zn12  S    
C99   C105  A    
C224  C228  A    
C41   C49   A    
O2    Zn2   S    
O15   Zn11  S    
C165  O21   A    
O16   Zn12  S    
C68   C95   A    
C115  C123  A    
C202  C203  A    
O8    Zn2   S    
O62   H141  S    
C117  H33   S    
C112  C120  A    
C72   C91   A    
C31   H127  S    
C12   C227  S    
C20   C28   A    
C27   C35   A    
C21   C29   A    
C103  H7    S    
C23   C31   A    
C216  C224  A    
C130  C177  S    
C100  H4    S    
C146  C154  A    
C217  H81   S    
C160  C172  A    
C82   O38   A    
O11   Zn5   S    
C164  C179  A    
C57   H105  S    
C30   H126  S    
C15   C196  S    
C88   O44   A    
C36   C91   S    
O9    Zn7   S    
O10   Zn8   S    
C13   C194  S    
C36   C44   A    
C157  C182  A    
C40   C95   S    
C37   C45   A    
C130  C138  A    
C63   H111  S    
C39   C47   A    
C129  C178  S    
C176  C184  A    
C82   O14   A    
C10   C233  A    
C125  C182  S    
C110  C150  A    
C78   C94   A    
C50   H18   S    
C14   C199  A    
C221  C227  A    
C100  C106  A    
C98   C106  A    
C17   C25   A    
C74   C90   A    
C111  H27   S    
C16   C195  S    
C76   C92   A    
O17   Zn13  S    
O5    Zn3   S    
O6    Zn4   S    
C236  H100  S    
O13   Zn9   S    
C83   O39   A    
C241  O53   D    
C136  H44   S    
C116  C156  A    
C25   C33   A    
C43   H11   S    
C129  C137  A    
C126  C134  A    
C98   C186  A    
C6    O10   A    
C103  C107  A    
C114  C154  A    
O3    Zn15  S    
C2    C75   S    
O45   Zn9   S    
C209  C217  A    
C24   H120  S    
C104  C192  A    
C165  O23   A    
O4    Zn14  S    
C88   C149  S    
C69   C77   A    
C20   H116  S    
C163  C175  A    
C174  C182  A    
C71   C79   A    
C124  H40   S    
C85   O41   A    
C245  O61   D    
C84   O40   A    
C113  H29   S    
C62   H110  S    
C115  H31   S    
C52   H20   S    
C49   C57   A    
C105  C166  S    
O42   Zn6   S    
C111  C119  A    
C201  H93   S    
C170  H58   S    
C102  C190  A    
C53   C61   A    
C71   C92   A    
C55   C63   A    
O36   Zn6   S    
C56   C64   A    
C162  C246  S    
C188  H68   S    
C214  C222  A    
C189  H69   S    
C213  C231  A    
C75   C91   A    
O1    Zn11  S    
C157  C169  A    
C44   C52   A    
C1    O45   A    
C45   C53   A    
C206  C229  S    
C185  H65   S    
C127  C184  S    
C171  C179  A    
C128  C183  S    
C122  H38   S    
C169  C177  A    
C120  H36   S    
C14   C197  A    
C157  C241  S    
C98   H2    S    
C220  C226  A    
C192  H72   S    
C159  C243  S    
C109  H25   S    
O19   Zn15  S    
C158  C170  A    
C18   H114  S    
C19   C59   A    
C11   C240  A    
C119  H35   S    
C175  H63   S    
C176  H64   S    
C197  H89   S    
C191  H71   S    
C218  H82   S    
C25   H121  S    
C65   H129  S    
C28   C36   A    
C4    C73   S    
O3    Zn13  S    
C42   C50   A    
C66   C93   A    
C82   C155  S    
C210  H74   S    
C166  O22   A    
C8    C77   S    
C70   C89   A    
C67   C75   A    
O49   Zn13  S    
O26   Zn14  S    
C5    O9    A    
C118  H34   S    
C224  H88   S    
C72   H136  S    
O22   Zn10  S    
C85   O17   A    
C1    C76   S    
C186  C194  A    
C6    O50   A    
O2    Zn12  S    
C220  H84   S    
C22   H118  S    
C131  C180  S    
C167  O25   A    
C248  O68   S    
C211  C219  A    
C21   H117  S    
O4    Zn16  S    
C34   C89   S    
C144  C152  A    
C7    O51   A    
C138  C146  A    
O39   Zn3   S    
C38   C93   S    
C246  O64   S    
C218  C226  A    
C240  H104  S    
C158  C181  A    
C191  C195  A    
C38   C46   A    
C158  C242  S    
C131  C139  A    
O30   Zn4   S    
O56   H138  S    
O43   Zn7   S    
O2    Zn10  S    
C235  H99   S    
C52   C60   A    
C242  O55   D    
C237  C240  A    
C19   H115  S    
C126  C181  S    
C117  C125  A    
C204  H96   S    
C217  C225  A    
C222  H86   S    
C119  C127  A    
C142  H50   S    
O24   Zn12  S    
C163  C247  S    
C18   C26   A    
C208  O36   A    
C101  H5    S    
C109  C117  A    
C59   H107  S    
C144  H52   S    
C11   C238  A    
C134  H42   S    
C159  C171  A    
C192  C196  A    
C137  C145  A    
C238  H102  S    
C127  C135  A    
C166  O24   A    
C128  C136  A    
C87   O43   A    
C207  C232  S    
C88   O20   A    
C87   O19   A    
O38   Zn2   S    
C69   H133  S    
C233  H97   S    
C243  O58   S    
C68   H132  S    
C213  C221  A    
O46   Zn10  S    
C104  H8    S    
C87   C150  S    
C10   C225  S    
C112  C152  A    
C159  C184  A    
C20   C60   A    
C22   C30   A    
C160  C183  A    
C21   C61   A    
O14   Zn10  S    
C200  H92   S    
C35   C92   S    
C172  C180  A    
C23   C63   A    
C86   O42   A    
C173  C181  A    
O58   H139  S    
C24   C64   A    
C244  O60   S    
C4    O48   A    
C28   H124  S    
C114  H30   S    
C208  O34   A    
C247  O66   S    
C146  H54   S    
O29   Zn3   S    
C141  C149  A    
O54   H137  S    
C50   C58   A    
C106  C165  S    
C135  H43   S    
C223  H87   S    
C113  C153  A    
C171  H59   S    
C4    O8    A    
C54   C62   A    
C111  C151  A    
C164  C248  S    
C84   O16   A    
C197  C200  A    
C221  H85   S    
O66   H143  S    
C79   C95   A    
C190  H70   S    
C161  C173  A    
C84   C153  S    
C189  C195  A    
C222  C228  A    
C139  C147  A    
C46   C54   A    
C210  C230  A    
C139  H47   S    
C186  H66   S    
C140  H48   S    
O2    Zn4   S    
C67   H131  S    
C161  C245  S    
C29   H125  S    
C12   C237  A    
C14   C193  S    
C239  H103  S    
C205  O29   A    
C68   C76   A    
C234  C235  A    
C213  H77   S    
C16   C201  A    
C104  C108  A    
C215  H79   S    
C216  H80   S    
C51   H19   S    
C107  C168  S    
C211  C229  A    
C123  C131  A    
C9    C234  A    
C23   H119  S    
C121  C129  A    
C120  C128  A    
C132  C140  A    
C212  C220  A    
C133  C141  A    
C33   C41   A    
C142  C150  A    
C66   H130  S    
C85   C152  S    
C73   C89   A    
C136  C144  A    
C86   C151  S    
C3    O47   A    
C211  H75   S    
C6    C79   S    
C147  H55   S    
C43   C51   A    
C77   C93   A    
O28   Zn16  S    
C138  H46   S    
C164  C176  A    
C167  O27   A    
C60   H108  S    
C99   H3    S    
O50   Zn14  S    
O27   Zn15  S    
C208  C231  S    
C97   H1    S    
C42   H10   S    
C72   C80   A    
C8    O52   A    
C29   C37   A    
C160  C244  S    
C86   O18   A    
C148  C156  A    
C161  C178  A    
C116  H32   S    
O21   Zn9   S    
C46   H14   S    
C17   C57   A    
C66   C74   A    
C172  H60   S    
C173  H61   S    
C70   C78   A    
C140  C148  A    
C24   C32   A    
C15   C204  A    
C53   H21   S    
C1    O5    A    
C199  H91   S    
O23   Zn11  S    
C3    O7    A    
C215  C231  A    
C56   H24   S    
O25   Zn13  S    
C47   H15   S    
O1    Zn1   S    
C134  C142  A    
C65   C73   A    
O4    Zn8   S    
C202  H94   S    
C241  O54   S    
O31   Zn1   S    
C207  O35   A    
C44   H12   S    
C12   C239  A    
C116  C124  A    
C71   H135  S    
O12   Zn6   S    
C205  O31   A    
C102  C108  A    
C198  C199  A    
C206  O32   A    
C48   H16   S    
C16   C203  A    
C32   H128  S    
O7    Zn1   S    
C190  C196  A    
C55   H23   S    
C32   C40   A    
C188  C194  A    
C9    C236  A    
C205  C230  S    
C49   H17   S    
C81   O37   A    
C209  H73   S    
C19   C27   A    
O40   Zn4   S    
C124  C132  A    
C26   C34   A    
C245  O62   S    
C148  H56   S    
C13   C198  A    
C70   H134  S    
O4    Zn6   S    
C54   H22   S    
C5    O49   A    
O37   Zn1   S    
C110  H26   S    
O3    Zn7   S    
C7    O11   A    
O68   H144  S    
C248  O67   D    
C17   H113  S    
O44   Zn8   S    
O32   Zn2   S    
C198  H90   S    
C109  C149  A    
C22   C62   A    
C212  C230  A    
C233  C236  A    
O64   H142  S    
C137  H45   S    
C26   H122  S    
C246  O63   D    
C2    O6    A    
C223  C227  A    
C113  C121  A    
C209  C229  A    
C219  C225  A    
C5    C80   S    
O20   Zn16  S    
C7    C78   S    
C168  O28   A    
C143  H51   S    
C65   C94   A    
C108  C167  S    
O51   Zn15  S    
C67   C96   A    
C201  C204  A    
C61   H109  S    
C212  H76   S    
C51   C59   A    
O41   Zn5   S    
C69   C90   A    
C15   C202  A    
C35   C43   A    
C47   C55   A    
C125  C133  A    
C48   C56   A    
C115  C155  A    
C175  C183  A    
C185  C193  A    
C215  C223  A    
O1    Zn3   S    
C141  H49   S    
C162  C174  A    
C103  C191  A    
C203  H95   S    
C210  C218  A    
C187  H67   S    
C145  C153  A    
C207  O33   A    
C145  H53   S    
C33   C90   S    
C133  H41   S    
C135  C143  A    
C216  C232  A    
C31   C39   A    
C37   C94   S    
C206  O30   A    
C243  O57   D    
C39   C96   S    
C214  H78   S    
C132  C179  S    
C114  C122  A    
O35   Zn5   S    
C64   H112  S    
C41   H9    S    
C163  C180  A    
C8    O12   A    
C118  C126  A    
C169  H57   S    
C122  C130  A    
C45   H13   S    
