data_mof_unit_12732.cif
_audit_creation_date              2012-12-11T15:59:32-0500
_audit_creation_method            fapswitch 2.2
_symmetry_space_group_name_H-M    P1
_symmetry_Int_Tables_number       1
_space_group_crystal_system       triclinic
_cell_length_a                    10.798496
_cell_length_b                    10.770108
_cell_length_c                    17.103711
_cell_angle_alpha                 100.33246
_cell_angle_beta                  100.873907
_cell_angle_gamma                 60.212967
_cell_volume                      1686.78535126

loop_
_atom_site_label
_atom_site_type_symbol
_atom_type_description
_atom_site_fract_x
_atom_site_fract_y
_atom_site_fract_z
_atom_type_partial_charge
C1    C     C_R   0.352458 0.774105 0.398897 0.545481
C2    C     C_R   0.802969 0.223654 0.184144 0.029699
C3    C     C_R   0.808249 0.224102 0.268547 0.015086
C4    C     C_R   0.871383 0.416286 0.299423 -0.151078
C5    C     C_R   0.872880 0.416143 0.220148 -0.146423
C6    C     C_R   0.757303 0.125745 0.130868 0.028281
C7    C     C_R   0.698176 0.060827 0.165288 -0.079184
C8    C     C_R   0.700224 0.071904 0.246021 -0.148047
C9    C     C_R   0.780527 0.125789 0.295109 -0.108670
C10   C     C_R   0.832491 0.327452 0.324826 -0.000916
C11   C     C_R   0.349336 0.812587 0.157200 -0.016455
C12   C     C_R   0.365272 0.342092 0.358852 0.563784
C13   C     C_R   0.460993 0.814849 0.214064 0.018000
C14   C     C_R   0.444741 0.835061 0.296295 -0.001492
C15   C     C_R   0.225538 0.813287 0.260650 -0.004437
C16   C     C_R   0.247744 0.788951 0.181517 -0.119086
C17   C     C_R   0.592639 0.785336 0.191968 -0.116498
C18   C     C_R   0.704471 0.779055 0.250933 -0.141252
C19   C     C_R   0.679542 0.822851 0.331603 0.022094
C20   C     C_R   0.546387 0.858522 0.352388 -0.050668
C21   C     C_R   0.330600 0.826415 0.320562 -0.003614
C22   C     C_R   0.296879 0.282829 0.798555 0.001891
C23   C     C_R   0.775551 0.374593 0.402720 0.561052
C24   C     C_R   0.424094 0.180472 0.763174 0.024900
C25   C     C_R   0.478512 0.225960 0.712892 0.029467
C26   C     C_R   0.251733 0.449330 0.705080 -0.129739
C27   C     C_R   0.206379 0.416239 0.765565 -0.014172
C28   C     C_R   0.500784 0.033715 0.777806 -0.090623
C29   C     C_R   0.637988 0.942945 0.755529 -0.123966
C30   C     C_R   0.701984 0.996634 0.718168 -0.118954
C31   C     C_R   0.623258 0.136660 0.696851 -0.083905
C32   C     C_R   0.384136 0.354870 0.676971 -0.022422
C33   C     C_1   0.769975 0.369450 0.714671 -0.073447
C34   C     C_R   0.358834 0.768579 0.627711 0.543695
C35   C     C_1   0.814333 0.329715 0.780539 -0.060008
C36   C     C_1   0.340438 0.808039 0.709967 -0.059197
C37   C     C_1   0.312825 0.835831 0.777606 -0.067894
C38   C     C_R   0.890094 0.309460 0.086047 0.532474
C39   C     C_R   0.291414 0.259820 0.121646 0.591899
C40   C     C_R   0.299091 0.885123 0.083561 0.540547
C41   C     C_R   0.879539 0.300644 0.860347 0.545197
C42   C     C_R   0.278972 0.255667 0.876447 0.550383
C43   C     C_R   0.278587 0.884387 0.857299 0.544791
C44   C     C_R   0.409021 0.375588 0.600281 0.532257
C45   C     C_R   0.719032 0.412235 0.635416 0.537188
C46   C     C_1   0.324248 0.313690 0.276872 -0.069210
C47   C     C_1   0.305159 0.289018 0.205997 -0.050888
C48   C     C_R   0.841388 0.322567 0.161809 0.011253
Cr1   Cr    Cr6+3 0.608100 0.610860 0.522250 1.000043
Cr2   Cr    Cr6+3 0.288890 0.599990 0.488420 0.991286
Cr3   Cr    Cr6+3 0.603040 0.289190 0.489390 0.983732
Cr4   Cr    Cr6+3 0.053960 0.052250 0.967380 0.972493
Cr5   Cr    Cr6+3 0.059890 0.373160 0.992710 0.989524
Cr6   Cr    Cr6+3 0.373370 0.061690 0.991710 0.957304
H1    H     H_    0.893597 0.493017 0.340717 0.139460
H2    H     H_    0.805126 0.754589 0.232537 0.101393
H3    H     H_    0.523157 0.903650 0.413079 0.130351
H4    H     H_    0.179867 0.548173 0.677648 0.143468
H5    H     H_    0.455811 0.988247 0.807001 0.153132
H6    H     H_    0.695640 0.832139 0.769072 0.113765
H7    H     H_    0.810867 0.928632 0.703421 0.112112
H8    H     H_    0.676371 0.172619 0.666571 0.150976
H9    H     H_    0.906160 0.488140 0.205572 0.142943
H10   H     H_    0.654004 0.994534 0.131424 0.143367
H11   H     H_    0.643650 0.034106 0.271133 0.155773
H12   H     H_    0.814622 0.093005 0.354753 0.133836
H13   H     H_    0.611929 0.759893 0.129767 0.123539
H14   H     H_    0.169979 0.771143 0.137426 0.147792
O1    O     O_R   0.749810 0.499790 0.438040 -0.512718
O2    O     O_R   0.298970 0.468800 0.557390 -0.499698
O3    O     O_R   0.489400 0.255930 0.561910 -0.523911
O4    O     O_R   0.723890 0.306050 0.584610 -0.523568
O5    O     O_3   0.500010 0.500010 0.500020 -0.271425
O6    O     O_R   0.171100 0.914680 0.053100 -0.534226
O7    O     O_R   0.941680 0.184840 0.050710 -0.526946
O8    O     O_R   0.922080 0.403420 0.072610 -0.533454
O9    O     O_R   0.196880 0.369150 0.083850 -0.493504
O10   O     O_R   0.411730 0.181020 0.091530 -0.524531
O11   O     O_R   0.365010 0.944360 0.063320 -0.524433
O12   O     O_R   0.477660 0.726260 0.439290 -0.501247
O13   O     O_R   0.159380 0.906670 0.876210 -0.513522
O14   O     O_R   0.930820 0.177420 0.886730 -0.490457
O15   O     O_R   0.910360 0.395420 0.895720 -0.538209
O16   O     O_R   0.186010 0.361730 0.919870 -0.493998
O17   O     O_R   0.400000 0.173010 0.914630 -0.535219
O18   O     O_R   0.354140 0.936940 0.899340 -0.536092
O19   O     O_3   0.162410 0.162370 0.983930 -0.270619
O20   O     O_R   0.260150 0.743000 0.412270 -0.516053
O21   O     O_R   0.297740 0.466550 0.394720 -0.499131
O22   O     O_R   0.488080 0.253500 0.386430 -0.516865
O23   O     O_R   0.722670 0.303800 0.421940 -0.508283
O24   O     O_R   0.751130 0.502220 0.613520 -0.505458
O25   O     O_R   0.478890 0.728510 0.601960 -0.507147
O26   O     O_R   0.261470 0.745430 0.587750 -0.524617
C49   C     C_3   0.783543 0.853469 0.393558 -0.301371
C50   C     C_3   0.844253 0.757522 0.461811 -0.397698
H15   H     H_    0.756967 0.760018 0.488596 0.170055
H16   H     H_    0.918944 0.645554 0.440526 0.153439
H17   H     H_    0.905903 0.796769 0.509276 0.128563
H18   H     H_    0.873525 0.841665 0.365804 0.124646
H19   H     H_    0.726635 0.967345 0.419340 0.151488
C51   C     C_3   0.055605 0.520815 0.785853 -0.267967
C52   C     C_3   0.049940 0.651681 0.840624 -0.398748
H20   H     H_    0.940260 0.720892 0.858708 0.119275
H21   H     H_    0.127662 0.618625 0.895305 0.186872
H22   H     H_    0.075495 0.715309 0.808346 0.165267
H23   H     H_    0.982532 0.558365 0.729927 0.143616
H24   H     H_    0.010632 0.468222 0.812097 0.197574
C53   C     C_3   0.770325 0.081970 0.040936 -0.249706
C54   C     C_3   0.713687 0.980089 0.996139 -0.451749
H25   H     H_    0.775953 0.872533 0.019037 0.101530
H26   H     H_    0.599692 0.023295 0.001789 0.227907
H27   H     H_    0.725866 0.965529 0.931585 0.138757
H28   H     H_    0.718469 0.179766 0.008584 0.174014
H29   H     H_    0.885938 0.013167 0.034612 0.202159
C55   C     C_3   0.088095 0.819579 0.274811 -0.257714
C56   C     C_3   0.100711 0.669472 0.259105 -0.396548
H30   H     H_    0.051502 0.653403 0.197597 0.125735
H31   H     H_    0.215045 0.586581 0.263925 0.192476
H32   H     H_    0.047879 0.652650 0.302686 0.140466
H33   H     H_    0.054439 0.873535 0.334291 0.161468
H34   H     H_    0.999141 0.888887 0.232169 0.138059

loop_
_geom_bond_atom_site_label_1
_geom_bond_atom_site_label_2
_ccdc_geom_bond_type
C25   C31   A    
C1    C21   S    
C33   C45   S    
C23   O1    A    
C49   C50   S    
C34   O25   A    
Cr4   O7    S    
C7    C8    A    
C38   O8    A    
C26   C32   A    
C26   C27   A    
C55   H34   S    
Cr5   O16   S    
C39   O9    A    
C14   C21   A    
C12   O22   A    
C36   C37   T    
Cr4   O6    S    
C56   H31   S    
Cr3   O22   S    
C30   C31   A    
C15   C16   A    
C41   O15   A    
C50   H17   S    
C55   C56   S    
C5    H9    S    
C44   O3    A    
C18   C19   A    
C22   C24   A    
C45   O24   A    
C54   H25   S    
Cr3   O23   S    
C9    H12   S    
C19   C20   A    
C8    C9    A    
C50   H16   S    
C22   C42   S    
C51   H24   S    
C16   H14   S    
C24   C28   A    
C38   C48   S    
C18   H2    S    
C1    O20   A    
C8    H11   S    
Cr1   O1    S    
C13   C14   A    
C45   O4    A    
C31   H8    S    
C2    C6    A    
Cr3   O3    S    
C38   O7    A    
C5    C48   A    
C17   H13   S    
C55   H33   S    
C51   C52   S    
C39   O10   A    
C14   C20   A    
C12   O21   A    
C42   O16   A    
C24   C25   A    
Cr5   O19   S    
Cr2   O5    S    
Cr6   O18   S    
C49   H18   S    
Cr2   O26   S    
C2    C48   A    
C37   C43   S    
Cr5   O9    S    
C29   C30   A    
C3    C9    A    
C11   C16   A    
Cr2   O21   S    
Cr4   O13   S    
C29   H6    S    
C50   H15   S    
C17   C18   A    
C32   C44   S    
C40   O11   A    
C51   H23   S    
C52   H21   S    
C42   O17   A    
Cr4   O14   S    
C26   H4    S    
C54   H27   S    
C53   H28   S    
C12   C46   S    
C34   O26   A    
C22   C27   A    
C4    H1    S    
C43   O13   A    
C6    C53   S    
Cr1   O5    S    
C56   H32   S    
Cr5   O8    S    
Cr3   O4    S    
Cr1   O24   S    
C4    C10   A    
C19   C49   S    
C44   O2    A    
C39   C47   S    
Cr6   O11   S    
C28   H5    S    
C46   C47   T    
C28   C29   A    
C43   O18   A    
Cr4   O19   S    
Cr3   O5    S    
C4    C5    A    
Cr6   O17   S    
C6    C7    A    
Cr2   O20   S    
C10   C23   S    
C27   C51   S    
Cr1   O12   S    
C13   C17   A    
Cr5   O15   S    
C2    C3    A    
Cr2   O2    S    
C3    C10   A    
C56   H30   S    
C11   C13   A    
Cr6   O19   S    
C25   C32   A    
C41   O14   A    
C33   C35   T    
C34   C36   S    
C40   O6    A    
C52   H22   S    
C23   O23   A    
C11   C40   S    
C35   C41   S    
C54   H26   S    
C7    H10   S    
C53   H29   S    
C15   C21   A    
C30   H7    S    
C52   H20   S    
C1    O12   A    
C15   C55   S    
Cr1   O25   S    
C20   H3    S    
C53   C54   S    
C49   H19   S    
Cr6   O10   S    
