data_mof_unit_11475.cif
_audit_creation_date              2012-12-10T19:07:35-0500
_audit_creation_method            fapswitch 2.2
_symmetry_space_group_name_H-M    P1
_symmetry_Int_Tables_number       1
_space_group_crystal_system       triclinic
_cell_length_a                    10.820089
_cell_length_b                    10.869459
_cell_length_c                    9.559244
_cell_angle_alpha                 89.897302
_cell_angle_beta                  91.555355
_cell_angle_gamma                 91.052045
_cell_volume                      1123.64388365

loop_
_atom_site_label
_atom_site_type_symbol
_atom_type_description
_atom_site_fract_x
_atom_site_fract_y
_atom_site_fract_z
_atom_type_partial_charge
C1    C     C_R   0.500229 0.262741 0.499861 0.811149
C2    C     C_R   0.941896 0.584819 0.583720 0.111850
C3    C     C_3   0.948517 0.606393 0.738077 -0.501059
C4    C     C_3   0.087668 0.619090 0.727786 -0.458242
C5    C     C_R   0.506377 0.061880 0.620455 0.059459
C6    C     C_R   0.501204 0.130110 0.497910 -0.076956
C7    C     C_R   0.496903 0.064669 0.370239 -0.226727
C8    C     C_R   0.497170 0.935552 0.370339 -0.223322
C9    C     C_R   0.500936 0.869904 0.497939 -0.113273
C10   C     C_R   0.505596 0.937943 0.620612 0.104043
C11   C     C_3   0.509824 0.928892 0.776221 0.270351
C12   C     C_R   0.262737 0.501816 0.497899 0.804847
C13   C     C_3   0.511091 0.070934 0.775769 -0.520773
C14   C     C_R   0.558768 0.591989 0.075411 0.232659
C15   C     C_R   0.429873 0.417786 0.073108 -0.197700
C16   C     C_R   0.426196 0.419313 0.922941 0.527227
C17   C     C_R   0.559006 0.591716 0.928245 0.202511
C18   C     C_3   0.693086 0.622038 0.928017 -0.513677
C19   C     C_3   0.692656 0.625151 0.086263 -0.478105
C20   C     C_R   0.500307 0.737258 0.499747 0.804241
C21   C     C_R   0.737899 0.500368 0.501301 0.784453
C22   C     C_R   0.068880 0.589975 0.576795 0.122221
C23   C     C_R   0.130158 0.509784 0.490377 -0.089603
C24   C     C_R   0.061104 0.440738 0.390818 -0.217001
C25   C     C_R   0.932117 0.437730 0.395360 -0.219306
C26   C     C_R   0.871890 0.502627 0.500252 -0.085696
Cu1   Cu    Cu3+1 0.499990 0.499980 0.640670 0.989911
Cu2   Cu    Cu3+1 0.500010 0.500020 0.359330 0.933473
H1    H     H_    0.106566 0.383916 0.315457 0.152312
H2    H     H_    0.596250 0.885810 0.816402 0.057702
H3    H     H_    0.426367 0.111496 0.816676 0.257607
H4    H     H_    0.599540 0.112600 0.816188 0.163722
H5    H     H_    0.377711 0.349136 0.129549 0.158993
H6    H     H_    0.744501 0.543246 0.888129 0.214255
H7    H     H_    0.712997 0.712871 0.879774 0.183389
H8    H     H_    0.749838 0.551906 0.134946 0.222646
H9    H     H_    0.708830 0.718868 0.130203 0.185933
H10   H     H_    0.879990 0.380361 0.321377 0.152357
H11   H     H_    0.904784 0.693677 0.768223 0.199354
H12   H     H_    0.922751 0.522594 0.797792 0.198649
H13   H     H_    0.122833 0.714847 0.744366 0.218955
H14   H     H_    0.138709 0.547962 0.787498 0.196238
H15   H     H_    0.493064 0.112386 0.270672 0.157647
H16   H     H_    0.494188 0.887860 0.271060 0.154531
N1    N     N_R   0.500790 0.500930 0.147930 -0.204268
N2    N     N_R   0.500790 0.500890 0.852020 -0.224852
O1    O     O_R   0.500000 0.319640 0.618810 -0.529750
O2    O     O_R   0.500010 0.319680 0.381230 -0.599346
O3    O     O_R   0.319650 0.499970 0.618810 -0.556847
O4    O     O_R   0.319660 0.500010 0.381230 -0.587229
O5    O     O_R   0.499990 0.680320 0.618770 -0.560532
O6    O     O_R   0.500000 0.680360 0.381190 -0.589096
O7    O     O_R   0.680340 0.499990 0.618770 -0.587315
O8    O     O_R   0.680350 0.500030 0.381190 -0.584816
O9    O     O_3   0.357415 0.332193 0.846846 -0.562288
C27   C     C_3   0.233245 0.322841 0.890290 0.040680
H17   H     H_    0.171874 0.333100 0.796156 0.178769
H18   H     H_    0.206044 0.395414 0.965313 0.109002
C28   C     C_3   0.207034 0.195871 0.952027 -0.865130
H19   H     H_    0.273629 0.175520 0.038891 0.233388
H20   H     H_    0.111936 0.192263 0.992868 0.214054
H21   H     H_    0.213869 0.124291 0.870027 0.261841
O10   O     O_3   0.398630 0.876148 0.824680 -0.545126
C29   C     C_3   0.401846 0.874809 0.972378 0.072139
H22   H     H_    0.393794 0.969760 0.013905 0.142230
H23   H     H_    0.488648 0.834330 0.015323 0.122857
C30   C     C_3   0.293459 0.797429 0.023430 -0.778058
H24   H     H_    0.298938 0.701997 0.982943 0.237204
H25   H     H_    0.295658 0.794530 0.139601 0.208360
H26   H     H_    0.204923 0.837919 0.986346 0.242883

loop_
_geom_bond_atom_site_label_1
_geom_bond_atom_site_label_2
_ccdc_geom_bond_type
C2    C22   A    
C12   O4    A    
C23   C24   A    
Cu1   O7    S    
C1    O2    A    
C6    C7    A    
C7    H15   S    
C25   H10   S    
C20   O5    A    
C4    C22   S    
C9    C10   A    
C9    C20   S    
C5    C13   S    
C12   C23   S    
C27   C28   S    
C21   C26   S    
C30   H26   S    
C29   H22   S    
O9    C27   S    
C12   O3    A    
C13   H4    S    
C16   O9    S    
C3    H11   S    
C5    C10   A    
C2    C26   A    
C28   H19   S    
C4    H13   S    
C17   N2    A    
C21   O7    A    
Cu2   O6    S    
C14   C17   A    
C21   O8    A    
C4    H14   S    
Cu1   O3    S    
Cu1   N2    S    
C24   C25   A    
C27   H18   S    
Cu1   O5    S    
C3    H12   S    
C17   C18   S    
C14   N1    A    
C2    C3    S    
C19   H8    S    
C18   H6    S    
C5    C6    A    
Cu2   N1    S    
C28   H20   S    
C7    C8    A    
C15   C16   A    
C15   N1    A    
Cu1   O1    S    
C1    C6    S    
C29   C30   S    
C8    H16   S    
C11   C13   S    
C27   H17   S    
C18   H7    S    
C8    C9    A    
C20   O6    A    
C18   C19   S    
C10   C11   S    
C16   N2    A    
Cu1   Cu2   S    
Cu2   O8    S    
C24   H1    S    
C1    O1    A    
C28   H21   S    
C19   H9    S    
C25   C26   A    
C22   C23   A    
C11   O10   S    
Cu2   O4    S    
C14   C19   S    
C13   H3    S    
Cu2   O2    S    
C3    C4    S    
C30   H24   S    
C11   H2    S    
C15   H5    S    
O10   C29   S    
C30   H25   S    
C29   H23   S    
