data_mof_unit_54370.cif
_audit_creation_date              2012-12-11T17:14:54-0500
_audit_creation_method            fapswitch 2.2
_symmetry_space_group_name_H-M    P1
_symmetry_Int_Tables_number       1
_space_group_crystal_system       triclinic
_cell_length_a                    7.246023
_cell_length_b                    12.147418
_cell_length_c                    21.257643
_cell_angle_alpha                 90.001017
_cell_angle_beta                  90.622037
_cell_angle_gamma                 89.764302
_cell_volume                      1870.98163233

loop_
_atom_site_label
_atom_site_type_symbol
_atom_type_description
_atom_site_fract_x
_atom_site_fract_y
_atom_site_fract_z
_atom_type_partial_charge
O1    O     O_R   0.354460 0.152320 0.595720 -0.535392
O2    O     O_R   0.645540 0.847680 0.404280 -0.535392
O3    O     O_R   0.145540 0.652320 0.404280 -0.534480
O4    O     O_R   0.854460 0.347680 0.595720 -0.534481
O5    O     O_R   0.683670 0.140090 0.727290 -0.540689
O6    O     O_R   0.316330 0.859910 0.272710 -0.540695
O7    O     O_R   0.816330 0.640090 0.272710 -0.529167
O8    O     O_R   0.183670 0.359910 0.727290 -0.529170
O9    O     O_R   0.854010 0.349340 0.727750 -0.539545
O10   O     O_R   0.145990 0.650660 0.272250 -0.539542
O11   O     O_R   0.645990 0.849340 0.272250 -0.526014
O12   O     O_R   0.354010 0.150660 0.727750 -0.526015
C1    C     C_R   0.517097 0.112368 0.746992 0.721572
C2    C     C_R   0.482902 0.887633 0.253008 0.721580
C3    C     C_R   0.983968 0.612328 0.253003 0.724934
C4    C     C_R   0.016032 0.387672 0.746997 0.724938
O13   O     O_R   0.684170 0.139420 0.596190 -0.537157
O14   O     O_R   0.315830 0.860580 0.403810 -0.537158
O15   O     O_R   0.815830 0.639420 0.403810 -0.538365
O16   O     O_R   0.184170 0.360580 0.596190 -0.538365
C5    C     C_R   0.515226 0.113190 0.574491 0.705378
C6    C     C_R   0.484774 0.886810 0.425509 0.705376
C7    C     C_R   0.985057 0.613221 0.425500 0.704956
C8    C     C_R   0.014943 0.386779 0.574500 0.704956
O17   O     O_3   0.520730 0.319480 0.661730 -0.378208
O18   O     O_3   0.479270 0.680520 0.338270 -0.378205
O19   O     O_3   0.979270 0.819480 0.338270 -0.377305
O20   O     O_3   0.020730 0.180520 0.661730 -0.377303
V1    V     V_3+5 0.795560 0.238090 0.661730 1.440378
V2    V     V_3+5 0.204440 0.761910 0.338270 1.440373
V3    V     V_3+5 0.704440 0.738090 0.338270 1.456154
V4    V     V_3+5 0.295560 0.261910 0.661730 1.456147
C9    C     C_R   0.010391 0.467998 0.798024 -0.105887
C10   C     C_R   0.989607 0.531998 0.201978 -0.105858
C11   C     C_R   0.486336 0.967584 0.201875 -0.099980
C12   C     C_R   0.513663 0.032418 0.798125 -0.099969
C13   C     C_R   0.047317 0.654346 0.836011 0.517797
C14   C     C_R   0.952712 0.345642 0.163998 0.517799
C15   C     C_R   0.519569 0.154631 0.164896 0.515156
C16   C     C_R   0.480484 0.845365 0.835102 0.515123
C17   C     C_R   0.052597 0.577486 0.786818 -0.288614
C18   C     C_R   0.947451 0.422504 0.213190 -0.288632
C19   C     C_R   0.520351 0.077810 0.214177 -0.293921
C20   C     C_R   0.479712 0.922187 0.785821 -0.293929
C21   C     C_R   0.966845 0.433657 0.858389 -0.094044
C22   C     C_R   0.033096 0.566339 0.141608 -0.094058
C23   C     C_R   0.454231 0.932544 0.140582 -0.093490
C24   C     C_R   0.545702 0.067463 0.859420 -0.093501
C25   C     C_R   0.996775 0.502723 0.911022 -0.010009
C26   C     C_R   0.003151 0.497266 0.088979 -0.010030
C27   C     C_R   0.487122 0.002366 0.088774 -0.010023
C28   C     C_R   0.512818 0.997634 0.911226 -0.010019
C29   C     C_R   0.023169 0.616980 0.899020 0.031047
C30   C     C_R   0.976791 0.383008 0.100985 0.031097
C31   C     C_R   0.506234 0.117019 0.101398 0.038053
C32   C     C_R   0.493759 0.882979 0.898600 0.038074
C33   C     C_R   0.998718 0.461668 0.974480 -0.054863
C34   C     C_R   0.001173 0.538317 0.025520 -0.054862
C35   C     C_R   0.498041 0.961587 0.025435 -0.055009
C36   C     C_R   0.501875 0.038409 0.974565 -0.054998
C37   C     C_R   0.993571 0.653440 0.011551 0.222252
C38   C     C_R   0.006297 0.346543 0.988450 0.222147
C39   C     C_R   0.487450 0.153337 0.988397 0.216967
C40   C     C_R   0.512454 0.846657 0.011603 0.216992
C41   C     C_R   0.022072 0.691576 0.949591 0.296314
C42   C     C_R   0.977845 0.308411 0.050413 0.296424
C43   C     C_R   0.508006 0.191727 0.050878 0.301094
C44   C     C_R   0.491973 0.808270 0.949120 0.301114
H1    H     H_    0.091658 0.647346 0.137637 0.178458
H2    H     H_    0.908250 0.352659 0.862352 0.178480
H3    H     H_    0.600095 0.149356 0.864758 0.175976
H4    H     H_    0.399788 0.850662 0.135249 0.175975
H5    H     H_    0.918536 0.396204 0.260793 0.095738
H6    H     H_    0.081561 0.603785 0.739219 0.095748
H7    H     H_    0.460568 0.895459 0.737545 0.094631
H8    H     H_    0.539544 0.104535 0.262451 0.094633
C45   C     C_1   0.995593 0.533175 0.478060 -0.177244
C46   C     C_1   0.004407 0.466825 0.521940 -0.177244
C47   C     C_1   0.504777 0.033153 0.521936 -0.177287
C48   C     C_1   0.495223 0.966847 0.478064 -0.177287
O21   O     O_3   0.045295 0.802568 0.937835 -0.607357
H9    H     H_    0.111690 0.836202 0.973953 0.285986
O22   O     O_3   0.954637 0.197415 0.062172 -0.607308
H10   H     H_    0.888164 0.163793 0.026053 0.285956
O23   O     O_3   0.525902 0.302964 0.063125 -0.606502
H11   H     H_    0.596070 0.337305 0.028561 0.285224
O24   O     O_3   0.474164 0.697030 0.936872 -0.606521
H12   H     H_    0.403814 0.662707 0.971390 0.285237
O25   O     O_3   0.066472 0.765265 0.823092 -0.598829
H13   H     H_    0.079128 0.776206 0.777105 0.275700
O26   O     O_3   0.933603 0.234720 0.176921 -0.598833
H14   H     H_    0.920985 0.223780 0.222911 0.275691
O27   O     O_3   0.532109 0.265810 0.178233 -0.599787
H15   H     H_    0.538852 0.276832 0.224431 0.274487
O28   O     O_3   0.467986 0.734185 0.821764 -0.599797
H16   H     H_    0.461279 0.723162 0.775566 0.274487
O29   O     O_3   0.946836 0.727805 0.058041 -0.651486
H17   H     H_    0.903088 0.798042 0.039536 0.325561
O30   O     O_3   0.052962 0.272168 0.941957 -0.651498
H18   H     H_    0.096756 0.201938 0.960462 0.325569
O31   O     O_3   0.441315 0.226872 0.941036 -0.649779
H19   H     H_    0.397130 0.297487 0.958579 0.326547
O32   O     O_3   0.558511 0.773117 0.058969 -0.649784
H20   H     H_    0.602654 0.702491 0.041433 0.326610

loop_
_geom_bond_atom_site_label_1
_geom_bond_atom_site_label_2
_ccdc_geom_bond_type
C40   O32   S    
O24   H12   S    
O1    C5    A    
O27   H15   S    
O3    V2    S    
C9    C21   A    
O3    C7    A    
O28   H16   S    
C10   C18   A    
C39   O31   S    
C11   C23   A    
O29   H17   S    
C25   C33   A    
C33   C38   A    
O23   H11   S    
C35   C40   A    
C26   C30   A    
C36   C39   A    
C40   C44   A    
O20   V1    S    
O9    C4    A    
C14   C18   A    
O10   C3    A    
O4    C8    A    
O11   C2    A    
O13   V1    S    
C31   C43   A    
C15   O27   S    
C22   H1    S    
C28   C36   A    
C42   O22   S    
C15   C31   A    
O22   H10   S    
C16   C32   A    
O2    C6    A    
C10   C22   A    
C11   C19   A    
C3    C10   S    
O5    C1    A    
O4    V1    S    
O9    V1    S    
C13   C29   A    
C34   C37   A    
O7    C3    A    
C17   H6    S    
O15   V3    S    
C35   C36   A    
O8    C4    A    
O12   V4    S    
O19   V2    S    
O21   H9    S    
O5    V1    S    
C39   C43   A    
C43   O23   S    
O7    V3    S    
C38   C42   A    
O8    V4    S    
O31   H19   S    
O16   C8    A    
C1    C12   S    
C2    C11   S    
C23   C27   A    
C45   C46   T    
C14   O26   S    
O1    V4    S    
O13   C5    A    
C47   C48   T    
O2    V3    S    
C26   C34   A    
C20   H7    S    
O15   C7    A    
C4    C9    S    
O6    C2    A    
O10   V2    S    
C41   O21   S    
O30   H18   S    
C14   C30   A    
C21   C25   A    
C5    C47   S    
C7    C45   S    
O14   V2    S    
C8    C46   S    
O6    V2    S    
C16   C20   A    
C12   C20   A    
C27   C35   A    
C16   O28   S    
O26   H14   S    
C29   C41   A    
O16   V4    S    
C19   H8    S    
C18   H5    S    
C21   H2    S    
O14   C6    A    
O18   V3    S    
C37   O29   S    
C15   C19   A    
C30   C42   A    
C22   C26   A    
C13   O25   S    
C9    C17   A    
C6    C48   S    
C32   C44   A    
C33   C34   A    
O17   V4    S    
C25   C29   A    
C12   C24   A    
C27   C31   A    
C13   C17   A    
C23   H4    S    
O11   V3    S    
C38   O30   S    
C37   C41   A    
C24   C28   A    
O12   C1    A    
O32   H20   S    
C44   O24   S    
C24   H3    S    
O25   H13   S    
C28   C32   A    
