data_mof_unit_59567.cif
_audit_creation_date              2013-03-05T15:52:47-0500
_audit_creation_method            fapswitch 2.2
_symmetry_space_group_name_H-M    P1
_symmetry_Int_Tables_number       1
_space_group_crystal_system       triclinic
_cell_length_a                    6.946777
_cell_length_b                    14.876765
_cell_length_c                    21.358409
_cell_angle_alpha                 74.013056
_cell_angle_beta                  89.450869
_cell_angle_gamma                 90.624929
_cell_volume                      2121.62042441

loop_
_atom_site_label
_atom_site_type_symbol
_atom_site_description
_atom_site_fract_x
_atom_site_fract_y
_atom_site_fract_z
_atom_type_partial_charge
O1    O     O_R   0.648150 0.130050 0.214300 -0.599221
O2    O     O_R   0.351850 0.869950 0.785700 -0.601184
O3    O     O_R   0.320490 0.006660 0.340150 -0.558225
O4    O     O_R   0.679510 0.993340 0.659850 -0.560263
O5    O     O_R   0.146100 0.869940 0.285700 -0.573852
O6    O     O_R   0.853900 0.130060 0.714300 -0.556256
C1    C     C_R   0.487577 0.001136 0.366977 1.127242
C2    C     C_R   0.512321 0.998636 0.633068 1.123561
O7    O     O_R   0.318690 0.137980 0.218120 -0.607908
O8    O     O_R   0.681310 0.862020 0.781880 -0.598103
O9    O     O_R   0.144280 0.002190 0.162800 -0.599438
O10   O     O_R   0.855720 0.997810 0.837200 -0.589758
C3    C     C_R   0.489310 0.175685 0.204083 0.922047
C4    C     C_R   0.510983 0.824345 0.795016 0.908230
O11   O     O_R   0.649960 0.997790 0.337200 -0.567993
O12   O     O_R   0.350040 0.002210 0.662800 -0.568281
O13   O     O_3   0.479300 0.955290 0.231990 -0.275260
O14   O     O_3   0.520700 0.044710 0.768010 -0.265811
V1    V     V_3+5 0.206040 0.008290 0.253340 1.292164
V2    V     V_3+5 0.793960 0.991710 0.746660 1.312629
O15   O     O_R   0.814320 0.993320 0.159850 -0.608526
O16   O     O_R   0.185680 0.006680 0.840150 -0.612165
C5    C     C_R   0.983812 0.998113 0.132903 1.005397
C6    C     C_R   0.016288 0.999987 0.867451 0.997936
O17   O     O_R   0.816120 0.862000 0.281880 -0.571174
O18   O     O_R   0.183880 0.138000 0.718120 -0.574605
C7    C     C_R   0.984239 0.824488 0.294653 1.159970
C8    C     C_R   0.015577 0.175746 0.707148 1.151799
V3    V     V_3+5 0.705540 0.991700 0.246660 1.282889
V4    V     V_3+5 0.294460 0.008300 0.753340 1.292130
O19   O     O_3   0.982150 0.044700 0.268010 -0.259352
O20   O     O_3   0.017850 0.955300 0.731990 -0.258412
C9    C     C_R   0.994911 0.722661 0.321440 -0.386224
C10   C     C_R   0.005312 0.277670 0.680850 -0.389413
C11   C     C_R   0.097548 0.571047 0.313605 -0.227557
C12   C     C_R   0.922964 0.431231 0.690237 -0.220699
C13   C     C_R   0.085472 0.667445 0.285642 0.353071
C14   C     C_R   0.935451 0.334879 0.719181 0.351026
C15   C     C_R   0.934472 0.681878 0.386428 0.255272
C16   C     C_R   0.056664 0.317606 0.614837 0.261126
C17   C     C_R   0.987847 0.588686 0.418438 0.030082
C18   C     C_R   0.004914 0.411250 0.583369 0.030415
C19   C     C_R   0.047005 0.531433 0.378955 0.058003
C20   C     C_R   0.956095 0.469331 0.623480 0.057962
C21   C     C_R   0.984174 0.549239 0.487511 0.062470
C22   C     C_R   0.004569 0.450705 0.514222 0.059820
C23   C     C_R   0.014272 0.394921 0.470707 -0.041730
C24   C     C_R   0.974898 0.605389 0.530737 -0.041497
C25   C     C_R   0.050149 0.434657 0.404830 -0.131733
C26   C     C_R   0.948591 0.565982 0.597089 -0.131297
H1    H     H_    0.075537 0.389322 0.373697 0.152660
H2    H     H_    0.928462 0.611754 0.628241 0.152983
H3    H     H_    0.150964 0.526979 0.284593 0.175894
H4    H     H_    0.881093 0.476955 0.719570 0.177653
H5    H     H_    0.995215 0.320153 0.486708 0.218525
H6    H     H_    0.990945 0.680329 0.514265 0.215539
C27   C     C_3   0.827733 0.970968 0.983277 -0.123162
C28   C     C_3   0.172342 0.024270 0.017622 -0.119896
C29   C     C_3   0.955987 0.911273 0.037596 0.025147
C30   C     C_3   0.043514 0.084268 0.963481 0.014887
H7    H     H_    0.917806 0.840766 0.069206 0.224058
H8    H     H_    0.078039 0.155749 0.932664 0.221007
H9    H     H_    0.685310 0.949049 0.968923 0.145146
H10   H     H_    0.314881 0.045584 0.032238 0.168019
C31   C     C_3   0.993886 0.997331 0.062527 -0.207828
C32   C     C_3   0.006098 0.998268 0.938324 -0.166947
C33   C     C_3   0.865061 0.056883 0.009145 -0.098712
C34   C     C_3   0.134596 0.938070 0.991819 -0.092669
H11   H     H_    0.748400 0.102002 0.017813 0.208565
H12   H     H_    0.245716 0.888801 0.984366 0.150991
C35   C     C_3   0.674857 0.010463 0.474277 0.349241
C36   C     C_3   0.324582 0.989052 0.525840 0.349635
C37   C     C_3   0.573956 0.080169 0.504205 0.340317
C38   C     C_3   0.425400 0.919352 0.495886 0.340346
C39   C     C_3   0.508168 0.999138 0.562985 -0.463695
C40   C     C_3   0.491331 0.000393 0.437115 -0.465238
C41   C     C_3   0.612035 0.927724 0.533112 -0.327364
C42   C     C_3   0.387355 0.071759 0.466995 -0.325629
H13   H     H_    0.702641 0.868499 0.559168 0.231083
H14   H     H_    0.296806 0.131003 0.440937 0.231490
C43   C     C_R   0.511563 0.277344 0.175166 -0.130474
C44   C     C_R   0.496333 0.722391 0.821653 -0.124145
C45   C     C_R   0.673862 0.419994 0.179874 -0.039250
C46   C     C_R   0.395299 0.571555 0.811026 -0.024900
C47   C     C_R   0.606000 0.330125 0.210610 -0.172486
C48   C     C_R   0.412952 0.668059 0.785173 -0.165306
C49   C     C_R   0.482190 0.316431 0.108308 -0.122847
C50   C     C_R   0.556438 0.679981 0.885076 -0.077458
C51   C     C_R   0.564149 0.404852 0.074714 0.154972
C52   C     C_R   0.548922 0.581509 0.911611 0.150796
C53   C     C_R   0.657117 0.457933 0.111946 -0.041536
C54   C     C_R   0.464761 0.526871 0.873693 -0.052430
C55   C     C_R   0.554785 0.442162 0.005415 -0.144546
C56   C     C_R   0.609629 0.536832 0.976382 -0.132672
C57   C     C_R   0.729399 0.581795 0.012449 0.239382
C58   C     C_R   0.507673 0.386186 0.963470 0.253727
C59   C     C_R   0.745019 0.544575 0.080292 0.211151
C60   C     C_R   0.453559 0.428716 0.898671 0.240357
H15   H     H_    0.598587 0.725891 0.913927 0.132200
H16   H     H_    0.400969 0.275275 0.083025 0.140395
H17   H     H_    0.360205 0.700533 0.736718 0.142661
H18   H     H_    0.633656 0.300220 0.261959 0.141189
H19   H     H_    0.748022 0.457516 0.209464 0.160490
H20   H     H_    0.324820 0.532658 0.781599 0.163596
N1    N     N_R   0.865861 0.022986 0.444188 0.262225
O21   O     O_R   0.925503 0.106228 0.412152 -0.386609
O22   O     O_R   0.954905 0.950624 0.435910 -0.343617
N2    N     N_R   0.133585 0.976369 0.555953 0.262084
O23   O     O_R   0.074665 0.893146 0.588300 -0.387248
O24   O     O_R   0.043794 0.048707 0.563934 -0.342083
N3    N     N_R   0.861234 0.592531 0.116323 0.251370
O25   O     O_R   0.047480 0.595942 0.108871 -0.320149
O26   O     O_R   0.780312 0.635411 0.154949 -0.347538
N4    N     N_R   0.393755 0.371501 0.857876 0.265730
O27   O     O_R   0.243120 0.317211 0.873975 -0.328741
O28   O     O_R   0.480121 0.378413 0.802403 -0.362847
N5    N     N_R   0.859778 0.655712 0.979498 0.242777
O29   O     O_R   0.871976 0.732408 0.997201 -0.415977
O30   O     O_R   0.967162 0.646306 0.931481 -0.390476
N6    N     N_R   0.566452 0.290341 0.980690 0.242572
O31   O     O_R   0.452688 0.224158 0.973278 -0.409031
O32   O     O_R   0.737031 0.269379 0.004543 -0.414929
Br1   Br    Br    0.242377 0.251008 0.576509 -0.454118
Br2   Br    Br    0.743394 0.747417 0.423190 -0.459996
N7    N     N_R   0.888668 0.298844 0.787784 0.265178
O33   O     O_R   0.843717 0.211317 0.813635 -0.408997
O34   O     O_R   0.877260 0.355594 0.824405 -0.318690
N8    N     N_R   0.160290 0.706876 0.220603 0.261548
O35   O     O_R   0.080100 0.778715 0.181113 -0.430190
O36   O     O_R   0.302937 0.667214 0.199102 -0.316923
N9    N     N_R   0.657566 0.169381 0.506692 0.276072
O37   O     O_R   0.677979 0.236928 0.453364 -0.383478
O38   O     O_R   0.703676 0.183607 0.562074 -0.363731
N10   N     N_R   0.340980 0.830317 0.493324 0.276835
O39   O     O_R   0.320722 0.762565 0.546546 -0.381108
O40   O     O_R   0.290836 0.816974 0.438044 -0.364127

loop_
_geom_bond_atom_site_label_1
_geom_bond_atom_site_label_2
_geom_bond_distance
_ccdc_geom_bond_type
C32   C34   1.541970 S    
C37   N9    1.457460 S    
C55   C56   1.419832 A    
C52   C56   1.429760 A    
C11   H3    1.084484 S    
C37   C39   1.543222 S    
N3    O25   1.300774 A    
C27   C32   1.540617 S    
O4    C2    1.293139 A    
V1    O19   1.706779 S    
N8    O35   1.299759 A    
N4    O27   1.298945 A    
C54   C60   1.410871 A    
C23   C25   1.386802 A    
C21   C22   1.428195 A    
C57   N5    1.436876 S    
N1    O22   1.300015 A    
O9    V1    2.010863 S    
C9    C15   1.410837 A    
C38   C40   1.543478 S    
C10   C16   1.411551 A    
C11   C13   1.397198 A    
C40   C42   1.561196 S    
O3    C1    1.292752 A    
N5    O30   1.301722 A    
C35   C40   1.535773 S    
C59   N3    1.433442 S    
C42   H14   1.109429 S    
C27   C29   1.548550 S    
C28   C30   1.550322 S    
C3    C43   1.473485 S    
O13   V3    1.716386 S    
N2    O23   1.300031 A    
C30   H8    1.107904 S    
C18   C22   1.431188 A    
O7    C3    1.302078 A    
C36   C42   1.552314 S    
O5    C7    1.290796 A    
O7    V1    2.014211 S    
O6    C8    1.292124 A    
C36   N2    1.456370 S    
C30   C33   1.549498 S    
O8    V2    2.014210 S    
C31   C33   1.538231 S    
C38   C41   1.549010 S    
C58   C60   1.410647 A    
C26   H2    1.084329 S    
C37   C42   1.548740 S    
O3    V1    2.018511 S    
O14   V4    1.716385 S    
C51   C53   1.420435 A    
C11   C19   1.397062 A    
C6    C32   1.507846 S    
C13   N8    1.440335 S    
C24   C26   1.385817 A    
C8    C10   1.467554 S    
C2    O12   1.297360 A    
C28   H10   1.109980 S    
C17   C19   1.414962 A    
C18   C20   1.415662 A    
C27   C33   1.546164 S    
C36   C39   1.535968 S    
N6    O32   1.301183 A    
O11   V3    1.994940 S    
C41   H13   1.109459 S    
O17   V3    2.030489 S    
C29   H7    1.107601 S    
C36   C38   1.532212 S    
O8    C4    1.298234 A    
C35   C37   1.532215 S    
C19   C25   1.393300 A    
N10   O40   1.300094 A    
C1    O11   1.297816 A    
C25   H1    1.084217 S    
C44   C48   1.393291 A    
O15   V3    1.989355 S    
C2    C39   1.495382 S    
C9    C13   1.415320 A    
C15   Br2   1.938810 S    
C33   H11   1.104104 S    
C29   C34   1.550994 S    
C28   C31   1.540120 S    
C52   C54   1.421173 A    
O10   V2    2.010863 S    
O1    V3    2.027910 S    
N3    O26   1.300914 A    
C53   C59   1.409357 A    
C39   C41   1.561311 S    
C43   C49   1.403439 A    
C45   H19   1.082011 S    
C28   C34   1.549737 S    
C45   C47   1.391945 A    
C50   C52   1.417893 A    
O18   V4    2.030489 S    
C55   C58   1.419098 A    
C35   N1    1.456230 S    
N7    O33   1.299874 A    
C46   H20   1.081498 S    
O16   C6    1.298823 A    
C12   C20   1.397467 A    
O1    C3    1.290515 A    
C4    C44   1.467919 S    
N9    O37   1.300209 A    
C35   C41   1.552541 S    
C14   N7    1.447188 S    
O6    V2    2.019770 S    
N6    O31   1.300127 A    
C23   H5    1.076138 S    
C49   H16   1.079472 S    
V2    O20   1.706781 S    
C21   C24   1.406824 A    
C20   C26   1.394151 A    
C24   H6    1.076852 S    
C16   Br1   1.941782 S    
C22   C23   1.407803 A    
O16   V4    1.989351 S    
C10   C14   1.419619 A    
C58   N6    1.435893 S    
C27   H9    1.110419 S    
C46   C48   1.392571 A    
C16   C18   1.421814 A    
N9    O38   1.300093 A    
N8    O36   1.301639 A    
N4    O28   1.300857 A    
C57   C59   1.407252 A    
C1    C40   1.495510 S    
O5    V1    2.019770 S    
O17   C7    1.298563 A    
C60   N4    1.436664 S    
C45   C53   1.410885 A    
N1    O21   1.300018 A    
O10   C6    1.298943 A    
N10   O39   1.300239 A    
O18   C8    1.297795 A    
O2    V4    2.027911 S    
C5    C31   1.507319 S    
O15   C5    1.298169 A    
V3    O19   2.168816 S    
N5    O29   1.299288 A    
C29   C31   1.537141 S    
C12   C14   1.399994 A    
V4    O20   2.168815 S    
C44   C50   1.397564 A    
C38   N10   1.457724 S    
O9    C5    1.299066 A    
O13   V1    2.155732 S    
N2    O24   1.299961 A    
O14   V2    2.155731 S    
C51   C55   1.432880 A    
C56   C57   1.420237 A    
O2    C4    1.291568 A    
C50   H15   1.078356 S    
C12   H4    1.084157 S    
C30   C32   1.538588 S    
O4    V2    2.018514 S    
C15   C17   1.421600 A    
C34   H12   1.110276 S    
C7    C9    1.467476 S    
N7    O34   1.301863 A    
C49   C51   1.423113 A    
C17   C21   1.429549 A    
C46   C54   1.412631 A    
C48   H17   1.083721 S    
O12   V4    1.994940 S    
C43   C47   1.394899 A    
C47   H18   1.083883 S    
