data_mof_unit_14589.cif
_audit_creation_date              2012-12-11T19:02:12-0500
_audit_creation_method            fapswitch 2.2
_symmetry_space_group_name_H-M    P1
_symmetry_Int_Tables_number       1
_space_group_crystal_system       triclinic
_cell_length_a                    8.494181
_cell_length_b                    15.302616
_cell_length_c                    18.851501
_cell_angle_alpha                 100.025278
_cell_angle_beta                  93.695287
_cell_angle_gamma                 99.306366
_cell_volume                      2370.36755277

loop_
_atom_site_label
_atom_site_type_symbol
_atom_type_description
_atom_site_fract_x
_atom_site_fract_y
_atom_site_fract_z
_atom_type_partial_charge
Ba1   Ba    Ba6+2 0.852310 0.543020 0.467250 1.669431
Ba2   Ba    Ba6+2 0.337530 0.457060 0.532760 1.677567
C1    C     C_3   0.695336 0.864280 0.274707 -0.194331
C2    C     C_3   0.650474 0.776268 0.302374 0.369596
C3    C     C_3   0.409213 0.223616 0.290935 0.659634
C4    C     C_3   0.339283 0.128398 0.242768 0.296061
C5    C     C_3   0.041093 0.211398 0.720502 0.522928
C6    C     C_3   0.003635 0.127638 0.756488 0.943904
C7    C     C_3   0.617772 0.232752 0.723850 0.332283
C8    C     C_3   0.557231 0.132726 0.724853 -0.056469
C9    C     C_2   0.315704 0.500486 0.294414 -0.134645
C10   C     C_3   0.398800 0.571863 0.256085 0.006523
C11   C     C_2   0.352511 0.548039 0.175436 -0.158318
C12   C     C_3   0.175875 0.787470 0.276459 0.662224
C13   C     C_2   0.206450 0.498237 0.149723 -0.065149
C14   C     C_2   0.103316 0.460260 0.203359 -0.149828
C15   C     C_1   0.162566 0.465972 0.271922 0.074814
C16   C     C_R   0.049104 0.486023 0.929353 0.455658
C17   C     C_R   0.149091 0.487236 0.070970 0.461351
C18   C     C_R   0.096045 0.527634 0.803537 -0.017901
C19   C     C_R   0.045222 0.514135 0.727500 0.095864
C20   C     C_R   0.784056 0.436760 0.750660 -0.031114
C21   C     C_R   0.836725 0.445450 0.823847 -0.159510
C22   C     C_R   0.994906 0.486232 0.851131 -0.057771
C23   C     C_3   0.092354 0.781084 0.200290 -0.213402
C24   C     C_R   0.892453 0.463645 0.702337 -0.265575
C25   C     C_R   0.359261 0.819210 0.440959 0.023858
C26   C     C_R   0.592905 0.789711 0.509307 0.040188
C27   C     C_R   0.741977 0.231154 0.535451 -0.258870
C28   C     C_R   0.844410 0.173777 0.552872 0.003356
C29   C     C_R   0.790705 0.080649 0.538263 -0.075156
C30   C     C_R   0.631474 0.042535 0.508720 -0.015436
C31   C     C_R   0.535054 0.101459 0.482503 -0.069716
C32   C     C_R   0.570305 0.946738 0.498380 -0.016218
C33   C     C_R   0.418899 0.912411 0.458820 -0.140393
C34   C     C_3   0.254011 0.763409 0.663017 0.710300
C35   C     C_R   0.326802 0.971418 0.437047 -0.091549
C36   C     C_R   0.383651 0.062445 0.444239 0.402075
C37   C     C_R   0.647562 0.884748 0.530165 0.253208
C38   C     C_R   0.457779 0.758829 0.458142 0.109822
C39   C     C_R   0.594955 0.196802 0.494714 0.064945
C40   C     C_3   0.161551 0.842416 0.674456 -0.305768
C41   C     C_3   0.902820 0.269502 0.370975 0.720883
C42   C     C_3   0.869293 0.165644 0.353094 -0.190393
C43   C     C_3   0.742743 0.726809 0.714009 0.369864
C44   C     C_3   0.837275 0.814077 0.765986 0.275436
H1    H     H_    0.705619 0.786422 0.358963 0.037668
H2    H     H_    0.159912 0.867552 0.733155 0.166699
H3    H     H_    0.220948 0.899929 0.651492 0.040898
H4    H     H_    0.040452 0.823486 0.645960 0.058595
H5    H     H_    0.787807 0.294238 0.369201 -0.045969
H6    H     H_    0.755635 0.139817 0.374116 0.057328
H7    H     H_    0.964223 0.138605 0.381062 0.111739
H8    H     H_    0.827439 0.885796 0.281567 0.114762
H9    H     H_    0.893255 0.859425 0.731738 0.118925
H10   H     H_    0.517982 0.761577 0.301968 0.003496
H11   H     H_    0.642590 0.917674 0.307879 0.091315
H12   H     H_    0.244669 0.092125 0.270326 0.026894
H13   H     H_    0.182697 0.801233 0.163289 0.093897
H14   H     H_    0.925282 0.227701 0.701659 -0.229441
H15   H     H_    0.716376 0.258444 0.767847 0.030500
H16   H     H_    0.665341 0.236683 0.670851 -0.031931
H17   H     H_    0.659329 0.097231 0.714391 0.165338
H18   H     H_    0.228665 0.725591 0.277396 -0.015105
H19   H     H_    0.429082 0.580081 0.139900 0.097251
H20   H     H_    0.983178 0.423571 0.184813 0.099207
H21   H     H_    0.753502 0.419261 0.859397 0.104291
H22   H     H_    0.851277 0.453799 0.645530 0.063113
H23   H     H_    0.208512 0.946997 0.409992 0.096260
H24   H     H_    0.783812 0.303109 0.547240 0.037394
H25   H     H_    0.879215 0.039400 0.546385 0.131798
H26   H     H_    0.007084 0.829130 0.202504 0.115175
N1    N     N_R   0.207306 0.498373 0.952623 -0.250558
N2    N     N_R   0.256123 0.499870 0.021556 -0.240021
N3    N     N_R   0.990226 0.471806 0.047675 -0.237210
N4    N     N_R   0.941514 0.471062 0.978520 -0.237409
O1    O     O_2   0.865610 0.448460 0.327050 -0.487598
O2    O     O_3   0.666952 0.755942 0.655277 -0.609664
O3    O     O_3   0.062836 0.796416 0.327905 -0.599159
O4    O     O_2   0.324100 0.551570 0.673000 -0.467377
O5    O     O_3   0.071440 0.550090 0.585530 -0.524836
O6    O     O_3   0.532860 0.384470 0.624560 -0.460230
O7    O     O_3   0.189662 0.696615 0.701891 -0.621052
O8    O     O_3   0.607860 0.389390 0.460650 -0.519347
O9    O     O_3   0.108950 0.337050 0.587710 -0.443466
O10   O     O_2   0.159208 0.177860 0.526747 -0.425458
O11   O     O_3   0.138337 0.193518 0.663641 -0.621129
O12   O     O_3   0.118280 0.449990 0.414480 -0.473478
O13   O     O_3   0.581860 0.610690 0.539360 -0.470557
O14   O     O_2   0.335900 0.275750 0.458650 -0.343505
O15   O     O_3   0.518085 0.215143 0.348921 -0.677396
O16   O     O_2   0.457482 0.452621 0.753215 -0.492982
O17   O     O_3   0.496061 0.284558 0.734469 -0.576191
O18   O     O_3   0.656850 0.615600 0.375450 -0.432464
O19   O     O_2   0.714337 0.532462 0.246330 -0.485437
O20   O     O_3   0.993410 0.303551 0.319037 -0.611281
O21   O     O_3   0.707946 0.705965 0.258978 -0.598956
O22   O     O_2   0.853800 0.724280 0.541390 -0.514857
O23   O     O_3   0.080770 0.663020 0.412300 -0.467955
O24   O     O_2   0.039449 0.823669 0.466535 -0.497217
P1    P     P_3+3 0.033450 0.421470 0.337090 1.018171
P2    P     P_3+3 0.679030 0.710970 0.562060 1.009667
P3    P     P_3+3 0.140121 0.776205 0.411091 0.981450
P4    P     P_3+3 0.156260 0.578610 0.662920 0.955735
P5    P     P_3+3 0.058358 0.220600 0.583662 1.017786
P6    P     P_3+3 0.620338 0.604447 0.281857 0.983465
P7    P     P_3+3 0.513781 0.273000 0.439943 1.017565
P8    P     P_3+3 0.570333 0.391919 0.717466 0.961673
O25   O     O_3   0.986702 0.295741 0.439852 -0.700291
H27   H     H_    0.939658 0.345769 0.466058 0.281367
C45   C     C_3   0.860267 0.127493 0.272325 -0.427026
H28   H     H_    0.788996 0.164918 0.241023 0.136101
H29   H     H_    0.981894 0.133655 0.254144 0.140112
H30   H     H_    0.806436 0.054998 0.261539 0.113796
C46   C     C_3   0.848668 0.660641 0.688976 -0.247559
H31   H     H_    0.931849 0.688590 0.654010 0.102046
H32   H     H_    0.911131 0.646205 0.737485 0.077155
H33   H     H_    0.777869 0.597500 0.656383 0.039397
C47   C     C_3   0.619114 0.677041 0.756193 -0.312738
H34   H     H_    0.573507 0.608496 0.726365 0.148948
H35   H     H_    0.674925 0.668228 0.808775 0.026374
H36   H     H_    0.518999 0.713037 0.767785 0.176833
O26   O     O_3   0.960112 0.795620 0.811938 -0.741579
H37   H     H_    0.909276 0.764502 0.848784 0.305870
C48   C     C_3   0.733303 0.872402 0.810570 -0.331150
H38   H     H_    0.646828 0.895480 0.774594 0.158210
H39   H     H_    0.668633 0.835982 0.849052 0.098983
H40   H     H_    0.811642 0.933295 0.842975 0.114492
O27   O     O_3   0.280386 0.262616 0.315080 -0.765290
H41   H     H_    0.211840 0.219065 0.337964 0.336061
C49   C     C_3   0.502668 0.283604 0.244468 -0.232499
H42   H     H_    0.421207 0.318117 0.215069 0.099445
H43   H     H_    0.597200 0.334467 0.278427 0.080200
H44   H     H_    0.565762 0.244090 0.204088 0.073157
O28   O     O_3   0.270281 0.137246 0.175080 -0.727941
H45   H     H_    0.181936 0.171670 0.184128 0.311269
C50   C     C_3   0.460799 0.065246 0.229749 -0.301033
H46   H     H_    0.548588 0.089094 0.193413 0.112750
H47   H     H_    0.521679 0.057778 0.281645 0.104665
H48   H     H_    0.397522 0.997415 0.202098 0.126442
C51   C     C_3   0.634160 0.854902 0.195226 -0.378867
H49   H     H_    0.502316 0.832162 0.187237 0.148532
H50   H     H_    0.662969 0.920915 0.177991 0.112297
H51   H     H_    0.692336 0.805620 0.160446 0.149306
C52   C     C_3   0.127847 0.293418 0.775340 -0.239120
H52   H     H_    0.156453 0.351552 0.747763 0.103224
H53   H     H_    0.050694 0.311184 0.818966 0.076109
H54   H     H_    0.241012 0.279872 0.800298 0.158717
O29   O     O_3   0.145491 0.107850 0.787331 -0.782976
H55   H     H_    0.117886 0.049057 0.803086 0.303273
O30   O     O_3   0.903165 0.146418 0.811325 -0.769691
H56   H     H_    0.875188 0.090659 0.831304 0.305330
O31   O     O_3   0.925130 0.053398 0.704401 -0.751663
H57   H     H_    0.006653 0.032347 0.673311 0.298451
C53   C     C_3   0.425167 0.088532 0.663709 -0.304280
H58   H     H_    0.444005 0.019485 0.640765 0.089389
H59   H     H_    0.305382 0.081870 0.683503 0.186632
H60   H     H_    0.425674 0.127443 0.619263 0.135620
C54   C     C_3   0.507647 0.119329 0.799587 -0.333648
H61   H     H_    0.448868 0.048476 0.797661 0.132856
H62   H     H_    0.426306 0.166015 0.819173 0.200247
H63   H     H_    0.613802 0.134525 0.839871 0.135013
C55   C     C_3   0.248694 0.591179 0.835895 -0.312950
H64   H     H_    0.298800 0.634647 0.799650 0.143824
H65   H     H_    0.224680 0.637687 0.884555 0.110048
H66   H     H_    0.341908 0.552937 0.850727 0.156335
C56   C     C_3   0.408848 0.466934 0.352552 -0.236059
H67   H     H_    0.428616 0.515812 0.403595 0.177895
H68   H     H_    0.347978 0.405739 0.367232 0.157311
H69   H     H_    0.525449 0.453136 0.336015 0.103435
O32   O     O_3   0.412813 0.669247 0.429806 -0.756411
H70   H     H_    0.336814 0.643291 0.461059 0.297809
O33   O     O_3   0.758547 0.918163 0.588973 -0.720151
H71   H     H_    0.844107 0.881535 0.586162 0.316731
O34   O     O_3   0.300040 0.862547 0.290726 -0.805196
H72   H     H_    0.250795 0.916359 0.286969 0.283258
O35   O     O_3   0.290360 0.112241 0.411648 -0.713552
H73   H     H_    0.188502 0.074708 0.387649 0.264829
C57   C     C_3   0.003882 0.686244 0.168034 -0.374251
H74   H     H_    0.088519 0.647680 0.140228 0.102980
H75   H     H_    0.954450 0.650718 0.210348 0.185464
H76   H     H_    0.905001 0.689156 0.127482 0.145723
O36   O     O_3   0.410626 0.798838 0.692889 -0.725879
H77   H     H_    0.454659 0.849037 0.668614 0.294227
C58   C     C_3   0.251545 0.729656 0.583235 -0.219288
H78   H     H_    0.333806 0.680748 0.574963 0.067336
H79   H     H_    0.129895 0.699346 0.557957 0.130514
H80   H     H_    0.291413 0.789109 0.559959 -0.058376

loop_
_geom_bond_atom_site_label_1
_geom_bond_atom_site_label_2
_ccdc_geom_bond_type
O23   P3    S    
C19   C24   A    
C35   H23   S    
O13   P2    S    
C53   H59   S    
Ba1   O1    S    
N1    N2    A    
C4    H12   S    
C44   C48   S    
C34   C40   S    
C8    H17   S    
C1    C51   S    
C37   O33   S    
C49   H44   S    
Ba1   O23   S    
O12   P1    S    
O29   H55   S    
C5    C6    S    
C56   H68   S    
C11   H19   S    
O33   H71   S    
Ba1   O8    S    
C13   C17   S    
C50   H47   S    
C27   C28   A    
O4    P4    D    
C7    H15   S    
C55   H65   S    
C35   C36   A    
O14   P7    D    
C34   C58   S    
C51   H50   S    
O17   P8    S    
C28   C29   A    
C1    H8    S    
C58   H79   S    
O2    P2    S    
C26   C38   A    
C34   O7    S    
Ba1   O5    S    
C13   C14   S    
O8    P7    S    
Ba2   O9    S    
C32   C33   A    
C21   H21   S    
Ba2   O14   S    
C15   P1    S    
C19   P4    S    
Ba2   O8    S    
C42   H7    S    
O16   P8    D    
C5    O11   S    
C18   C22   A    
C14   C15   D    
C46   H32   S    
C44   H9    S    
C48   H40   S    
Ba1   O13   S    
C21   C22   A    
C54   H62   S    
Ba2   O12   S    
C43   O2    S    
O6    P8    S    
C7    C8    S    
C5    C52   S    
C57   H76   S    
C27   C39   A    
C42   H6    S    
Ba1   O12   S    
C29   H25   S    
C36   O35   S    
O20   P1    S    
C2    H10   S    
C53   H60   S    
C9    C56   S    
C54   H61   S    
O3    P3    S    
O9    P5    S    
C52   H53   S    
C52   H52   S    
C56   H69   S    
C47   H35   S    
C50   H48   S    
O7    P4    S    
C7    H16   S    
O15   P7    S    
O28   H45   S    
C55   H66   S    
C51   H51   S    
C56   H67   S    
C23   H26   S    
Ba1   O18   S    
C58   H80   S    
C26   C37   A    
C25   C33   A    
O22   P2    D    
C18   C55   S    
O24   P3    D    
C32   C37   A    
C12   O34   S    
C30   C32   A    
Ba1   O22   S    
Ba2   O13   S    
C27   H24   S    
N3    N4    A    
O36   H77   S    
C4    O28   S    
O19   P6    D    
C26   P2    S    
C43   C46   S    
C29   C30   A    
O11   P5    S    
Ba2   P4    S    
C25   C38   A    
O30   H56   S    
C46   H33   S    
C12   H18   S    
C6    O30   S    
C41   O20   S    
C54   H63   S    
C45   H29   S    
C34   O36   S    
C40   H2    S    
C12   O3    S    
C10   C11   S    
C6    O31   S    
O32   H70   S    
C3    O15   S    
C40   H4    S    
O21   P6    S    
C1    H11   S    
C16   N1    A    
O26   H37   S    
C11   C13   D    
C41   C42   S    
C48   H38   S    
C16   C22   S    
C44   O26   S    
Ba2   O6    S    
O10   P5    D    
C14   H20   S    
C43   C47   S    
C1    C2    S    
C7    O17   S    
C5    H14   S    
C52   H54   S    
O27   H41   S    
C47   H36   S    
O18   P6    S    
C16   N4    A    
C39   P7    S    
C45   H28   S    
C33   C35   A    
C17   N2    A    
C49   H43   S    
C9    C15   D    
C8    C53   S    
C47   H34   S    
C23   C57   S    
C41   O25   S    
C50   H46   S    
C31   C36   A    
C24   H22   S    
C30   C31   A    
C25   P3    S    
C4    C50   S    
C17   N3    A    
C6    O29   S    
C31   C39   A    
C28   P5    S    
O34   H72   S    
C8    C54   S    
C51   H49   S    
C10   P6    S    
C41   H5    S    
C58   H78   S    
C3    C4    S    
Ba1   P1    S    
C20   P8    S    
Ba1   Ba2   S    
C3    O27   S    
O1    P1    D    
C45   H30   S    
C12   C23   S    
C55   H64   S    
Ba2   O4    S    
C40   H3    S    
C57   H74   S    
C42   C45   S    
C43   C44   S    
C3    C49   S    
C18   C19   A    
O35   H73   S    
C20   C24   A    
O25   H27   S    
C53   H58   S    
C48   H39   S    
C20   C21   A    
Ba2   O5    S    
C23   H13   S    
C46   H31   S    
O31   H57   S    
C2    O21   S    
Ba1   P2    S    
O5    P4    S    
C38   O32   S    
C49   H42   S    
C9    C10   S    
C57   H75   S    
C2    H1    S    
