data_mof_unit_64092.cif
_audit_creation_date              2012-10-26T18:11:56-0400
_audit_creation_method            fapswitch 2.2
_symmetry_space_group_name_H-M    P1
_symmetry_Int_Tables_number       1
_space_group_crystal_system       triclinic
_cell_length_a                    18.788221
_cell_length_b                    18.797923
_cell_length_c                    18.812862
_cell_angle_alpha                 109.454254
_cell_angle_beta                  109.47822
_cell_angle_gamma                 109.362559
_cell_volume                      5122.26844156

loop_
_atom_site_label
_atom_site_type_symbol
_atom_type_description
_atom_site_fract_x
_atom_site_fract_y
_atom_site_fract_z
_atom_type_partial_charge
C1    C     C_R   0.381043 0.500028 0.381121 0.538859
C2    C     C_R   0.314049 0.500068 0.314277 0.028713
C3    C     C_R   0.269147 0.226702 0.431817 -0.115212
C4    C     C_R   0.618430 0.618654 0.499665 0.580307
C5    C     C_R   0.204785 0.160988 0.430264 -0.002164
C6    C     C_R   0.185195 0.183270 0.497922 0.049806
C7    C     C_R   0.229363 0.269323 0.565243 -0.137454
C8    C     C_R   0.292802 0.334144 0.565731 -0.130125
C9    C     C_R   0.313206 0.313176 0.499156 0.006743
C10   C     C_R   0.763608 0.506214 0.681938 0.030333
C11   C     C_R   0.825596 0.506614 0.748638 -0.171322
C12   C     C_R   0.814681 0.822108 0.574020 0.020963
C13   C     C_R   0.814714 0.504437 0.818097 -0.012703
C14   C     C_R   0.741115 0.503874 0.823129 0.049161
C15   C     C_R   0.678834 0.502846 0.756135 -0.141875
C16   C     C_R   0.620539 0.501670 0.618752 0.598375
C17   C     C_R   0.689151 0.503702 0.686032 -0.010904
C18   C     C_R   0.998212 0.879462 0.381162 0.571999
C19   C     C_R   0.881447 0.881214 0.499782 0.577834
C20   C     C_R   0.999848 0.119060 0.619066 0.536200
C21   C     C_R   0.118652 0.118122 0.499403 0.540313
C22   C     C_R   0.998381 0.618893 0.117279 0.600864
C23   C     C_3   0.860760 0.881554 0.670090 -0.132504
C24   C     C_R   0.118901 0.500098 0.119004 0.536085
C25   C     C_R   0.999454 0.381425 0.880911 0.533201
C26   C     C_R   0.881184 0.501941 0.883107 0.595071
C27   C     C_R   0.994286 0.819490 0.242375 -0.165476
C28   C     C_R   0.380793 0.380861 0.499873 0.542169
C29   C     C_R   0.994093 0.757601 0.175927 0.042055
C30   C     C_R   0.996087 0.685381 0.182391 -0.015392
C31   C     C_R   0.996042 0.675632 0.253003 -0.152499
C32   C     C_R   0.994768 0.736887 0.318714 0.035579
C33   C     C_R   0.995696 0.810518 0.313685 -0.031303
C34   C     C_3   0.787605 0.811634 0.669939 -0.046706
C35   C     C_R   0.955723 0.229713 0.662548 -0.116391
C36   C     C_R   0.954620 0.294287 0.725469 -0.002061
C37   C     C_R   0.997899 0.314754 0.812824 0.051616
C38   C     C_R   0.040606 0.270992 0.835949 -0.143006
C39   C     C_R   0.041785 0.207399 0.772908 -0.146997
C40   C     C_R   0.751160 0.761119 0.573967 0.015676
C41   C     C_R   0.999339 0.186372 0.685859 0.000179
C42   C     C_R   0.684104 0.684418 0.498306 0.012369
C43   C     C_R   0.683255 0.672257 0.419711 -0.154694
C44   C     C_R   0.747765 0.737337 0.419524 -0.125634
C45   C     C_R   0.243507 0.421081 0.241800 -0.126849
C46   C     C_R   0.815261 0.813665 0.498281 0.033579
C47   C     C_3   0.160515 0.068212 0.357749 -0.276566
C48   C     C_3   0.203030 0.018949 0.386730 -0.425827
C49   C     C_2   0.780737 0.511712 0.611682 0.587992
C50   C     C_2   0.728133 0.507979 0.897909 0.598061
C51   C     C_2   0.988663 0.769795 0.100471 0.597840
C52   C     C_2   0.988167 0.719086 0.388260 0.589095
C53   C     C_3   0.905163 0.338082 0.697355 -0.276703
C54   C     C_3   0.814006 0.295464 0.684966 -0.430883
C55   C     C_3   0.865139 0.970786 0.698235 -0.302708
C56   C     C_R   0.178678 0.421072 0.178445 -0.128313
C57   C     C_3   0.784186 0.969917 0.641123 -0.423637
C58   C     C_2   0.818135 0.766746 0.716018 0.594539
C59   C     C_R   0.185775 0.500090 0.185937 0.030529
C60   C     C_R   0.257051 0.579097 0.257657 -0.124823
C61   C     C_R   0.320350 0.579068 0.322502 -0.127053
Cu1   Cu    Cu3+1 0.499970 0.561780 0.561770 0.988468
Cu2   Cu    Cu3+1 0.500030 0.438220 0.438230 0.974678
Cu3   Cu    Cu3+1 0.061810 0.000000 0.561760 0.984017
Cu4   Cu    Cu3+1 0.938190 0.000070 0.438240 0.949391
Cu5   Cu    Cu3+1 0.938200 0.438300 0.000110 0.987953
Cu6   Cu    Cu3+1 0.061800 0.561880 0.000070 0.990504
H1    H     H_    0.632324 0.613600 0.358735 0.135033
H2    H     H_    0.996042 0.619043 0.256128 0.168578
H3    H     H_    0.922321 0.213293 0.595224 0.136792
H4    H     H_    0.073549 0.286612 0.903067 0.110282
H5    H     H_    0.075315 0.174320 0.792208 0.134407
H6    H     H_    0.925990 0.888399 0.703020 0.174241
H7    H     H_    0.743142 0.831563 0.686345 0.118453
H8    H     H_    0.237985 0.359679 0.235110 0.124142
H9    H     H_    0.123900 0.359692 0.122956 0.120567
H10   H     H_    0.262805 0.640487 0.264055 0.124614
H11   H     H_    0.273709 0.053414 0.409243 0.159608
H12   H     H_    0.374898 0.640454 0.378185 0.123084
H13   H     H_    0.194201 0.012809 0.440269 0.174444
H14   H     H_    0.172827 0.952753 0.331249 0.158185
H15   H     H_    0.090098 0.034006 0.336029 0.164893
H16   H     H_    0.164926 0.067239 0.299970 0.160687
H17   H     H_    0.769320 0.555878 0.526560 0.352079
H18   H     H_    0.642942 0.478391 0.940489 0.343874
H19   H     H_    0.015609 0.854133 0.056492 0.348142
H20   H     H_    0.014894 0.662460 0.460126 0.351207
H21   H     H_    0.777968 0.224865 0.636859 0.155923
H22   H     H_    0.817504 0.304095 0.747557 0.173088
H23   H     H_    0.284980 0.210107 0.380384 0.133387
H24   H     H_    0.777505 0.325737 0.660320 0.156152
H25   H     H_    0.941033 0.408506 0.745656 0.161720
H26   H     H_    0.898941 0.333412 0.634860 0.163467
H27   H     H_    0.773589 0.948722 0.574141 0.161587
H28   H     H_    0.725377 0.926512 0.638560 0.150456
H29   H     H_    0.793924 0.036805 0.668837 0.148642
H30   H     H_    0.877933 0.998761 0.766244 0.156227
H31   H     H_    0.921674 0.014944 0.698207 0.160050
H32   H     H_    0.892874 0.712120 0.739758 0.351626
H33   H     H_    0.214221 0.286281 0.617170 0.118723
H34   H     H_    0.326303 0.400402 0.618510 0.144157
H35   H     H_    0.883231 0.508750 0.746619 0.152259
H36   H     H_    0.621747 0.502054 0.758666 0.167277
H37   H     H_    0.992878 0.875314 0.238515 0.162268
H38   H     H_    0.745558 0.727661 0.358587 0.144347
O1    O     O_R   0.409790 0.552170 0.461990 -0.512274
O2    O     O_R   0.052170 0.642450 0.090210 -0.489672
O3    O     O_R   0.038000 0.447920 0.090280 -0.514873
O4    O     O_R   0.409840 0.447810 0.357660 -0.518784
O5    O     O_R   0.142370 0.552280 0.090250 -0.516503
O6    O     O_R   0.947830 0.357730 0.909970 -0.523517
O7    O     O_R   0.052200 0.462090 0.909940 -0.516849
O8    O     O_R   0.857630 0.447900 0.909930 -0.493947
O9    O     O_R   0.962000 0.552260 0.909900 -0.489684
O10   O     O_R   0.590140 0.642360 0.552170 -0.509710
O11   O     O_R   0.590190 0.538010 0.447840 -0.492541
O12   O     O_R   0.947790 0.909920 0.357650 -0.513111
O13   O     O_R   0.590160 0.552190 0.642340 -0.488094
O14   O     O_R   0.590210 0.447830 0.538010 -0.484077
O15   O     O_R   0.409810 0.461990 0.552160 -0.515424
O16   O     O_R   0.409860 0.357640 0.447830 -0.523204
O17   O     O_R   0.052180 0.909860 0.461960 -0.483400
O18   O     O_2   0.822406 0.479935 0.590001 -0.527213
O19   O     O_R   0.752253 0.555592 0.572266 -0.652530
O20   O     O_2   0.790485 0.546119 0.971175 -0.470474
O21   O     O_R   0.643680 0.470626 0.884805 -0.710260
O22   O     O_2   0.951203 0.707089 0.027609 -0.465081
O23   O     O_R   0.962030 0.909820 0.552150 -0.476384
O24   O     O_R   0.024085 0.853902 0.112522 -0.721191
O25   O     O_2   0.948730 0.743130 0.421783 -0.501317
O26   O     O_R   0.024436 0.671440 0.413111 -0.700047
O27   O     O_2   0.790672 0.752702 0.763174 -0.495277
O28   O     O_R   0.877388 0.741170 0.704956 -0.672000
O29   O     O_R   0.857630 0.909880 0.447840 -0.520334
O30   O     O_R   0.052210 0.090150 0.642360 -0.522135
O31   O     O_R   0.947820 0.090210 0.538040 -0.517192
O32   O     O_R   0.142360 0.090190 0.552160 -0.513716
O33   O     O_R   0.037970 0.090250 0.447850 -0.513087
O34   O     O_R   0.947800 0.538090 0.090240 -0.484097

loop_
_geom_bond_atom_site_label_1
_geom_bond_atom_site_label_2
_ccdc_geom_bond_type
Cu2   O4    S    
C56   H9    S    
Cu5   O8    S    
C27   C29   A    
C11   C13   A    
C19   O23   A    
C4    O10   A    
C35   C36   A    
C21   O32   A    
C20   C41   S    
C51   O24   S    
C19   C46   S    
C7    C8    A    
C39   C41   A    
C14   C50   S    
C44   H38   S    
C27   C33   A    
C19   O29   A    
C5    C47   S    
C12   C23   S    
Cu1   Cu2   S    
C3    H23   S    
C34   C40   S    
C36   C37   A    
Cu6   O9    S    
C30   C31   A    
C10   C17   A    
C48   H11   S    
C22   O2    A    
C49   O18   D    
C27   H37   S    
Cu1   O10   S    
C48   H14   S    
H32   O28   S    
C1    C2    S    
C47   H15   S    
H20   O26   S    
C32   C52   S    
C36   C53   S    
C25   O7    A    
C1    O4    A    
Cu5   O34   S    
C47   C48   S    
C35   H3    S    
C58   O27   D    
C8    C9    A    
Cu3   O23   S    
C57   H29   S    
C39   H5    S    
C50   O21   S    
C47   H16   S    
Cu5   O6    S    
C8    H34   S    
Cu1   O15   S    
Cu4   O29   S    
C2    C61   A    
C1    O1    A    
C25   C37   S    
C40   C42   A    
Cu5   Cu6   S    
Cu3   O30   S    
C59   C60   A    
C2    C45   A    
C13   C14   A    
H18   O21   S    
C21   O33   A    
C23   H6    S    
Cu2   O16   S    
C44   C46   A    
Cu3   O32   S    
C58   O28   S    
C38   C39   A    
C60   H10   S    
C7    H33   S    
C53   H26   S    
C24   O5    A    
C45   C56   A    
C54   H22   S    
C12   C46   A    
C28   O15   A    
C16   O14   A    
C28   O16   A    
C16   C17   S    
C53   C54   S    
C49   O19   S    
C22   O34   A    
C60   C61   A    
C12   C40   A    
C43   C44   A    
C26   O9    A    
C29   C30   A    
C3    C9    A    
C16   O13   A    
Cu2   O14   S    
Cu6   O5    S    
C31   C32   A    
C23   C34   S    
C55   H30   S    
C53   H25   S    
C50   O20   D    
C20   O31   A    
C18   O12   A    
C18   O17   A    
C24   O3    A    
Cu4   O33   S    
C34   H7    S    
C37   C38   A    
C57   H27   S    
C55   C57   S    
C13   C26   S    
C42   C43   A    
Cu2   O11   S    
C29   C51   S    
C15   C17   A    
C38   H4    S    
C22   C30   S    
C52   O26   S    
C4    O11   A    
Cu5   O3    S    
C3    C5    A    
H19   O24   S    
C23   C55   S    
C6    C7    A    
Cu1   O1    S    
H17   O19   S    
C43   H1    S    
C56   C59   A    
C45   H8    S    
C52   O25   D    
C32   C33   A    
C48   H13   S    
C26   O8    A    
C51   O22   D    
C54   H24   S    
Cu3   Cu4   S    
C54   H21   S    
C6    C21   S    
Cu6   O2    S    
C5    C6    A    
C4    C42   S    
C61   H12   S    
C24   C59   S    
Cu3   O17   S    
C55   H31   S    
C11   H35   S    
C20   O30   A    
C35   C41   A    
C18   C33   S    
Cu1   O13   S    
Cu4   O31   S    
C10   C11   A    
C25   O6    A    
Cu6   O7    S    
C31   H2    S    
C57   H28   S    
C34   C58   S    
Cu4   O12   S    
C14   C15   A    
C15   H36   S    
C10   C49   S    
C9    C28   S    
