data_mof_unit_54937.cif
_audit_creation_date              2012-12-11T15:52:42-0500
_audit_creation_method            fapswitch 2.2
_symmetry_space_group_name_H-M    P1
_symmetry_Int_Tables_number       1
_space_group_crystal_system       triclinic
_cell_length_a                    7.013033
_cell_length_b                    14.52998
_cell_length_c                    16.051494
_cell_angle_alpha                 90.037089
_cell_angle_beta                  90.464987
_cell_angle_gamma                 90.582527
_cell_volume                      1635.49603517

loop_
_atom_site_label
_atom_site_type_symbol
_atom_type_description
_atom_site_fract_x
_atom_site_fract_y
_atom_site_fract_z
_atom_type_partial_charge
O1    O     O_R   0.494400 0.415640 0.412830 -0.541957
O2    O     O_R   0.823920 0.405510 0.586560 -0.545808
O3    O     O_R   0.994250 0.584360 0.587170 -0.504261
C1    C     C_R   0.654821 0.382930 0.614772 0.700583
O4    O     O_R   0.824110 0.404610 0.413450 -0.515888
O5    O     O_R   0.994440 0.583460 0.412820 -0.533363
C2    C     C_R   0.655182 0.383827 0.383468 0.752419
O6    O     O_R   0.494210 0.416540 0.587180 -0.551186
O7    O     O_3   0.660810 0.558680 0.500000 -0.339191
V1    V     V_3+5 0.935650 0.489110 0.500000 1.575428
O8    O     O_R   0.324150 0.594490 0.413440 -0.526996
C3    C     C_R   0.155710 0.618038 0.385880 0.773295
O9    O     O_R   0.323970 0.595390 0.586550 -0.531964
C4    C     C_R   0.156843 0.614797 0.617235 0.742959
V2    V     V_3+5 0.435660 0.510890 0.500000 1.570986
O10   O     O_3   0.160630 0.441320 0.500000 -0.382237
C5    C     C_3   0.957123 0.673063 0.737730 0.468620
C6    C     C_3   0.968990 0.732163 0.818290 -0.310063
H1    H     H_    0.006549 0.686840 0.871434 0.192648
H2    H     H_    0.832280 0.755372 0.839072 0.231175
H3    H     H_    0.061149 0.792824 0.599215 0.218115
C7    C     C_3   0.160738 0.783476 0.652625 -0.309970
C8    C     C_3   0.313132 0.673114 0.752949 -0.421822
C9    C     C_3   0.147597 0.683903 0.688501 -0.111196
H4    H     H_    0.448053 0.667252 0.721121 0.252744
H5    H     H_    0.295345 0.606507 0.786110 0.199665
C10   C     C_3   0.124293 0.808902 0.811394 -0.143020
C11   C     C_3   0.121201 0.855443 0.721913 0.052559
C12   C     C_3   0.317936 0.755183 0.816779 0.451576
H6    H     H_    0.305936 0.795287 0.626928 0.189044
H7    H     H_    0.235543 0.907706 0.718290 0.136374
C13   C     C_R   0.977120 0.743243 0.193370 0.395981
C14   C     C_R   0.991742 0.682208 0.260626 -0.142619
H8    H     H_    0.882271 0.629713 0.267990 0.183757
C15   C     C_R   0.146379 0.686543 0.316904 -0.159654
C16   C     C_R   0.288261 0.755278 0.304724 0.168827
C17   C     C_R   0.273913 0.815942 0.237154 -0.133338
H9    H     H_    0.383037 0.868562 0.229753 0.176781
C18   C     C_R   0.119388 0.811539 0.180896 -0.160651
C19   C     C_R   0.809671 0.273032 0.715179 -0.107231
H10   H     H_    0.948651 0.291230 0.690918 0.122333
C20   C     C_R   0.798753 0.208492 0.779649 -0.101664
H11   H     H_    0.929853 0.178841 0.802876 0.123567
C21   C     C_R   0.621488 0.182611 0.813462 -0.034688
C22   C     C_R   0.455406 0.222909 0.780873 -0.125328
H12   H     H_    0.316418 0.204685 0.805115 0.120377
C23   C     C_R   0.466358 0.287610 0.716520 -0.121820
H13   H     H_    0.335275 0.317336 0.693349 0.122247
C24   C     C_R   0.643665 0.313616 0.682811 -0.035536
C25   C     C_R   0.796020 0.304863 0.256036 0.423232
C26   C     C_R   0.782140 0.238509 0.192619 -0.176589
H14   H     H_    0.898345 0.232571 0.148926 0.192907
C27   C     C_R   0.619721 0.181840 0.183593 -0.195781
C28   C     C_R   0.469297 0.192536 0.241237 0.420750
C29   C     C_R   0.483163 0.258902 0.304649 -0.178038
H15   H     H_    0.366971 0.264836 0.348351 0.191698
C30   C     C_R   0.645577 0.315580 0.313667 -0.196844
O11   O     O_R   0.771300 0.080930 0.910090 -0.547344
O12   O     O_R   0.441270 0.092800 0.083770 -0.516375
O13   O     O_R   0.271080 0.913920 0.084380 -0.526398
C31   C     C_R   0.610164 0.113602 0.113786 0.748033
O14   O     O_R   0.441580 0.091910 0.910670 -0.554210
O15   O     O_R   0.271390 0.913020 0.910040 -0.522870
C32   C     C_R   0.610532 0.113930 0.882001 0.690179
O16   O     O_R   0.770990 0.081830 0.084440 -0.545901
O17   O     O_3   0.604750 0.938760 0.997250 -0.333627
V3    V     V_3+5 0.329850 0.008280 0.997210 1.584316
O18   O     O_R   0.941680 0.901940 0.910610 -0.523522
C33   C     C_R   0.110022 0.880230 0.881374 0.768007
O19   O     O_R   0.941370 0.902830 0.083720 -0.516012
C34   C     C_R   0.109863 0.879714 0.111625 0.810827
V4    V     V_3+5 0.829860 0.986420 0.997150 1.612262
O20   O     O_3   0.104830 0.056030 0.997180 -0.387623
Cl1   Cl    Cl    0.766126 0.708103 0.670699 -0.620799
I1    I     I_    0.546056 0.851376 0.793164 -0.267315
Cl2   Cl    Cl    0.781878 0.727487 0.124678 -0.549941
I2    I     I_    0.522818 0.779332 0.387265 -0.297069
I3    I     I_    0.892859 0.532851 0.775369 -0.357617
Cl3   Cl    Cl    0.001581 0.375839 0.256962 -0.621401
Cl4   Cl    Cl    0.263828 0.121498 0.240335 -0.643017
I4    I     I_    0.916491 0.956736 0.686147 -0.333012
Cl5   Cl    Cl    0.367275 0.710268 0.919258 -0.561515

loop_
_geom_bond_atom_site_label_1
_geom_bond_atom_site_label_2
_ccdc_geom_bond_type
C29   H15   S    
C10   C12   S    
C15   C16   A    
C1    O6    A    
C25   Cl3   S    
C23   C24   A    
C27   C28   A    
C21   C32   S    
O14   V3    S    
C8    C12   S    
C16   C17   A    
C16   I2    S    
O5    C3    A    
C8    H5    S    
C19   C24   A    
C6    H1    S    
C13   C18   A    
C4    C9    S    
O14   C32   A    
O12   V3    S    
O8    V2    S    
O17   V4    S    
O15   C33   A    
O13   V3    S    
O18   C33   A    
C8    C9    S    
O19   C34   A    
V3    O20   S    
O7    V1    S    
C10   C33   S    
C19   C20   A    
O17   V3    S    
C7    C11   S    
O9    C4    A    
C20   C21   A    
C5    C6    S    
C28   Cl4   S    
C22   C23   A    
O11   C32   A    
O15   V3    S    
O12   C31   A    
C5    C9    S    
C26   H14   S    
O4    C2    A    
O13   C34   A    
C25   C26   A    
C22   H12   S    
C26   C27   A    
O2    C1    A    
O5    V1    S    
C17   H9    S    
C23   H13   S    
O18   V4    S    
C14   H8    S    
C3    C15   S    
O3    C4    A    
O1    V2    S    
C19   H10   S    
O6    V2    S    
O9    V2    S    
C5    Cl1   S    
C7    C9    S    
C20   H11   S    
C27   C31   S    
O2    V1    S    
C21   C22   A    
C28   C29   A    
C7    H6    S    
C11   I4    S    
O1    C2    A    
C25   C30   A    
C11   H7    S    
C6    C10   S    
V4    O20   S    
C13   Cl2   S    
O8    C3    A    
C12   I1    S    
O16   V4    S    
C1    C24   S    
C13   C14   A    
C29   C30   A    
O7    V2    S    
O4    V1    S    
C17   C18   A    
O3    V1    S    
V1    O10   S    
O11   V4    S    
C5    I3    S    
C14   C15   A    
C6    H2    S    
C8    H4    S    
C31   O16   A    
C12   Cl5   S    
C10   C11   S    
C18   C34   S    
O19   V4    S    
H3    C7    S    
C2    C30   S    
V2    O10   S    
