data_mof_unit_34257.cif
_audit_creation_date              2012-12-11T17:12:44-0500
_audit_creation_method            fapswitch 2.2
_symmetry_space_group_name_H-M    P1
_symmetry_Int_Tables_number       1
_space_group_crystal_system       triclinic
_cell_length_a                    17.173383
_cell_length_b                    6.884083
_cell_length_c                    14.413396
_cell_angle_alpha                 89.999347
_cell_angle_beta                  110.089925
_cell_angle_gamma                 90.000813
_cell_volume                      1600.31469594

loop_
_atom_site_label
_atom_site_type_symbol
_atom_type_description
_atom_site_fract_x
_atom_site_fract_y
_atom_site_fract_z
_atom_type_partial_charge
O1    O     O_R   0.314130 0.635770 0.168990 -0.548494
O2    O     O_R   0.685870 0.364230 0.831010 -0.532948
O3    O     O_R   0.185870 0.135770 0.331010 -0.548489
O4    O     O_R   0.814130 0.864230 0.668990 -0.532963
O5    O     O_R   0.146800 0.302460 0.139760 -0.541752
O6    O     O_R   0.853200 0.697540 0.860240 -0.531543
O7    O     O_R   0.353200 0.802460 0.360240 -0.541761
O8    O     O_R   0.646800 0.197540 0.639760 -0.531553
C1    C     C_R   0.114238 0.475944 0.112415 0.708261
C2    C     C_R   0.886095 0.524170 0.887021 0.722632
C3    C     C_R   0.385762 0.975945 0.387586 0.708219
C4    C     C_R   0.613905 0.024169 0.612979 0.722628
O9    O     O_R   0.311100 0.305780 0.157130 -0.542913
O10   O     O_R   0.688900 0.694220 0.842870 -0.553103
O11   O     O_R   0.188900 0.805780 0.342870 -0.542906
O12   O     O_R   0.811100 0.194220 0.657130 -0.553107
O13   O     O_R   0.351340 0.139640 0.348510 -0.528645
O14   O     O_R   0.648660 0.860360 0.651490 -0.542655
O15   O     O_R   0.148660 0.639640 0.151490 -0.528639
O16   O     O_R   0.851340 0.360360 0.848510 -0.542645
C5    C     C_R   0.335645 0.474495 0.139252 0.744601
C6    C     C_R   0.665163 0.525637 0.861504 0.735344
C7    C     C_R   0.164356 0.974494 0.360749 0.744638
C8    C     C_R   0.834829 0.025637 0.638485 0.735385
C9    C     C_1   0.533348 0.008942 0.533482 -0.183801
C10   C     C_1   0.466133 0.991234 0.467437 -0.197274
C11   C     C_1   0.966652 0.508943 0.966517 -0.183824
C12   C     C_1   0.033867 0.491234 0.032562 -0.197267
O17   O     O_3   0.263010 0.470920 0.312770 -0.368077
O18   O     O_3   0.736990 0.529080 0.687230 -0.368385
O19   O     O_3   0.236990 0.970920 0.187230 -0.368076
O20   O     O_3   0.763010 0.029080 0.812770 -0.368365
V1    V     V_3+5 0.247590 0.194450 0.238360 1.429455
V2    V     V_3+5 0.752410 0.805550 0.761640 1.440779
V3    V     V_3+5 0.252410 0.694450 0.261640 1.429459
V4    V     V_3+5 0.747590 0.305550 0.738360 1.440774
C13   C     C_R   0.113726 0.983685 0.424992 -0.137140
C14   C     C_R   0.885732 0.018369 0.574858 -0.127731
C15   C     C_R   0.386272 0.483686 0.075004 -0.137176
C16   C     C_R   0.614258 0.518378 0.925124 -0.127712
C17   C     C_R   0.893279 0.034907 0.410196 -0.168974
C18   C     C_R   0.105073 0.948240 0.588690 -0.166606
C19   C     C_R   0.606708 0.535100 0.089779 -0.168982
C20   C     C_R   0.394929 0.448088 0.911315 -0.166601
C21   C     C_R   0.846727 0.033918 0.472596 -0.258347
C22   C     C_R   0.150974 0.941567 0.525540 -0.260812
C23   C     C_R   0.653257 0.534085 0.027381 -0.258332
C24   C     C_R   0.349030 0.441453 0.974467 -0.260777
C25   C     C_R   0.973056 0.002026 0.615553 0.355128
C26   C     C_R   0.028100 0.027927 0.386347 0.340784
C27   C     C_R   0.526937 0.501925 0.884432 0.355168
C28   C     C_R   0.471893 0.528008 0.113635 0.340789
C29   C     C_R   0.019662 0.988754 0.551683 0.022936
C30   C     C_R   0.980089 0.017387 0.448712 0.030942
C31   C     C_R   0.480334 0.488693 0.948306 0.022923
C32   C     C_R   0.519901 0.517458 0.051269 0.030973
H1    H     H_    0.216256 0.905644 0.555425 0.141163
H2    H     H_    0.779876 0.047407 0.441005 0.134269
H3    H     H_    0.283752 0.405464 0.944592 0.141161
H4    H     H_    0.720105 0.547673 0.058968 0.134286
H5    H     H_    0.860788 0.047961 0.331502 0.162054
H6    H     H_    0.136539 0.918667 0.666417 0.165040
H7    H     H_    0.639196 0.548272 0.168470 0.162057
H8    H     H_    0.363467 0.418422 0.833598 0.165050
O21   O     O_3   0.989925 0.065642 0.286449 -0.588554
C33   C     C_3   0.000230 0.263858 0.266458 0.093033
H9    H     H_    0.005518 0.270441 0.191991 0.148278
H10   H     H_    0.057693 0.331166 0.318705 0.113439
C34   C     C_3   0.924897 0.384748 0.265050 -0.380993
H11   H     H_    0.867148 0.315749 0.215232 0.203853
H12   H     H_    0.922077 0.392158 0.340780 0.202281
C35   C     C_3   0.930277 0.591537 0.229633 -0.767167
H13   H     H_    0.989209 0.660618 0.276030 0.246976
H14   H     H_    0.877607 0.678743 0.235072 0.234915
H15   H     H_    0.927178 0.590683 0.151447 0.225100
O22   O     O_3   0.012856 0.992636 0.717109 -0.588893
C36   C     C_3   0.020586 0.181806 0.758627 0.072286
H16   H     H_    0.024177 0.166003 0.836711 0.152465
H17   H     H_    0.966090 0.276601 0.722177 0.112787
C37   C     C_3   0.099714 0.283208 0.757126 -0.353749
H18   H     H_    0.154530 0.191164 0.795418 0.198973
H19   H     H_    0.096341 0.305504 0.679549 0.200256
C38   C     C_3   0.110559 0.481338 0.807572 -0.804611
H20   H     H_    0.055557 0.574504 0.771839 0.255815
H21   H     H_    0.166096 0.554767 0.801245 0.226801
H22   H     H_    0.119190 0.463907 0.887060 0.222453
O23   O     O_3   0.510071 0.565777 0.213528 -0.588557
C39   C     C_3   0.499722 0.763980 0.233501 0.093050
H23   H     H_    0.494428 0.770542 0.307967 0.148272
H24   H     H_    0.442246 0.831221 0.181245 0.113458
C40   C     C_3   0.575028 0.884975 0.234903 -0.381042
H25   H     H_    0.632795 0.816049 0.284725 0.203831
H26   H     H_    0.577850 0.892409 0.159171 0.202270
C41   C     C_3   0.569599 0.091749 0.270311 -0.767039
H27   H     H_    0.510635 0.160729 0.223935 0.246917
H28   H     H_    0.622228 0.179064 0.264832 0.234978
H29   H     H_    0.572725 0.090879 0.348509 0.225080
O24   O     O_3   0.487139 0.492339 0.782878 -0.588887
C42   C     C_3   0.479379 0.681419 0.741256 0.072243
H30   H     H_    0.475742 0.665446 0.663164 0.152463
H31   H     H_    0.533881 0.776245 0.777620 0.112812
C43   C     C_3   0.400270 0.782897 0.742764 -0.353758
H32   H     H_    0.345438 0.690882 0.704493 0.198952
H33   H     H_    0.403657 0.805245 0.820341 0.200271
C44   C     C_3   0.389443 0.981004 0.692294 -0.804592
H34   H     H_    0.444472 0.074117 0.727977 0.255794
H35   H     H_    0.333940 0.054522 0.698663 0.226793
H36   H     H_    0.380760 0.963519 0.612796 0.222426

loop_
_geom_bond_atom_site_label_1
_geom_bond_atom_site_label_2
_ccdc_geom_bond_type
C2    C11   S    
C16   C23   A    
C33   H10   S    
C31   C32   A    
O1    C5    A    
O3    C7    A    
C17   H5    S    
O23   C39   S    
C19   H7    S    
C14   C25   A    
C29   C30   A    
C20   H8    S    
O7    C3    A    
C44   H35   S    
C26   C30   A    
O20   V4    S    
C34   H11   S    
C35   H15   S    
C18   C29   A    
O8    V4    S    
O4    C8    A    
C33   C34   S    
O3    V1    S    
O17   V1    S    
C43   C44   S    
C18   C22   A    
C34   H12   S    
C14   C21   A    
C23   H4    S    
C1    O15   A    
C38   H20   S    
C2    O16   A    
O5    V1    S    
O2    C6    A    
C8    C14   S    
O19   V1    S    
C18   H6    S    
C36   H16   S    
C27   O24   S    
O11   C7    A    
C15   C28   A    
O12   C8    A    
O9    V1    S    
C43   H32   S    
O13   V1    S    
C37   C38   S    
O11   V3    S    
C36   H17   S    
C44   H36   S    
O4    V2    S    
C21   H2    S    
O18   V2    S    
O22   C36   S    
C35   H14   S    
C40   H25   S    
C35   H13   S    
C41   H29   S    
C9    C10   T    
C7    C13   S    
O6    V2    S    
O20   V2    S    
C34   C35   S    
C41   H28   S    
O5    C1    A    
C40   H26   S    
C42   H30   S    
C5    C15   S    
C39   C40   S    
O8    C4    A    
C6    C16   S    
C38   H22   S    
C25   O22   S    
O9    C5    A    
C43   H33   S    
O14   V2    S    
C37   H19   S    
C42   H31   S    
C39   H24   S    
O21   C33   S    
C22   H1    S    
O19   V3    S    
O1    V3    S    
C24   H3    S    
C36   C37   S    
O2    V4    S    
C3    O13   A    
C38   H21   S    
O7    V3    S    
C28   O23   S    
C37   H18   S    
O10   V2    S    
C16   C27   A    
C44   H34   S    
O17   V3    S    
C3    C10   S    
O18   V4    S    
C4    C9    S    
O10   C6    A    
O15   V3    S    
O12   V4    S    
C40   C41   S    
C13   C26   A    
C20   C31   A    
C25   C29   A    
C33   H9    S    
C27   C31   A    
C41   H27   S    
C26   O21   S    
C17   C30   A    
O6    C2    A    
O16   V4    S    
C28   C32   A    
C19   C32   A    
C42   C43   S    
C39   H23   S    
O24   C42   S    
C4    O14   A    
C11   C12   T    
C17   C21   A    
C13   C22   A    
C19   C23   A    
C20   C24   A    
C1    C12   S    
C15   C24   A    
