data_mof_unit_61933.cif
_audit_creation_date              2012-12-10T17:53:39-0500
_audit_creation_method            fapswitch 2.2
_symmetry_space_group_name_H-M    P1
_symmetry_Int_Tables_number       1
_space_group_crystal_system       triclinic
_cell_length_a                    19.663061
_cell_length_b                    19.663289
_cell_length_c                    51.482198
_cell_angle_alpha                 90.000615
_cell_angle_beta                  90.000442
_cell_angle_gamma                 90.001807
_cell_volume                      19905.100245

loop_
_atom_site_label
_atom_site_type_symbol
_atom_type_description
_atom_site_fract_x
_atom_site_fract_y
_atom_site_fract_z
_atom_type_partial_charge
C1    C     C_R   0.615434 0.047570 0.013735 -0.025532
C2    C     C_R   0.884425 0.452796 0.486262 -0.025559
C3    C     C_R   0.629504 0.870496 0.250000 0.515024
C4    C     C_R   0.129504 0.629504 0.750000 0.518481
C5    C     C_R   0.870496 0.370496 0.250000 0.518479
C6    C     C_R   0.629504 0.870496 0.750000 0.515021
C7    C     C_R   0.370496 0.129504 0.250000 0.515019
C8    C     C_R   0.946905 0.532887 0.362883 -0.017188
C9    C     C_R   0.053095 0.467113 0.637117 -0.017188
C10   C     C_R   0.532896 0.946910 0.362883 -0.017189
C11   C     C_R   0.467108 0.053092 0.637117 -0.017189
C12   C     C_R   0.053100 0.467119 0.362883 -0.017191
C13   C     C_R   0.547178 0.115586 0.513738 -0.025560
C14   C     C_R   0.946900 0.532881 0.637116 -0.017191
C15   C     C_R   0.467111 0.053095 0.362884 -0.017192
C16   C     C_R   0.532886 0.946903 0.637116 -0.017193
C17   C     C_R   0.446799 0.032722 0.862881 -0.017187
C18   C     C_R   0.553196 0.967273 0.137117 -0.017189
C19   C     C_R   0.032959 0.446949 0.862883 -0.017208
C20   C     C_R   0.966951 0.552994 0.137115 -0.017196
C21   C     C_R   0.553192 0.967274 0.862881 -0.017186
C22   C     C_R   0.446819 0.032747 0.137119 -0.017181
C23   C     C_R   0.967041 0.553052 0.862883 -0.017209
C24   C     C_R   0.452824 0.884414 0.486262 -0.025561
C25   C     C_R   0.033038 0.446997 0.137114 -0.017199
C26   C     C_1   0.181182 0.681182 0.250000 0.032855
C27   C     C_1   0.818818 0.318818 0.750000 0.032862
C28   C     C_1   0.318818 0.181181 0.250000 0.038119
C29   C     C_1   0.681182 0.818818 0.750000 0.038116
C30   C     C_1   0.818817 0.318818 0.250000 0.032861
C31   C     C_1   0.181183 0.681181 0.750000 0.032861
C32   C     C_1   0.681182 0.818818 0.250000 0.038109
C33   C     C_1   0.318818 0.181182 0.750000 0.038112
C34   C     C_1   0.181182 0.318818 0.750000 0.038114
C35   C     C_R   0.884424 0.452795 0.513735 -0.025560
C36   C     C_1   0.818818 0.681182 0.250000 0.038120
C37   C     C_1   0.318817 0.818818 0.750000 0.032871
C38   C     C_1   0.681182 0.181181 0.250000 0.032873
C39   C     C_1   0.818818 0.681181 0.750000 0.038114
C40   C     C_1   0.181182 0.318819 0.250000 0.038115
C41   C     C_1   0.681182 0.181182 0.750000 0.032863
C42   C     C_1   0.318818 0.818818 0.250000 0.032857
C43   C     C_1   0.224579 0.724579 0.250000 -0.008937
C44   C     C_1   0.775421 0.275421 0.750000 -0.008930
C45   C     C_1   0.275421 0.224578 0.250000 -0.001218
C46   C     C_R   0.115576 0.547205 0.486265 -0.025560
C47   C     C_1   0.724578 0.775422 0.750000 -0.001222
C48   C     C_1   0.775421 0.275421 0.250000 -0.008929
C49   C     C_1   0.224579 0.724579 0.750000 -0.008929
C50   C     C_1   0.724578 0.775421 0.250000 -0.001223
C51   C     C_1   0.275421 0.224578 0.750000 -0.001224
C52   C     C_1   0.224578 0.275421 0.750000 -0.001221
C53   C     C_1   0.775421 0.724578 0.250000 -0.001216
C54   C     C_1   0.275421 0.775421 0.750000 -0.008925
C55   C     C_1   0.724579 0.224579 0.250000 -0.008924
C56   C     C_1   0.775421 0.724578 0.750000 -0.001221
C57   C     C_R   0.452823 0.884413 0.513735 -0.025562
C58   C     C_1   0.224578 0.275422 0.250000 -0.001218
C59   C     C_1   0.724579 0.224579 0.750000 -0.008930
C60   C     C_1   0.275421 0.775421 0.250000 -0.008936
C61   C     C_R   0.000002 0.500001 0.348985 -0.033416
C62   C     C_R   0.999998 0.499999 0.651015 -0.033416
C63   C     C_R   0.500001 0.000001 0.348985 -0.033420
C64   C     C_R   0.499999 0.999999 0.651015 -0.033418
C65   C     C_R   0.499998 0.000001 0.848984 -0.033361
C66   C     C_R   0.500003 1.000000 0.151016 -0.033365
C67   C     C_R   0.000001 0.500000 0.848985 -0.033443
C68   C     C_R   0.547179 0.115587 0.486265 -0.025562
C69   C     C_R   0.999999 0.499997 0.151014 -0.033473
C70   C     C_2   0.680493 0.062453 0.027378 0.312793
C71   C     C_2   0.319507 0.937580 0.972621 0.312802
C72   C     C_2   0.061263 0.680883 0.027381 0.312837
C73   C     C_2   0.938728 0.319114 0.972617 0.312860
C74   C     C_2   0.319509 0.937585 0.027380 0.312783
C75   C     C_2   0.680492 0.062443 0.972619 0.312798
C76   C     C_2   0.938715 0.319115 0.027377 0.312823
C77   C     C_2   0.061276 0.680880 0.972621 0.312850
C78   C     C_2   0.180678 0.561887 0.527382 0.312815
C79   C     C_R   0.448394 0.968569 0.055033 0.434655
C80   C     C_2   0.819322 0.438113 0.472618 0.312815
C81   C     C_2   0.561844 0.180692 0.527382 0.312817
C82   C     C_2   0.438158 0.819307 0.472618 0.312816
C83   C     C_2   0.819320 0.438113 0.527377 0.312815
C84   C     C_2   0.180680 0.561887 0.472623 0.312815
C85   C     C_2   0.438157 0.819306 0.527377 0.312817
C86   C     C_2   0.561845 0.180695 0.472623 0.312817
C87   C     C_2   0.888731 0.565703 0.349278 0.271263
C88   C     C_2   0.111269 0.434297 0.650722 0.271263
C89   C     C_2   0.565721 0.888742 0.349278 0.271269
C90   C     C_R   0.551606 0.031461 0.944967 0.434660
C91   C     C_2   0.434288 0.111263 0.650722 0.271266
C92   C     C_2   0.111276 0.434302 0.349278 0.271238
C93   C     C_2   0.888724 0.565698 0.650721 0.271238
C94   C     C_2   0.434286 0.111265 0.349279 0.271239
C95   C     C_2   0.565708 0.888731 0.650721 0.271243
C96   C     C_2   0.388532 0.065372 0.849273 0.271140
C97   C     C_2   0.611458 0.934608 0.150723 0.271111
C98   C     C_2   0.065845 0.388811 0.849279 0.271266
C99   C     C_2   0.933974 0.611078 0.150718 0.271342
C100  C     C_2   0.611450 0.934610 0.849273 0.271188
C101  C     C_R   0.968865 0.448190 0.055031 0.434637
C102  C     C_2   0.388569 0.065422 0.150728 0.271216
C103  C     C_2   0.934154 0.611189 0.849279 0.271273
C104  C     C_2   0.066014 0.388909 0.150716 0.271306
C105  C     C_R   0.384567 0.952460 0.986264 -0.025531
C106  C     C_R   0.031133 0.551800 0.944969 0.434634
C107  C     C_R   0.551611 0.031475 0.055032 0.434669
C108  C     C_R   0.448393 0.968549 0.944968 0.434668
C109  C     C_R   0.031112 0.551806 0.055032 0.434634
C110  C     C_R   0.968861 0.448200 0.944968 0.434642
C111  C     C_R   0.948297 0.468697 0.555031 0.434655
C112  C     C_R   0.051703 0.531304 0.444969 0.434656
C113  C     C_R   0.468709 0.948290 0.555031 0.434654
C114  C     C_R   0.531292 0.051710 0.444969 0.434654
C115  C     C_R   0.051700 0.531296 0.555033 0.434655
C116  C     C_R   0.046806 0.615731 0.013737 -0.025597
C117  C     C_R   0.948300 0.468704 0.444967 0.434653
C118  C     C_R   0.531285 0.051707 0.555033 0.434653
C119  C     C_R   0.468716 0.948293 0.444967 0.434652
C120  C     C_R   0.556481 0.026565 0.027604 0.032510
C121  C     C_R   0.443521 0.973463 0.972395 0.032516
C122  C     C_R   0.026175 0.556645 0.027605 0.032513
C123  C     C_R   0.973807 0.443355 0.972395 0.032523
C124  C     C_R   0.443522 0.973473 0.027605 0.032522
C125  C     C_R   0.556479 0.026557 0.972395 0.032521
C126  C     C_R   0.973806 0.443351 0.027603 0.032509
C127  C     C_R   0.953180 0.384267 0.986262 -0.025597
C128  C     C_R   0.026185 0.556643 0.972396 0.032518
C129  C     C_R   0.056558 0.526375 0.527605 0.032516
C130  C     C_R   0.943442 0.473625 0.472394 0.032516
C131  C     C_R   0.526362 0.056564 0.527605 0.032516
C132  C     C_R   0.473640 0.943436 0.472394 0.032516
C133  C     C_R   0.943441 0.473622 0.527604 0.032514
C134  C     C_R   0.056559 0.526378 0.472396 0.032514
C135  C     C_R   0.473636 0.943435 0.527604 0.032515
C136  C     C_R   0.526365 0.056565 0.472396 0.032514
C137  C     C_R   0.500001 0.000017 0.013778 -0.056201
C138  C     C_R   0.384568 0.952464 0.013737 -0.025524
C139  C     C_R   0.500000 0.000012 0.986222 -0.056202
C140  C     C_R   0.999992 0.499998 0.013778 -0.056206
C141  C     C_R   0.999994 0.499999 0.986222 -0.056206
C142  C     C_R   1.000000 0.499999 0.513778 -0.056204
C143  C     C_R   0.000000 0.500001 0.486222 -0.056204
C144  C     C_R   0.500000 1.000000 0.513778 -0.056204
C145  C     C_R   0.500002 0.000000 0.486222 -0.056204
C146  C     C_R   0.948000 0.532676 0.390191 -0.013387
C147  C     C_R   0.052000 0.467324 0.609808 -0.013387
C148  C     C_R   0.532685 0.948006 0.390191 -0.013388
C149  C     C_R   0.615433 0.047566 0.986263 -0.025525
C150  C     C_R   0.467319 0.051996 0.609808 -0.013388
C151  C     C_R   0.052006 0.467335 0.390192 -0.013383
C152  C     C_R   0.947994 0.532665 0.609808 -0.013384
C153  C     C_R   0.467327 0.052000 0.390192 -0.013385
C154  C     C_R   0.532671 0.947998 0.609808 -0.013385
C155  C     C_R   0.447891 0.032506 0.890190 -0.013359
C156  C     C_R   0.552105 0.967499 0.109808 -0.013356
C157  C     C_R   0.032750 0.448048 0.890191 -0.013397
C158  C     C_R   0.967158 0.551894 0.109807 -0.013411
C159  C     C_R   0.552102 0.967490 0.890190 -0.013363
C160  C     C_R   0.953178 0.384266 0.013734 -0.025603
C161  C     C_R   0.447911 0.032540 0.109811 -0.013366
C162  C     C_R   0.967250 0.551953 0.890191 -0.013396
C163  C     C_R   0.032822 0.448096 0.109806 -0.013406
C164  C     C_R   0.000003 0.500006 0.403869 0.170680
C165  C     C_R   0.999997 0.499994 0.596131 0.170679
C166  C     C_R   0.500006 0.000003 0.403869 0.170677
C167  C     C_R   0.499995 0.999997 0.596131 0.170675
C168  C     C_R   0.499997 1.000000 0.903867 0.170665
C169  C     C_R   0.500007 0.000021 0.096132 0.170672
C170  C     C_R   0.999999 0.500001 0.903869 0.170626
C171  C     C_R   0.046812 0.615730 0.986265 -0.025598
C172  C     C_R   0.999989 0.499996 0.096130 0.170678
C173  C     C_R   1.000000 0.499998 0.179779 0.457111
C174  C     C_R   0.000000 0.500000 0.820220 0.457105
C175  C     C_R   0.500003 1.000000 0.179780 0.457057
C176  C     C_R   0.499999 0.000000 0.820219 0.457055
C177  C     C_R   0.500000 0.999999 0.679780 0.457082
C178  C     C_R   0.500000 0.000001 0.320220 0.457084
C179  C     C_R   0.999999 0.500000 0.679780 0.457078
C180  C     C_R   0.000001 0.500000 0.320220 0.457079
C181  C     C_R   0.870496 0.629504 0.250000 0.515013
C182  C     C_R   0.115575 0.547204 0.513738 -0.025558
C183  C     C_R   0.129504 0.370496 0.750000 0.515017
C184  C     C_R   0.370496 0.870496 0.250000 0.518478
C185  C     C_R   0.629504 0.129504 0.750000 0.518480
C186  C     C_R   0.129504 0.370496 0.250000 0.515011
C187  C     C_R   0.870496 0.629504 0.750000 0.515014
C188  C     C_R   0.629504 0.129504 0.250000 0.518483
C189  C     C_R   0.370496 0.870496 0.750000 0.518483
C190  C     C_R   0.870496 0.370496 0.750000 0.518482
C191  C     C_R   0.129504 0.629504 0.250000 0.518477
C192  C     C_R   0.370496 0.129504 0.750000 0.515026
H1    H     H_    0.907976 0.557566 0.401093 0.201796
H2    H     H_    0.592198 0.942723 0.098905 0.201820
H3    H     H_    0.057702 0.408063 0.901092 0.201870
H4    H     H_    0.942144 0.591842 0.098907 0.201794
H5    H     H_    0.592201 0.942720 0.901091 0.201814
H6    H     H_    0.407817 0.057323 0.098911 0.201801
H7    H     H_    0.942297 0.591939 0.901092 0.201868
H8    H     H_    0.057832 0.408148 0.098904 0.201801
H9    H     H_    0.708552 0.108547 0.022999 0.095897
H10   H     H_    0.291440 0.891493 0.977004 0.095897
H11   H     H_    0.107178 0.709237 0.023004 0.096020
H12   H     H_    0.092024 0.442433 0.598907 0.201796
H13   H     H_    0.892831 0.290740 0.977001 0.096018
H14   H     H_    0.291452 0.891488 0.023003 0.095896
H15   H     H_    0.708556 0.108535 0.976998 0.095895
H16   H     H_    0.892797 0.290766 0.022999 0.096025
H17   H     H_    0.107182 0.709242 0.977005 0.096021
H18   H     H_    0.208881 0.607892 0.523002 0.095951
H19   H     H_    0.791119 0.392108 0.476998 0.095951
H20   H     H_    0.607843 0.208907 0.523001 0.095955
H21   H     H_    0.392160 0.791093 0.476998 0.095955
H22   H     H_    0.791117 0.392107 0.522996 0.095951
H23   H     H_    0.557583 0.907987 0.401093 0.201799
H24   H     H_    0.208883 0.607893 0.477003 0.095951
H25   H     H_    0.392159 0.791091 0.522996 0.095955
H26   H     H_    0.607843 0.208909 0.477004 0.095955
H27   H     H_    0.882492 0.560857 0.328445 0.124304
H28   H     H_    0.117508 0.439143 0.671555 0.124304
H29   H     H_    0.560868 0.882497 0.328445 0.124306
H30   H     H_    0.439138 0.117505 0.671555 0.124304
H31   H     H_    0.117494 0.439115 0.328444 0.124328
H32   H     H_    0.882505 0.560884 0.671556 0.124327
H33   H     H_    0.439102 0.117487 0.328445 0.124332
H34   H     H_    0.442424 0.092017 0.598907 0.201801
H35   H     H_    0.560888 0.882507 0.671555 0.124325
H36   H     H_    0.382422 0.060677 0.828430 0.124284
H37   H     H_    0.617547 0.939259 0.171569 0.124325
H38   H     H_    0.060999 0.382556 0.828448 0.124368
H39   H     H_    0.938919 0.617413 0.171543 0.124366
H40   H     H_    0.617601 0.939368 0.828434 0.124241
H41   H     H_    0.382393 0.060624 0.171565 0.124223
H42   H     H_    0.939006 0.617447 0.828448 0.124364
H43   H     H_    0.061126 0.382609 0.171544 0.124405
H44   H     H_    0.092030 0.442446 0.401094 0.201802
H45   H     H_    0.907970 0.557554 0.598906 0.201802
H46   H     H_    0.442431 0.092020 0.401094 0.201805
H47   H     H_    0.557565 0.907977 0.598906 0.201806
H48   H     H_    0.407792 0.057275 0.901092 0.201823
N1    N     N_R   0.500003 0.000023 0.068073 -0.407105
N2    N     N_R   0.499999 0.000003 0.931926 -0.407103
N3    N     N_R   0.999988 0.499997 0.068072 -0.407098
N4    N     N_R   0.999998 0.500000 0.931927 -0.407083
N5    N     N_R   0.999998 0.499995 0.568073 -0.407103
N6    N     N_R   0.000002 0.500005 0.431927 -0.407102
N7    N     N_R   0.499996 0.999998 0.568073 -0.407102
N8    N     N_R   0.500005 0.000002 0.431927 -0.407102
O1    O     O_3   0.000000 0.500000 0.250000 -0.442375
O2    O     O_R   0.055830 0.500000 0.807680 -0.538901
O3    O     O_2   0.098931 0.346633 0.138712 -0.455238
O4    O     O_R   0.500000 0.944170 0.192320 -0.538908
O5    O     O_R   0.500000 0.055830 0.807680 -0.538874
O6    O     O_R   0.555830 0.000000 0.692320 -0.538881
O7    O     O_R   0.444170 0.000000 0.307680 -0.538885
O8    O     O_R   0.000000 0.555830 0.692320 -0.538882
O9    O     O_R   0.000000 0.444170 0.307680 -0.538883
O10   O     O_R   0.444170 0.000000 0.692320 -0.538862
O11   O     O_R   0.555830 0.000000 0.307680 -0.538861
O12   O     O_R   0.000000 0.444170 0.692320 -0.538862
O13   O     O_3   1.000000 0.500000 0.750000 -0.442375
O14   O     O_R   1.000000 0.555830 0.307680 -0.538861
O15   O     O_R   0.865940 0.578550 0.235150 -0.530176
O16   O     O_R   0.134060 0.421450 0.764850 -0.530190
O17   O     O_R   0.421450 0.865940 0.235150 -0.526044
O18   O     O_R   0.578550 0.134060 0.764850 -0.526044
O19   O     O_R   0.134060 0.421450 0.235150 -0.530184
O20   O     O_R   0.865940 0.578550 0.764850 -0.530185
O21   O     O_R   0.578550 0.134060 0.235150 -0.526031
O22   O     O_R   0.421450 0.865940 0.764850 -0.526037
O23   O     O_R   0.865940 0.421450 0.764850 -0.526034
O24   O     O_3   0.500000 0.000000 0.250000 -0.442382
O25   O     O_R   0.134060 0.578550 0.235150 -0.526032
O26   O     O_R   0.421450 0.134060 0.764850 -0.530186
O27   O     O_R   0.578550 0.865940 0.235150 -0.530192
O28   O     O_R   0.134060 0.578550 0.764850 -0.526036
O29   O     O_R   0.865940 0.421450 0.235150 -0.526029
O30   O     O_R   0.578550 0.865940 0.764850 -0.530169
O31   O     O_R   0.421450 0.134060 0.235150 -0.530158
O32   O     O_R   0.365940 0.078550 0.735150 -0.530161
O33   O     O_R   0.634060 0.921450 0.264850 -0.530161
O34   O     O_R   0.921450 0.365940 0.735150 -0.526031
O35   O     O_3   0.500000 0.000000 0.750000 -0.442383
O36   O     O_R   0.078550 0.634060 0.264850 -0.526034
O37   O     O_R   0.634060 0.921450 0.735150 -0.530175
O38   O     O_R   0.365940 0.078550 0.264850 -0.530182
O39   O     O_R   0.078550 0.634060 0.735150 -0.526030
O40   O     O_R   0.921450 0.365940 0.264850 -0.526034
O41   O     O_R   0.365940 0.921450 0.264850 -0.526031
O42   O     O_R   0.634060 0.078550 0.735150 -0.526030
O43   O     O_R   0.921450 0.634060 0.264850 -0.530172
O44   O     O_R   0.078550 0.365940 0.735150 -0.530164
O45   O     O_R   0.634060 0.078550 0.264850 -0.526034
O46   O     O_R   0.055830 0.500000 0.192320 -0.538922
O47   O     O_R   0.365940 0.921450 0.735150 -0.526032
O48   O     O_R   0.078550 0.365940 0.264850 -0.530175
O49   O     O_R   0.921450 0.634060 0.735150 -0.530172
O50   O     O_2   0.403218 0.931264 0.068655 -0.433614
O51   O     O_2   0.596779 0.068769 0.931345 -0.433596
O52   O     O_2   0.931847 0.402776 0.068651 -0.433613
O53   O     O_2   0.068173 0.597199 0.931351 -0.433636
O54   O     O_2   0.596787 0.068784 0.068653 -0.433549
O55   O     O_2   0.403221 0.931234 0.931348 -0.433562
O56   O     O_2   0.068130 0.597218 0.068654 -0.433640
O57   O     O_R   0.944170 0.500000 0.807680 -0.538895
O58   O     O_2   0.931821 0.402802 0.931348 -0.433630
O59   O     O_2   0.903010 0.431522 0.568651 -0.433591
O60   O     O_2   0.096990 0.568478 0.431349 -0.433592
O61   O     O_2   0.431544 0.902996 0.568651 -0.433596
O62   O     O_2   0.568456 0.097005 0.431349 -0.433593
O63   O     O_2   0.096984 0.568470 0.568655 -0.433599
O64   O     O_2   0.903016 0.431530 0.431345 -0.433598
O65   O     O_2   0.568450 0.096999 0.568654 -0.433602
O66   O     O_2   0.431553 0.903000 0.431345 -0.433603
O67   O     O_2   0.704613 0.021568 0.042677 -0.401403
O68   O     O_R   0.500000 0.055830 0.192320 -0.538798
O69   O     O_2   0.295395 0.978461 0.957319 -0.401408
O70   O     O_2   0.020218 0.704737 0.042678 -0.401393
O71   O     O_2   0.979761 0.295281 0.957310 -0.401387
O72   O     O_2   0.295389 0.978475 0.042677 -0.401430
O73   O     O_2   0.704608 0.021555 0.957320 -0.401420
O74   O     O_2   0.979758 0.295256 0.042674 -0.401381
O75   O     O_2   0.020244 0.704726 0.957317 -0.401383
O76   O     O_2   0.204668 0.520930 0.542682 -0.401407
O77   O     O_2   0.795332 0.479071 0.457318 -0.401407
O78   O     O_2   0.520882 0.204672 0.542683 -0.401406
O79   O     O_R   0.500000 0.944170 0.807680 -0.538823
O80   O     O_2   0.479122 0.795328 0.457317 -0.401406
O81   O     O_2   0.795329 0.479071 0.542678 -0.401404
O82   O     O_2   0.204671 0.520929 0.457322 -0.401404
O83   O     O_2   0.479120 0.795326 0.542678 -0.401404
O84   O     O_2   0.520881 0.204675 0.457322 -0.401402
O85   O     O_2   0.846317 0.598441 0.361282 -0.455208
O86   O     O_2   0.153683 0.401559 0.638718 -0.455209
O87   O     O_2   0.598474 0.846340 0.361282 -0.455210
O88   O     O_2   0.401542 0.153671 0.638718 -0.455209
O89   O     O_2   0.153713 0.401602 0.361285 -0.455209
O90   O     O_R   0.944170 0.500000 0.192320 -0.538882
O91   O     O_2   0.846287 0.598399 0.638715 -0.455209
O92   O     O_2   0.401577 0.153696 0.361286 -0.455210
O93   O     O_2   0.598421 0.846303 0.638715 -0.455209
O94   O     O_2   0.345895 0.097795 0.861287 -0.455172
O95   O     O_2   0.654115 0.902221 0.138706 -0.455168
O96   O     O_2   0.098637 0.346441 0.861285 -0.455213
O97   O     O_2   0.900987 0.653309 0.138720 -0.455254
O98   O     O_2   0.654029 0.902098 0.861282 -0.455176
O99   O     O_2   0.346027 0.097989 0.138722 -0.455183
O100  O     O_2   0.901355 0.653553 0.861285 -0.455209
Zn1   Zn    Zn3+2 0.000000 0.579740 0.272110 0.966042
Zn2   Zn    Zn3+2 0.500000 0.920260 0.227890 0.965983
Zn3   Zn    Zn3+2 0.920260 0.500000 0.772110 0.966027
Zn4   Zn    Zn3+2 0.079740 0.500000 0.227890 0.966024
Zn5   Zn    Zn3+2 0.500000 0.920260 0.772110 0.966040
Zn6   Zn    Zn3+2 0.500000 0.079740 0.227890 0.966064
Zn7   Zn    Zn3+2 0.079740 0.500000 0.772110 0.966021
Zn8   Zn    Zn3+2 0.920260 0.500000 0.227890 0.966053
Zn9   Zn    Zn3+2 1.000000 0.420260 0.727890 0.966048
Zn10  Zn    Zn3+2 0.420260 0.000000 0.272110 0.966022
Zn11  Zn    Zn3+2 0.579740 0.000000 0.727890 0.966029
Zn12  Zn    Zn3+2 1.000000 0.420260 0.272110 0.966027
Zn13  Zn    Zn3+2 1.000000 0.579740 0.727890 0.966030
Zn14  Zn    Zn3+2 0.579740 0.000000 0.272110 0.966050
Zn15  Zn    Zn3+2 0.420260 0.000000 0.727890 0.966049
Zn16  Zn    Zn3+2 0.500000 0.079740 0.772110 0.966002

loop_
_geom_bond_atom_site_label_1
_geom_bond_atom_site_label_2
_ccdc_geom_bond_type
O19   Zn4   S    
C186  O19   A    
C153  C166  A    
C48   C55   S    
C151  H44   S    
C10   C63   A    
C152  C165  A    
O47   Zn15  S    
C89   O87   D    
C80   O77   D    
C106  O53   S    
O4    Zn2   S    
C9    C88   S    
O37   Zn11  S    
O8    Zn13  S    
C36   C53   T    
C192  O26   A    
C105  C138  A    
C75   H15   S    
C104  H43   S    
C23   C103  S    
C38   C55   T    
C172  N3    S    
C26   C43   T    
C103  O100  D    
C117  O64   S    
O30   Zn5   S    
C20   C158  A    
C21   C159  A    
C69   C173  S    
C102  O99   D    
C7    O31   A    
C79   O50   S    
O33   Zn14  S    
O11   Zn14  S    
C95   O93   D    
C50   C53   S    
C40   C58   T    
C51   C52   S    
C86   O84   D    
C124  C137  A    
C140  C141  A    
C22   C161  A    
C129  C142  A    
C113  O61   S    
C7    C28   S    
C116  C171  A    
O36   Zn1   S    
C1    C120  A    
C4    O28   A    
C115  O63   S    
C110  C123  A    
O48   Zn12  S    
C74   C138  S    
C11   C150  A    
C39   C56   T    
O35   Zn15  S    
C112  O60   S    
C123  C141  A    
C165  N5    S    
C17   C96   S    
C163  C172  A    
C125  C149  A    
C72   H11   S    
C46   C84   S    
C180  O9    A    
C72   O70   D    
C118  O65   S    
C155  H48   S    
C103  H42   S    
C154  C167  A    
C25   C69   A    
C17   C155  A    
C107  C120  A    
C18   C156  A    
O22   Zn5   S    
C157  H3    S    
O90   Zn8   S    
C87   O85   D    
C112  C134  A    
C144  C145  A    
C99   H39   S    
C26   C191  S    
C1    C70   S    
C83   O81   D    
C5    O40   A    
C166  N8    S    
O45   Zn14  S    
C7    O38   A    
C64   C177  S    
C158  C172  A    
C20   C99   S    
C38   C188  S    
O35   Zn11  S    
C57   C85   S    
C79   N1    A    
C95   H35   S    
C11   C91   S    
C113  C135  A    
C114  C136  A    
C107  N1    A    
C36   C181  S    
O7    Zn10  S    
C99   O97   D    
C10   C148  A    
C189  O47   A    
C46   C182  A    
C106  C128  A    
C15   C94   S    
O13   Zn13  S    
C117  N6    A    
C111  O59   S    
C133  C142  A    
O49   Zn13  S    
C161  H6    S    
C29   C47   T    
C132  C145  A    
C96   H36   S    
C30   C48   T    
O34   Zn9   S    
C89   H29   S    
C40   C186  S    
C44   C59   S    
C14   C62   A    
O10   Zn15  S    
O21   Zn6   S    
C86   H26   S    
C23   C67   A    
C147  C165  A    
C94   H33   S    
C176  O5    A    
C98   H38   S    
C27   C44   T    
C152  H45   S    
C10   C89   S    
C24   C57   A    
O40   Zn12  S    
C82   O80   D    
C118  C131  A    
C177  O10   A    
C78   H18   S    
C14   C93   S    
O24   Zn14  S    
C161  C169  A    
C134  C143  A    
C109  O56   S    
C184  O17   A    
C174  O57   A    
C73   O71   D    
C74   O72   D    
O13   Zn3   S    
C119  C132  A    
O43   Zn1   S    
O13   Zn9   S    
C4    O39   A    
C100  O98   D    
C105  C121  A    
C6    O37   A    
C62   C179  S    
C98   O96   D    
C42   C184  S    
C113  N7    A    
C146  C164  A    
C158  H4    S    
C78   C182  S    
C156  H2    S    
C130  C143  A    
C82   H21   S    
C123  C127  A    
O38   Zn10  S    
C77   O75   D    
C119  O66   S    
C34   C183  S    
C91   H30   S    
C1    C149  A    
O9    Zn12  S    
C92   O89   D    
C102  H41   S    
O24   Zn10  S    
C18   C97   S    
C90   N2    A    
C16   C154  A    
C179  O8    A    
C83   H22   S    
C5    C30   S    
C73   H13   S    
C114  O62   S    
C12   C92   S    
C8    C146  A    
C169  N1    S    
C25   C104  S    
C3    O27   A    
C18   C66   A    
C79   C124  A    
C121  C139  A    
O6    Zn11  S    
C122  C140  A    
C71   O69   D    
O28   Zn7   S    
C187  O20   A    
C75   C149  S    
C75   O73   D    
O1    Zn4   S    
C15   C153  A    
O24   Zn2   S    
C76   H16   S    
C128  C171  A    
C151  C164  A    
C84   O82   D    
O1    Zn12  S    
C187  O49   A    
C184  O41   A    
C191  O25   A    
C47   C56   S    
C13   C68   A    
C2    C35   A    
C71   H10   S    
C129  C182  A    
C150  H34   S    
C148  C166  A    
C108  C121  A    
C35   C133  A    
C177  O6    A    
O79   Zn5   S    
C63   C178  S    
C116  C122  A    
C153  H46   S    
C70   O67   D    
C124  C138  A    
O16   Zn7   S    
C191  O36   A    
O68   Zn6   S    
C74   H14   S    
C183  O16   A    
C13   C81   S    
C97   O95   D    
C114  N8    A    
O20   Zn3   S    
C19   C67   A    
C27   C190  S    
C186  O48   A    
C128  C141  A    
C173  O90   A    
C23   C162  A    
C78   O76   D    
O39   Zn13  S    
C31   C49   T    
C45   C58   S    
C110  O58   S    
O41   Zn10  S    
C189  O22   A    
C106  N4    A    
C35   C83   S    
C118  N7    A    
C73   C127  S    
C162  H7    S    
C88   H28   S    
C93   O91   D    
C174  O2    A    
C157  C170  A    
C24   C132  A    
C162  C170  A    
C155  C168  A    
C111  N5    A    
C13   C131  A    
O32   Zn15  S    
O57   Zn3   S    
C146  H1    S    
C94   O92   D    
O27   Zn2   S    
C71   C105  S    
C65   C176  S    
C66   C175  S    
O29   Zn8   S    
O35   Zn5   S    
C21   C65   A    
C92   H31   S    
C185  O42   A    
C126  C160  A    
C33   C51   T    
C72   C116  S    
C34   C52   T    
C12   C61   A    
O24   Zn6   S    
O35   Zn16  S    
C167  N7    S    
C150  C167  A    
C2    C130  A    
C90   C125  A    
C81   H20   S    
C91   O88   D    
C93   H32   S    
C3    C32   S    
O26   Zn16  S    
C4    C31   S    
C108  O55   S    
C159  H5    S    
O31   Zn6   S    
C61   C180  S    
C108  N2    A    
O1    Zn1   S    
C142  C143  A    
C181  O43   A    
C120  C137  A    
C67   C174  S    
C131  C144  A    
C88   O86   D    
C115  N5    A    
C90   O51   S    
C37   C189  S    
C188  O21   A    
C68   C86   S    
C68   C136  A    
O18   Zn16  S    
C190  O23   A    
C125  C139  A    
C112  N6    A    
C126  C140  A    
O1    Zn8   S    
C33   C192  S    
C170  N4    S    
C147  H12   S    
C25   C163  A    
C183  O44   A    
O23   Zn3   S    
C109  C122  A    
C46   C134  A    
C109  N3    A    
C49   C54   S    
C156  C169  A    
C159  C168  A    
C24   C82   S    
C22   C66   A    
C85   H25   S    
C97   H37   S    
O13   Zn7   S    
C87   H27   S    
C164  N6    S    
C188  O45   A    
C77   C171  S    
C8    C61   A    
C39   C187  S    
C70   H9    S    
C104  O3    D    
C12   C151  A    
C19   C98   S    
C185  O18   A    
C28   C45   T    
O15   Zn8   S    
C9    C62   A    
C19   C157  A    
C100  H40   S    
C96   O94   D    
C41   C59   T    
C101  O52   S    
C11   C64   A    
C178  O11   A    
C42   C60   T    
O25   Zn4   S    
C21   C100  S    
C111  C133  A    
C178  O7    A    
C175  O68   A    
C154  H47   S    
C9    C147  A    
C190  O34   A    
O44   Zn9   S    
C119  N8    A    
C107  O54   S    
C180  O14   A    
C181  O15   A    
O14   Zn1   S    
O12   Zn9   S    
C101  C126  A    
C41   C185  S    
C117  C130  A    
C137  C139  A    
C32   C50   T    
C43   C60   S    
C192  O32   A    
C80   H19   S    
C37   C54   T    
C168  N2    S    
C135  C144  A    
C163  H8    S    
C20   C69   A    
C85   O83   D    
C14   C152  A    
C148  H23   S    
C115  C129  A    
C81   O78   D    
C76   C160  S    
C16   C95   S    
C136  C145  A    
C6    C29   S    
C179  O12   A    
C77   H17   S    
C173  O46   A    
C17   C65   A    
O42   Zn11  S    
C22   C102  S    
C8    C87   S    
C57   C135  A    
O5    Zn16  S    
C175  O4    A    
C76   O74   D    
O2    Zn7   S    
C127  C160  A    
C101  N3    A    
C2    C80   S    
C176  O79   A    
C110  N4    A    
C3    O33   A    
O46   Zn4   S    
C5    O29   A    
C15   C63   A    
C16   C64   A    
O17   Zn2   S    
C84   H24   S    
C6    O30   A    
