data_mof_unit_33002.cif
_audit_creation_date              2012-12-10T16:53:58-0500
_audit_creation_method            fapswitch 2.2
_symmetry_space_group_name_H-M    P1
_symmetry_Int_Tables_number       1
_space_group_crystal_system       triclinic
_cell_length_a                    7.77833
_cell_length_b                    8.607048
_cell_length_c                    10.631335
_cell_angle_alpha                 91.152527
_cell_angle_beta                  85.852867
_cell_angle_gamma                 92.950386
_cell_volume                      708.850897858

loop_
_atom_site_label
_atom_site_type_symbol
_atom_type_description
_atom_site_fract_x
_atom_site_fract_y
_atom_site_fract_z
_atom_type_partial_charge
C1    C     C_R   0.544817 0.794002 0.487624 0.935803
C2    C     C_3   0.371635 0.620292 0.936553 -0.386103
C3    C     C_3   0.385585 0.633289 0.079022 -0.398799
C4    C     C_3   0.461289 0.338318 0.922272 -0.383685
C5    C     C_3   0.686029 0.559356 0.919440 -0.434395
C6    C     C_3   0.505736 0.506501 0.877231 0.160936
C7    C     C_3   0.722983 0.008575 0.366281 -0.365529
C8    C     C_3   0.771979 0.889074 0.262469 -0.378025
C9    C     C_3   0.892553 0.960177 0.158043 -0.957646
C10   C     C_3   0.264667 0.258216 0.121026 -0.394468
C11   C     C_3   0.092230 0.319348 0.082827 -0.287793
C12   C     C_3   0.497280 0.502179 0.120480 0.160944
C13   C     C_3   0.031727 0.253193 0.957225 -0.901634
C14   C     C_3   0.439060 0.337230 0.067459 0.007241
C15   C     C_3   0.685200 0.539898 0.061796 -0.456933
C16   C     C_2   0.565675 0.953329 0.452847 -0.080944
C17   C     C_2   0.434243 0.042013 0.493244 -0.448076
C18   C     C_R   0.503216 0.506809 0.741662 0.843948
C19   C     C_R   0.455189 0.205605 0.495852 0.946779
C20   C     C_R   0.498540 0.501035 0.257501 0.796592
H1    H     H_    0.238443 0.579101 0.916885 0.191002
H2    H     H_    0.716478 0.683369 0.894778 0.174303
H3    H     H_    0.744163 0.646225 0.103249 0.190997
H4    H     H_    0.824260 0.048697 0.109460 0.274207
H5    H     H_    0.009674 0.012809 0.198684 0.277597
H6    H     H_    0.932749 0.869447 0.087914 0.252001
H7    H     H_    0.839047 0.791773 0.300831 0.263631
H8    H     H_    0.652244 0.843946 0.221658 0.208950
H9    H     H_    0.694002 0.115044 0.316023 0.225962
H10   H     H_    0.835042 0.035057 0.423744 0.208824
H11   H     H_    0.985724 0.617088 0.595490 0.186963
H12   H     H_    0.768968 0.444493 0.081724 0.189711
H13   H     H_    0.447953 0.748544 0.100963 0.155483
H14   H     H_    0.256951 0.634493 0.130602 0.173003
H15   H     H_    0.074278 0.332140 0.878588 0.257631
H16   H     H_    0.078515 0.135097 0.936195 0.264870
H17   H     H_    0.888787 0.244174 0.960687 0.230215
H18   H     H_    0.991874 0.284894 0.158095 0.192963
H19   H     H_    0.091696 0.446603 0.082072 0.212127
H20   H     H_    0.266982 0.132362 0.095582 0.185737
H21   H     H_    0.262250 0.260745 0.225505 0.167540
H22   H     H_    0.568837 0.263324 0.889466 0.130987
H23   H     H_    0.536359 0.257046 0.097291 0.089722
H24   H     H_    0.315789 0.994611 0.541915 0.165065
H25   H     H_    0.014212 0.382870 0.404498 0.180838
H26   H     H_    0.394780 0.737782 0.894687 0.149268
H27   H     H_    0.348335 0.286080 0.877640 0.191369
H28   H     H_    0.789286 0.489375 0.872424 0.195542
N1    N     N_2   0.950330 0.457950 0.465890 -0.183533
N2    N     N_2   0.049670 0.542050 0.534110 -0.176678
O1    O     O_R   0.389250 0.738570 0.508370 -0.625624
O2    O     O_R   0.678390 0.711620 0.486510 -0.635318
O3    O     O_R   0.355430 0.513500 0.696140 -0.628976
O4    O     O_R   0.644580 0.486550 0.674270 -0.626754
O5    O     O_R   0.321610 0.288380 0.513490 -0.624374
O6    O     O_R   0.610750 0.261430 0.491630 -0.612351
O7    O     O_R   0.355420 0.513450 0.325730 -0.628303
O8    O     O_R   0.644570 0.486500 0.303860 -0.647510
Zn1   Zn    Zn3+2 0.306940 0.517990 0.514600 0.918816
Zn2   Zn    Zn3+2 0.693060 0.482010 0.485400 0.905882

loop_
_geom_bond_atom_site_label_1
_geom_bond_atom_site_label_2
_ccdc_geom_bond_type
C19   O6    A    
C11   H18   S    
C9    H4    S    
C7    H9    S    
O5    Zn1   S    
C11   C13   S    
C13   H17   S    
C18   O3    A    
C12   C15   S    
H25   N1    S    
C12   C20   S    
C2    H1    S    
C15   H3    S    
C2    C3    S    
O3    Zn1   S    
C17   H24   S    
C9    H5    S    
C15   H12   S    
C1    C16   S    
O4    Zn2   S    
C2    H26   S    
C10   H21   S    
C11   H19   S    
C1    O1    A    
C2    C6    S    
N1    Zn2   S    
C4    H22   S    
C8    H8    S    
N2    Zn1   S    
C4    C6    S    
C7    C16   S    
C5    H28   S    
C12   C14   S    
C9    H6    S    
C13   H15   S    
C4    C14   S    
C5    C6    S    
C6    C18   S    
C1    O2    A    
C5    C15   S    
O7    Zn1   S    
C10   C11   S    
C18   O4    A    
H11   N2    S    
O8    Zn2   S    
C7    C8    S    
O1    Zn1   S    
C13   H16   S    
C10   H20   S    
N1    N2    D    
C10   C14   S    
C19   O5    A    
C7    H10   S    
C8    H7    S    
C3    H13   S    
C8    C9    S    
C3    C12   S    
O2    Zn2   S    
C3    H14   S    
C17   C19   S    
C20   O7    A    
C20   O8    A    
C5    H2    S    
O6    Zn2   S    
C16   C17   D    
C14   H23   S    
C4    H27   S    
