data_mof_unit_56414.cif
_audit_creation_date              2013-03-05T15:49:45-0500
_audit_creation_method            fapswitch 2.2
_symmetry_space_group_name_H-M    P1
_symmetry_Int_Tables_number       1
_space_group_crystal_system       triclinic
_cell_length_a                    6.934449
_cell_length_b                    20.087151
_cell_length_c                    22.337373
_cell_angle_alpha                 89.997267
_cell_angle_beta                  89.988768
_cell_angle_gamma                 89.996072
_cell_volume                      3111.44686764

loop_
_atom_site_label
_atom_site_type_symbol
_atom_site_description
_atom_site_fract_x
_atom_site_fract_y
_atom_site_fract_z
_atom_type_partial_charge
O1    O     O_R   0.620180 0.810610 0.187990 -0.601343
O2    O     O_R   0.379820 0.189390 0.812010 -0.599556
O3    O     O_R   0.379820 0.189390 0.687990 -0.601894
O4    O     O_R   0.620180 0.810610 0.312010 -0.601158
O5    O     O_R   0.120180 0.689390 0.312010 -0.601239
O6    O     O_R   0.879820 0.310610 0.687990 -0.601869
O7    O     O_R   0.879820 0.310610 0.812010 -0.599998
O8    O     O_R   0.120180 0.689390 0.187990 -0.599046
O9    O     O_R   0.290420 0.818570 0.311590 -0.586608
O10   O     O_R   0.709580 0.181430 0.688410 -0.586527
O11   O     O_R   0.709580 0.181430 0.811590 -0.579206
O12   O     O_R   0.290420 0.818570 0.188410 -0.586929
O13   O     O_R   0.790420 0.681430 0.188410 -0.579387
O14   O     O_R   0.209580 0.318570 0.811590 -0.579484
O15   O     O_R   0.209580 0.318570 0.688410 -0.586496
O16   O     O_R   0.790420 0.681430 0.311590 -0.586170
C1    C     C_R   0.459329 0.834691 0.332166 0.960632
C2    C     C_R   0.540671 0.165313 0.667832 0.958213
C3    C     C_R   0.540616 0.165336 0.832167 0.961404
C4    C     C_R   0.459341 0.834685 0.167822 0.963696
C5    C     C_R   0.959385 0.665333 0.167830 0.961462
C6    C     C_R   0.040615 0.334659 0.832175 0.962022
C7    C     C_R   0.040665 0.334686 0.667833 0.958443
C8    C     C_R   0.959335 0.665314 0.332167 0.959564
H1    H     H_    0.769430 0.428136 0.651082 0.167372
H2    H     H_    0.230550 0.571854 0.348911 0.167462
H3    H     H_    0.226687 0.570806 0.152185 0.178934
H4    H     H_    0.773309 0.429176 0.847830 0.178852
H5    H     H_    0.275237 0.070103 0.847324 0.177905
H6    H     H_    0.732708 0.927366 0.150407 0.168165
H7    H     H_    0.730446 0.928184 0.348877 0.168182
H8    H     H_    0.269520 0.071838 0.651106 0.167331
H9    H     H_    0.287652 0.349333 0.576021 0.166085
H10   H     H_    0.712358 0.650674 0.423984 0.166082
H11   H     H_    0.712499 0.650710 0.075972 0.169441
H12   H     H_    0.287468 0.349256 0.924048 0.169319
H13   H     H_    0.783969 0.152270 0.925065 0.168870
H14   H     H_    0.208724 0.850958 0.077144 0.166635
H15   H     H_    0.212423 0.849313 0.424010 0.166229
H16   H     H_    0.787580 0.150691 0.575987 0.166078
O17   O     O_3   0.453640 0.707610 0.250000 -0.265644
O18   O     O_3   0.546360 0.292390 0.750000 -0.267099
O19   O     O_3   0.953640 0.792390 0.250000 -0.270474
O20   O     O_3   0.046360 0.207610 0.750000 -0.266898
V1    V     V_3+5 0.178800 0.757860 0.250000 1.212973
V2    V     V_3+5 0.821200 0.242140 0.750000 1.219012
V3    V     V_3+5 0.678800 0.742140 0.250000 1.217266
V4    V     V_3+5 0.321200 0.257860 0.750000 1.218981
C9    C     C_R   0.171301 0.385266 0.573867 -0.051222
C10   C     C_R   0.828705 0.614738 0.426135 -0.050912
C11   C     C_R   0.829410 0.614995 0.073706 -0.008357
C12   C     C_R   0.170559 0.384973 0.926315 -0.009996
C13   C     C_R   0.668310 0.116060 0.927054 -0.009318
C14   C     C_R   0.326378 0.886354 0.074657 -0.048429
C15   C     C_R   0.328726 0.885263 0.426144 -0.051638
C16   C     C_R   0.671270 0.114745 0.573850 -0.051570
C17   C     C_R   0.030517 0.384331 0.618816 -0.227617
C18   C     C_R   0.969483 0.615670 0.381184 -0.228172
C19   C     C_R   0.969962 0.615905 0.118665 -0.236392
C20   C     C_R   0.030029 0.384074 0.881349 -0.236487
C21   C     C_R   0.529911 0.116055 0.881441 -0.233463
C22   C     C_R   0.469354 0.884468 0.118899 -0.231571
C23   C     C_R   0.469460 0.884342 0.381178 -0.228760
C24   C     C_R   0.530534 0.115666 0.618815 -0.227427
C25   C     C_R   0.878111 0.430059 0.616343 -0.063082
C26   C     C_R   0.121880 0.569938 0.383654 -0.063133
C27   C     C_R   0.122296 0.570166 0.116255 -0.059458
C28   C     C_R   0.877688 0.429810 0.883763 -0.059578
C29   C     C_R   0.378405 0.069996 0.883611 -0.063685
C30   C     C_R   0.622668 0.929827 0.116121 -0.057063
C31   C     C_R   0.621811 0.930090 0.383631 -0.060069
C32   C     C_R   0.378168 0.069925 0.616356 -0.063266
C33   C     C_R   0.866783 0.477963 0.570243 0.018076
C34   C     C_R   0.133215 0.522036 0.429756 0.018181
C35   C     C_R   0.137603 0.523719 0.069063 0.009574
C36   C     C_R   0.862360 0.476245 0.930963 0.009930
C37   C     C_R   0.361996 0.024026 0.931131 0.019015
C38   C     C_R   0.632870 0.978217 0.070396 0.009422
C39   C     C_R   0.633145 0.977991 0.429732 0.017672
C40   C     C_R   0.366835 0.022022 0.570257 0.018004
C41   C     C_R   0.006586 0.477153 0.523949 -0.045198
C42   C     C_R   0.993422 0.522850 0.476052 -0.045249
C43   C     C_R   0.994806 0.523363 0.023608 -0.076148
C44   C     C_R   0.005152 0.476599 0.976419 -0.076101
C45   C     C_R   0.503137 0.024343 0.977079 -0.069114
C46   C     C_R   0.491410 0.978098 0.024612 -0.051065
C47   C     C_R   0.493400 0.977162 0.476044 -0.044904
C48   C     C_R   0.506586 0.022849 0.523946 -0.044857
C49   C     C_R   0.159439 0.430391 0.525639 0.108534
C50   C     C_R   0.840567 0.569611 0.474362 0.108438
C51   C     C_R   0.839607 0.569129 0.026054 0.083163
C52   C     C_R   0.160349 0.430832 0.973973 0.082998
C53   C     C_R   0.656997 0.070689 0.975105 0.079645
C54   C     C_R   0.337198 0.931921 0.026771 0.109919
C55   C     C_R   0.340593 0.930387 0.474370 0.108296
C56   C     C_R   0.659394 0.069624 0.525621 0.108476
C57   C     C_R   0.717052 0.525879 0.569288 0.162836
C58   C     C_R   0.282933 0.474115 0.430707 0.162836
C59   C     C_R   0.290057 0.476833 0.067138 0.151322
C60   C     C_R   0.709893 0.523125 0.932891 0.151161
C61   C     C_R   0.209315 0.977237 0.933101 0.159510
C62   C     C_R   0.782309 0.026233 0.069542 0.153017
C63   C     C_R   0.782828 0.025922 0.430672 0.161104
C64   C     C_R   0.217151 0.974091 0.569318 0.162861
C65   C     C_R   0.703499 0.571660 0.521023 0.370201
C66   C     C_R   0.296507 0.428341 0.478977 0.369898
C67   C     C_R   0.304307 0.431689 0.018541 0.367914
C68   C     C_R   0.695639 0.568266 0.981490 0.369957
C69   C     C_R   0.194146 0.932412 0.981917 0.377785
C70   C     C_R   0.794991 0.072367 0.021511 0.368005
C71   C     C_R   0.796370 0.071703 0.478933 0.370451
C72   C     C_R   0.203617 0.928309 0.521058 0.370254
N1    N     N_R   0.581549 0.529056 0.617839 0.231186
O21   O     O_R   0.398502 0.520140 0.608102 -0.396414
O22   O     O_R   0.640077 0.544591 0.671384 -0.324160
N2    N     N_R   0.418336 0.470909 0.382132 0.231073
O23   O     O_R   0.601381 0.479897 0.391815 -0.396844
O24   O     O_R   0.359696 0.455337 0.328607 -0.325512
N3    N     N_R   0.424094 0.471997 0.115955 0.235407
O25   O     O_R   0.439433 0.416616 0.145782 -0.297004
O26   O     O_R   0.540204 0.520996 0.128022 -0.409890
N4    N     N_R   0.575850 0.527960 0.884075 0.235534
O27   O     O_R   0.560534 0.583337 0.854242 -0.292535
O28   O     O_R   0.459762 0.478957 0.872003 -0.409674
N5    N     N_R   0.075173 0.972519 0.884313 0.233150
O29   O     O_R   0.059760 0.917226 0.854363 -0.295389
O30   O     O_R   0.959058 0.021579 0.872406 -0.409205
N6    N     N_R   0.917212 0.029509 0.118244 0.232637
O31   O     O_R   0.857529 0.044301 0.171841 -0.310219
O32   O     O_R   0.100598 0.021139 0.108710 -0.397475
N7    N     N_R   0.918280 0.029118 0.382108 0.230633
O33   O     O_R   0.101380 0.020299 0.391834 -0.396493
O34   O     O_R   0.859642 0.044628 0.328567 -0.313828
N8    N     N_R   0.081664 0.970905 0.617874 0.231200
O35   O     O_R   0.898568 0.979706 0.608130 -0.396249
O36   O     O_R   0.140262 0.955427 0.671428 -0.324571
O37   O     O_3   0.561167 0.619949 0.518592 -0.743349
H17   H     H_    0.498092 0.624588 0.558041 0.375777
O38   O     O_3   0.438833 0.380050 0.481413 -0.743693
H18   H     H_    0.502208 0.375499 0.442005 0.375497
O39   O     O_3   0.458086 0.388153 0.013121 -0.728379
H19   H     H_    0.566443 0.403535 0.038417 0.355483
O40   O     O_3   0.541849 0.611797 0.986912 -0.726125
H20   H     H_    0.433495 0.596411 0.961620 0.356126
O41   O     O_3   0.040443 0.888841 0.987279 -0.734055
H21   H     H_    0.932613 0.903931 0.961628 0.356173
O42   O     O_3   0.937312 0.120653 0.019040 -0.735567
H22   H     H_    0.002046 0.124799 0.058270 0.377647
O43   O     O_3   0.938588 0.120027 0.481329 -0.743544
H23   H     H_    0.001389 0.124740 0.441843 0.375419
O44   O     O_3   0.061399 0.879984 0.518663 -0.743294
H24   H     H_    0.998649 0.875256 0.558156 0.375786

loop_
_geom_bond_atom_site_label_1
_geom_bond_atom_site_label_2
_geom_bond_distance
_ccdc_geom_bond_type
C47   C48   1.412662 A    
C48   C56   1.416758 A    
O9    V1    1.994914 S    
C30   C38   1.411706 A    
C29   C37   1.411455 A    
O42   H22   0.988169 S    
C2    C24   1.482705 S    
N6    O31   1.301048 A    
C36   C44   1.418415 A    
C31   C39   1.411584 A    
O41   H21   0.989657 S    
C25   C33   1.411537 A    
H8    C32   1.082308 S    
C45   C46   1.413054 A    
C33   C57   1.415914 A    
O11   C3    1.299388 A    
C64   N8    1.436248 S    
C40   C64   1.415971 A    
H4    C28   1.080995 S    
O10   C2    1.299348 A    
C5    C19   1.482342 S    
C62   N6    1.436430 S    
C55   C72   1.411092 A    
C6    C20   1.482324 S    
C38   C62   1.415856 A    
C61   C69   1.417999 A    
O40   H20   0.989684 S    
C26   C34   1.411536 A    
O3    V4    1.993834 S    
C9    C17   1.400405 A    
N2    O23   1.300268 A    
C22   C30   1.401565 A    
O3    C2    1.296365 A    
C63   C71   1.420135 A    
O18   V2    2.156596 S    
C33   C41   1.417418 A    
O8    V1    1.993983 S    
C12   C20   1.399718 A    
C11   C51   1.409573 A    
C45   C53   1.416712 A    
C18   C26   1.401291 A    
H15   C15   1.083640 S    
O20   V2    1.708447 S    
H16   C16   1.083638 S    
C15   C23   1.400444 A    
C49   C66   1.411074 A    
O10   V2    1.994916 S    
C61   N5    1.436078 S    
O44   H24   0.988146 S    
C16   C24   1.400441 A    
C58   C66   1.420146 A    
C67   O39   1.384343 S    
C46   C54   1.416469 A    
H12   C12   1.083714 S    
O6    V2    1.993781 S    
C53   C70   1.411287 A    
C41   C49   1.416727 A    
C38   C46   1.417239 A    
O15   C7    1.299323 A    
C37   C45   1.418370 A    
O16   C8    1.299321 A    
C4    C22   1.482867 S    
C39   C63   1.415962 A    
C13   C21   1.399843 A    
O15   V4    1.994771 S    
C34   C42   1.417404 A    
C71   O43   1.384880 S    
O16   V3    1.994769 S    
C39   C47   1.417441 A    
H6    C30   1.082350 S    
C10   C50   1.410269 A    
C41   C42   1.412617 A    
H5    C29   1.081225 S    
N3    O26   1.299958 A    
C56   C71   1.411089 A    
H10   C10   1.083618 S    
C60   C68   1.417911 A    
C13   C53   1.410199 A    
H2    C26   1.082305 S    
O7    V2    1.993982 S    
H1    C25   1.082305 S    
C15   C55   1.410302 A    
C17   C25   1.401283 A    
O13   V3    1.994642 S    
O1    V3    1.993854 S    
O14   V4    1.994640 S    
C14   C22   1.400513 A    
O2    V4    1.993852 S    
O5    V1    1.993780 S    
C32   C40   1.411576 A    
C47   C55   1.416755 A    
C10   C18   1.400407 A    
H13   C13   1.083667 S    
C19   C27   1.400990 A    
C58   N2    1.436201 S    
C43   C44   1.413745 A    
H14   C14   1.083661 S    
N3    O25   1.301023 A    
C52   C67   1.410065 A    
O12   C4    1.299320 A    
C35   C59   1.416451 A    
O8    C5    1.296092 A    
O17   V3    1.708535 S    
C72   O44   1.384877 S    
O13   C5    1.299403 A    
H3    C27   1.080994 S    
O18   V4    1.708534 S    
C28   C36   1.411722 A    
O19   V1    1.708448 S    
O4    C1    1.296370 A    
O9    C1    1.299343 A    
C23   C31   1.401332 A    
H11   C11   1.083712 S    
N5    O29   1.301038 A    
C12   C52   1.409580 A    
C27   C35   1.411743 A    
C57   N1    1.436208 S    
C70   O42   1.384891 S    
N4    O28   1.299961 A    
C59   C67   1.417926 A    
C64   C72   1.420140 A    
N1    O21   1.300274 A    
C21   C29   1.400802 A    
C7    C17   1.482612 S    
O1    C4    1.296492 A    
C34   C58   1.415910 A    
O2    C3    1.295984 A    
C51   C68   1.410066 A    
C69   O41   1.384359 S    
C50   C65   1.411065 A    
C9    C49   1.410273 A    
O12   V1    1.994626 S    
N7    O34   1.301108 A    
N6    O32   1.300253 A    
N8    O36   1.301123 A    
O38   H18   0.988039 S    
N8    O35   1.300297 A    
C36   C60   1.416441 A    
O7    C6    1.296081 A    
C43   C51   1.416401 A    
O37   H17   0.988105 S    
C54   C69   1.410095 A    
C42   C50   1.416731 A    
O14   C6    1.299406 A    
C63   N7    1.436228 S    
C57   C65   1.420128 A    
C40   C48   1.417444 A    
O43   H23   0.988140 S    
C1    C23   1.482701 S    
C35   C43   1.418413 A    
C66   O38   1.384885 S    
O5    C8    1.296352 A    
O19   V3    2.156717 S    
C3    C21   1.482147 S    
O6    C7    1.296353 A    
H7    C31   1.082313 S    
N2    O24   1.301105 A    
C37   C61   1.416453 A    
C60   N4    1.436250 S    
C24   C32   1.401329 A    
C16   C56   1.410305 A    
C59   N3    1.436251 S    
C14   C54   1.409771 A    
C62   C70   1.420393 A    
C65   O37   1.384874 S    
O20   V4    2.156718 S    
C11   C19   1.399714 A    
C20   C28   1.400976 A    
C8    C18   1.482602 S    
N5    O30   1.300067 A    
O17   V1    2.156595 S    
O11   V2    1.994625 S    
C44   C52   1.416404 A    
N4    O27   1.301016 A    
O39   H19   0.989711 S    
H9    C9    1.083610 S    
C68   O40   1.384340 S    
N7    O33   1.300305 A    
N1    O22   1.301111 A    
O4    V3    1.993833 S    
