data_mof_unit_9577.cif
_audit_creation_date              2012-12-10T17:47:04-0500
_audit_creation_method            fapswitch 2.2
_symmetry_space_group_name_H-M    P1
_symmetry_Int_Tables_number       1
_space_group_crystal_system       triclinic
_cell_length_a                    9.974694
_cell_length_b                    10.729574
_cell_length_c                    13.606099
_cell_angle_alpha                 93.324626
_cell_angle_beta                  83.178595
_cell_angle_gamma                 88.305427
_cell_volume                      1442.46391956

loop_
_atom_site_label
_atom_site_type_symbol
_atom_type_description
_atom_site_fract_x
_atom_site_fract_y
_atom_site_fract_z
_atom_type_partial_charge
C1    C     C_R   0.499333 0.740870 0.497140 0.889266
C2    C     C_R   0.625307 0.935730 0.498370 0.532289
C3    C     C_R   0.623847 0.064187 0.502290 -0.295028
C4    C     C_R   0.475835 0.502806 0.685579 0.894638
C5    C     C_R   0.517198 0.128982 0.468850 -0.189540
C6    C     C_R   0.833592 0.650857 0.643018 -0.084689
C7    C     C_R   0.888679 0.714482 0.719805 -0.226157
C8    C     C_R   0.026881 0.707323 0.723806 0.208920
C9    C     C_R   0.110798 0.640456 0.648521 -0.131146
C10   C     C_R   0.058099 0.569804 0.572778 0.017936
C11   C     C_R   0.914319 0.572483 0.571288 0.141520
C12   C     C_1   0.458116 0.516980 0.789666 -0.142125
C13   C     C_R   0.941217 0.430513 0.431877 -0.233931
C14   C     C_R   0.084741 0.433111 0.429345 0.549552
C15   C     C_R   0.504448 0.261039 0.489424 0.914001
C16   C     C_R   0.524051 0.498338 0.314617 0.878539
C17   C     C_1   0.541575 0.492412 0.210821 -0.192035
C18   C     C_2   0.555933 0.484941 0.017916 0.465604
C19   C     C_2   0.452201 0.540026 0.981480 0.041562
C20   C     C_1   0.449502 0.529840 0.877566 0.094115
C21   C     C_1   0.551949 0.487633 0.122931 -0.107872
C22   C     C_3   0.163111 0.400498 0.263342 0.100328
C23   C     C_R   0.275793 0.894448 0.427056 0.201229
C24   C     C_3   0.061731 0.328755 0.206674 -0.439528
C25   C     C_3   0.117649 0.295777 0.098577 -0.884863
C26   C     C_3   0.787822 0.439408 0.987594 0.106128
C27   C     C_3   0.828968 0.576391 0.984862 -0.404793
C28   C     C_3   0.965023 0.593625 0.022544 -0.855604
C29   C     C_3   0.845386 0.879600 0.436130 0.130243
C30   C     C_3   0.814039 0.821351 0.334902 -0.413681
C31   C     C_3   0.770732 0.919117 0.266532 -0.880005
C32   C     C_R   0.212396 0.937044 0.348270 -0.181428
C33   C     C_R   0.251785 0.048850 0.307741 -0.117520
C34   C     C_R   0.350375 0.117775 0.348954 -0.083542
C35   C     C_R   0.422491 0.064762 0.420114 0.048295
C36   C     C_R   0.401544 0.941136 0.442597 0.004172
C37   C     C_R   0.504173 0.874639 0.483944 -0.218433
H1    H     H_    0.728243 0.668079 0.640570 0.218062
H2    H     H_    0.142209 0.503349 0.263162 0.130469
H3    H     H_    0.034520 0.241165 0.242614 0.238103
H4    H     H_    0.967428 0.387011 0.208500 0.197672
H5    H     H_    0.150868 0.380856 0.061433 0.278334
H6    H     H_    0.038118 0.252465 0.058791 0.263882
H7    H     H_    0.205072 0.228322 0.094508 0.271077
H8    H     H_    0.863485 0.381481 0.936661 0.180639
H9    H     H_    0.791486 0.403508 0.062406 0.141923
H10   H     H_    0.834257 0.605591 0.907611 0.243834
H11   H     H_    0.753367 0.638680 0.032072 0.224262
H12   H     H_    0.823909 0.772686 0.774663 0.175556
H13   H     H_    0.963234 0.560529 0.098454 0.260051
H14   H     H_    0.987330 0.694336 0.025973 0.302895
H15   H     H_    0.045609 0.541625 0.971676 0.284888
H16   H     H_    0.932346 0.823610 0.455342 0.161092
H17   H     H_    0.879758 0.976999 0.430782 0.150688
H18   H     H_    0.907015 0.771930 0.296519 0.193463
H19   H     H_    0.735912 0.750447 0.344369 0.258480
H20   H     H_    0.673211 0.966088 0.297504 0.264914
H21   H     H_    0.757808 0.872763 0.193306 0.267557
H22   H     H_    0.849037 0.990115 0.255212 0.254440
H23   H     H_    0.216259 0.654807 0.646640 0.218520
H24   H     H_    0.121408 0.894775 0.328601 0.140435
H25   H     H_    0.199927 0.085682 0.249826 0.160180
H26   H     H_    0.375106 0.208223 0.322072 0.158088
H27   H     H_    0.706571 0.112132 0.530877 0.194366
H28   H     H_    0.896636 0.370850 0.379007 0.154520
H29   H     H_    0.266408 0.383681 0.223445 0.195949
I1    I     I_    0.300409 0.654619 0.069540 -0.461237
I2    I     I_    0.112045 0.812550 0.835298 -0.345431
I3    I     I_    0.144640 0.917381 0.559500 -0.376782
N1    N     N_R   0.857120 0.501200 0.500900 -0.134944
N2    N     N_R   0.142720 0.501280 0.500940 -0.147434
O1    O     O_R   0.385310 0.683220 0.500000 -0.624012
O2    O     O_3   0.659954 0.422917 0.954007 -0.639401
O3    O     O_3   0.741069 0.870753 0.515831 -0.622176
O4    O     O_R   0.614640 0.683250 0.500010 -0.596846
O5    O     O_R   0.368830 0.499960 0.640340 -0.625827
O6    O     O_R   0.598160 0.499980 0.640350 -0.621012
O7    O     O_R   0.385360 0.316750 0.499990 -0.566214
O8    O     O_R   0.614690 0.316780 0.500000 -0.620827
O9    O     O_R   0.401840 0.500020 0.359650 -0.595132
O10   O     O_R   0.631170 0.500040 0.359660 -0.633244
O11   O     O_3   0.166405 0.357588 0.359701 -0.637338
Zn1   Zn    Zn3+2 0.346870 0.499980 0.499990 0.984422
Zn2   Zn    Zn3+2 0.653130 0.500020 0.500010 0.942679

loop_
_geom_bond_atom_site_label_1
_geom_bond_atom_site_label_2
_ccdc_geom_bond_type
C27   H11   S    
C8    C9    A    
C18   C21   S    
C14   N2    A    
C23   I3    S    
C35   C36   A    
C25   H6    S    
C11   N1    A    
C7    C8    A    
C13   H28   S    
C3    H27   S    
C26   C27   S    
C22   O11   S    
C31   H21   S    
C36   C37   A    
C32   H24   S    
C18   C19   D    
O8    Zn2   S    
C28   H14   S    
O4    Zn2   S    
C15   O7    A    
C29   H17   S    
C26   O2    S    
C25   H7    S    
C34   C35   A    
C31   H22   S    
C22   H29   S    
C16   O10   A    
C26   H8    S    
C28   H13   S    
O7    Zn1   S    
C15   O8    A    
C19   C20   S    
C16   C17   S    
C6    H1    S    
C19   I1    S    
C4    C12   S    
N1    Zn2   S    
C9    C10   A    
C2    O3    S    
C1    C37   S    
C10   N2    A    
C13   C14   A    
C24   H4    S    
O9    Zn1   S    
O5    Zn1   S    
N2    Zn1   S    
C1    O1    A    
C5    C15   S    
C1    O4    A    
C24   C25   S    
C7    H12   S    
C6    C11   A    
C33   H25   S    
C29   O3    S    
O6    Zn2   S    
C30   H19   S    
C17   C21   T    
C16   O9    A    
C29   C30   S    
C12   C20   T    
C33   C34   A    
C8    I2    S    
C18   O2    S    
C22   C24   S    
C14   O11   S    
O10   Zn2   S    
C27   H10   S    
C3    C5    A    
C25   H5    S    
C6    C7    A    
C30   H18   S    
C9    H23   S    
C32   C33   A    
C31   H20   S    
C2    C3    A    
C4    O6    A    
C23   C32   A    
C28   H15   S    
C2    C37   A    
C30   C31   S    
C29   H16   S    
C22   H2    S    
C5    C35   A    
C34   H26   S    
C24   H3    S    
C4    O5    A    
O1    Zn1   S    
C10   C11   A    
C26   H9    S    
C23   C36   A    
C13   N1    A    
C27   C28   S    
