data_mof_unit_26289.cif
_audit_creation_date              2012-10-26T19:05:03-0400
_audit_creation_method            fapswitch 2.2
_symmetry_space_group_name_H-M    P1
_symmetry_Int_Tables_number       1
_space_group_crystal_system       triclinic
_cell_length_a                    15.889594
_cell_length_b                    10.839762
_cell_length_c                    9.591557
_cell_angle_alpha                 91.891483
_cell_angle_beta                  89.97671
_cell_angle_gamma                 93.131581
_cell_volume                      1648.67679431

loop_
_atom_site_label
_atom_site_type_symbol
_atom_type_description
_atom_site_fract_x
_atom_site_fract_y
_atom_site_fract_z
_atom_type_partial_charge
C1    C     C_R   0.504808 0.262965 0.497994 0.548629
C2    C     C_R   0.602635 0.085815 0.844934 -0.178694
C3    C     C_R   0.558586 0.974532 0.880347 0.305664
C4    C     C_R   0.340342 0.499571 0.500082 0.546410
C5    C     C_R   0.512280 0.906732 0.775032 0.311096
C6    C     C_R   0.514273 0.946580 0.634065 -0.032204
C7    C     C_R   0.540060 0.070668 0.613889 -0.028092
C8    C     C_R   0.510845 0.129215 0.495492 0.003873
C9    C     C_R   0.474876 0.058675 0.384274 -0.165465
C10   C     C_R   0.468516 0.931124 0.390122 -0.166058
C11   C     C_R   0.489466 0.872768 0.512776 -0.014401
C12   C     C_3   0.952498 0.542823 0.645277 -0.187792
C13   C     C_R   0.619561 0.654567 0.148786 -0.060587
C14   C     C_R   0.682046 0.721969 0.078456 -0.149961
C15   C     C_R   0.680839 0.723533 0.934789 -0.139434
C16   C     C_R   0.495498 0.737845 0.503555 0.537555
C17   C     C_R   0.618040 0.655730 0.860872 -0.031249
C18   C     C_R   0.558282 0.576300 0.927721 0.189422
C19   C     C_R   0.558554 0.576071 0.077274 0.169916
C20   C     C_R   0.444720 0.426790 0.071228 -0.008248
C21   C     C_R   0.444762 0.426786 0.923279 0.001310
C22   C     C_R   0.659630 0.500435 0.499974 0.526713
C23   C     C_3   0.916461 0.492509 0.502546 -0.011415
C24   C     C_3   0.050090 0.560441 0.639410 0.163292
C25   C     C_3   0.043451 0.360631 0.472199 0.176964
C26   C     C_3   0.944580 0.357934 0.472260 -0.004275
C27   C     C_1   0.749079 0.499030 0.500144 -0.008020
C28   C     C_3   0.083027 0.495829 0.502719 0.065794
C29   C     C_3   0.608538 0.993518 0.111904 -0.130891
C30   C     C_3   0.374901 0.846700 0.813669 -0.087543
C31   C     C_3   0.088058 0.606848 0.870919 -0.153963
C32   C     C_3   0.082714 0.266474 0.682932 -0.034794
C33   C     C_2   0.902589 0.257576 0.559930 0.573241
C34   C     C_3   0.953912 0.576733 0.386418 -0.288312
C35   C     C_3   0.051640 0.574599 0.382102 -0.321910
C36   C     C_1   0.824432 0.496691 0.500989 -0.019510
C37   C     C_1   0.175223 0.497758 0.501090 -0.000588
C38   C     C_1   0.250738 0.498844 0.500327 -0.020619
C39   C     C_R   0.591790 0.134119 0.714679 -0.152114
Cu1   Cu    Cu3+1 0.499990 0.499990 0.640660 0.956808
Cu2   Cu    Cu3+1 0.500010 0.500010 0.359340 0.924012
H1    H     H_    0.933322 0.480111 0.730056 0.188579
H2    H     H_    0.621498 0.669444 0.258729 0.175006
H3    H     H_    0.729262 0.778394 0.136322 0.105013
H4    H     H_    0.726803 0.781588 0.880400 0.108419
H5    H     H_    0.617886 0.671313 0.752106 0.172485
H6    H     H_    0.399546 0.366670 0.865815 0.118496
H7    H     H_    0.059218 0.341699 0.360550 0.126299
H8    H     H_    0.922932 0.332500 0.363902 0.069351
H9    H     H_    0.079736 0.670926 0.390851 0.125506
H10   H     H_    0.071867 0.536603 0.278922 0.110397
H11   H     H_    0.935666 0.673475 0.406126 0.141644
H12   H     H_    0.066537 0.661650 0.630438 0.113996
H13   H     H_    0.587279 0.088075 0.134744 0.123923
H14   H     H_    0.675128 0.995766 0.075823 0.108819
H15   H     H_    0.606594 0.943633 0.210910 0.150534
H16   H     H_    0.353608 0.859046 0.704855 0.106049
H17   H     H_    0.367125 0.932623 0.878241 0.109143
H18   H     H_    0.333313 0.772432 0.858107 0.140366
H19   H     H_    0.023416 0.636542 0.893585 0.110201
H20   H     H_    0.130972 0.687994 0.847431 0.115713
H21   H     H_    0.111887 0.565523 0.966512 0.141128
H22   H     H_    0.027076 0.308377 0.730482 0.170831
H23   H     H_    0.926049 0.633548 0.672462 0.083748
H24   H     H_    0.142678 0.314103 0.719172 0.169986
H25   H     H_    0.082713 0.170825 0.720556 0.123954
H26   H     H_    0.826063 0.210634 0.720027 0.330539
H27   H     H_    0.927653 0.545647 0.282750 0.126463
H28   H     H_    0.452298 0.101973 0.292260 0.139683
H29   H     H_    0.623476 0.222590 0.693896 0.168694
H30   H     H_    0.641144 0.141168 0.918738 0.109112
H31   H     H_    0.446055 0.877998 0.298581 0.169854
H32   H     H_    0.399507 0.366680 0.124285 0.114218
N1    N     N_R   0.500800 0.501210 0.147910 -0.245655
N2    N     N_R   0.500820 0.501290 0.852040 -0.236772
O1    O     O_R   0.499990 0.319640 0.618810 -0.506074
O2    O     O_3   0.458681 0.810167 0.817273 -0.511619
O3    O     O_3   0.088231 0.517181 0.760756 -0.601268
O4    O     O_3   0.080822 0.259975 0.536232 -0.560255
O5    O     O_2   0.913172 0.149180 0.528850 -0.504515
O6    O     O_R   0.850496 0.286710 0.672536 -0.738541
O7    O     O_R   0.500000 0.319660 0.381240 -0.506241
O8    O     O_R   0.379430 0.499990 0.618840 -0.486728
O9    O     O_R   0.379440 0.500020 0.381260 -0.498094
O10   O     O_R   0.500000 0.680340 0.618760 -0.465398
O11   O     O_R   0.500010 0.680360 0.381190 -0.524158
O12   O     O_R   0.620560 0.499980 0.618740 -0.526088
O13   O     O_R   0.620570 0.500010 0.381160 -0.522353
O14   O     O_3   0.554192 0.928834 0.015007 -0.538948

loop_
_geom_bond_atom_site_label_1
_geom_bond_atom_site_label_2
_ccdc_geom_bond_type
C31   H19   S    
C18   N2    A    
C1    C8    S    
C31   H20   S    
Cu1   O8    S    
C29   O14   S    
C7    C8    A    
C25   C28   S    
Cu2   O11   S    
C12   C23   S    
Cu1   O12   S    
C32   H25   S    
C9    H28   S    
C18   C19   A    
C5    C6    A    
C12   H23   S    
C29   H13   S    
C30   H16   S    
C34   C35   S    
C23   C26   S    
C12   H1    S    
Cu2   N1    S    
C30   O2    S    
C2    C39   A    
C28   C35   S    
C8    C9    A    
C22   O13   A    
C9    C10   A    
C13   C14   A    
C16   O11   A    
C31   H21   S    
C25   C26   S    
C13   C19   A    
C17   H5    S    
C26   H8    S    
C34   H27   S    
C6    C11   A    
C29   H14   S    
C24   H12   S    
Cu2   O9    S    
Cu1   O1    S    
Cu1   O10   S    
C37   C38   T    
C11   C16   S    
C26   C33   S    
C4    O9    A    
C23   C34   S    
C30   H18   S    
C35   H9    S    
C17   C18   A    
C20   N1    A    
C22   O12   A    
C25   H7    S    
C24   O3    S    
Cu1   Cu2   S    
C4    C38   S    
H26   O6    S    
C22   C27   S    
C35   H10   S    
C16   O10   A    
C15   H4    S    
C5    O2    S    
C2    H30   S    
C13   H2    S    
C31   O3    S    
C14   H3    S    
C15   C17   A    
Cu2   O13   S    
C12   C24   S    
C25   O4    S    
C1    O1    A    
C19   N1    A    
C24   C28   S    
C32   H22   S    
C3    C5    A    
C33   O5    D    
C6    C7    A    
C29   H15   S    
C27   C36   T    
C21   N2    A    
C34   H11   S    
Cu1   N2    S    
C3    O14   S    
C2    C3    A    
C1    O7    A    
C32   O4    S    
C4    O8    A    
C28   C37   S    
Cu2   O7    S    
C30   H17   S    
C39   H29   S    
C20   H32   S    
C10   C11   A    
C20   C21   A    
C23   C36   S    
C7    C39   A    
C14   C15   A    
C33   O6    S    
C32   H24   S    
C21   H6    S    
C10   H31   S    
