data_mof_unit_38822.cif
_audit_creation_date              2013-03-05T16:48:39-0500
_audit_creation_method            fapswitch 2.2
_symmetry_space_group_name_H-M    P1
_symmetry_Int_Tables_number       1
_space_group_crystal_system       triclinic
_cell_length_a                    27.554062
_cell_length_b                    8.928163
_cell_length_c                    8.094099
_cell_angle_alpha                 89.961214
_cell_angle_beta                  90.196117
_cell_angle_gamma                 89.962365
_cell_volume                      1991.19372877

loop_
_atom_site_label
_atom_site_type_symbol
_atom_site_description
_atom_site_fract_x
_atom_site_fract_y
_atom_site_fract_z
_atom_type_partial_charge
O1    O     O_R   0.500000 0.285350 0.636850 -0.620124
O2    O     O_R   0.500000 0.714650 0.363150 -0.621493
O3    O     O_R   0.500000 0.714650 0.636850 -0.605120
O4    O     O_R   0.500000 0.285350 0.363150 -0.613531
C1    C     C_R   0.500014 0.217949 0.500035 0.931380
C2    C     C_R   0.500151 0.782045 0.499966 0.933683
O5    O     O_R   0.428760 0.500000 0.636860 -0.617901
O6    O     O_R   0.571240 0.500000 0.363140 -0.621241
O7    O     O_R   0.571240 0.500000 0.636860 -0.574096
O8    O     O_R   0.428760 0.500000 0.363140 -0.584462
C3    C     C_R   0.405787 0.502445 0.499752 0.991201
C4    C     C_R   0.594238 0.500905 0.500388 0.972798
Zn1   Zn    Zn3+2 0.500000 0.500000 0.682780 1.051120
Zn2   Zn    Zn3+2 0.500000 0.500000 0.317220 1.043740
C5    C     C_R   0.178124 0.558286 0.652230 0.621658
C6    C     C_R   0.820841 0.657864 0.375286 0.625124
C7    C     C_R   0.178196 0.643265 0.372702 0.622966
C8    C     C_R   0.821191 0.573426 0.655009 0.621859
O9    O     O_2   0.203068 0.507328 0.784717 -0.505018
O10   O     O_2   0.795559 0.692029 0.237150 -0.505095
O11   O     O_2   0.203298 0.676578 0.234533 -0.506996
O12   O     O_2   0.796334 0.523936 0.787745 -0.503993
N1    N     N_R   0.202019 0.590655 0.509092 -0.297497
N2    N     N_R   0.797178 0.605110 0.511309 -0.297608
C9    C     C_R   0.283333 0.674562 0.582843 0.432094
C10   C     C_R   0.728475 0.452429 0.421094 0.431033
C11   C     C_R   0.272574 0.445565 0.421339 0.332912
C12   C     C_R   0.714840 0.680690 0.580990 0.335710
C13   C     C_R   0.333878 0.654149 0.581402 0.240309
C14   C     C_R   0.678238 0.423335 0.418625 0.240918
C15   C     C_R   0.323453 0.426864 0.413750 0.272654
C16   C     C_R   0.664764 0.649120 0.586509 0.276292
C17   C     C_R   0.253406 0.570678 0.502824 0.108263
C18   C     C_R   0.746063 0.579647 0.503276 0.107297
C19   C     C_R   0.102099 0.627383 0.521235 -0.045192
C20   C     C_R   0.897211 0.638211 0.523551 -0.045058
C21   C     C_R   0.127799 0.576834 0.661285 -0.053188
C22   C     C_R   0.871335 0.675191 0.378748 -0.055099
C23   C     C_R   0.127783 0.662391 0.376101 -0.055763
C24   C     C_R   0.871583 0.590004 0.664058 -0.053998
C25   C     C_R   0.102893 0.544569 0.806508 -0.128068
C26   C     C_R   0.896285 0.726437 0.240337 -0.131728
C27   C     C_R   0.102773 0.714676 0.237648 -0.132605
C28   C     C_R   0.896665 0.556853 0.809317 -0.127812
C29   C     C_R   0.353547 0.527580 0.499398 -0.282180
C30   C     C_R   0.646629 0.522971 0.502003 -0.285052
H1    H     H_    0.121974 0.507258 0.916389 0.202163
H2    H     H_    0.877099 0.758081 0.128534 0.197364
H3    H     H_    0.121820 0.744121 0.125317 0.197212
H4    H     H_    0.877630 0.521906 0.919761 0.201742
C31   C     C_R   0.974063 0.605712 0.673270 0.044920
C32   C     C_R   0.025414 0.688864 0.381783 0.044026
C33   C     C_R   0.973918 0.692038 0.382538 0.043755
C34   C     C_R   0.025526 0.602453 0.672512 0.044895
C35   C     C_R   0.948618 0.646425 0.526835 0.086339
C36   C     C_R   0.050804 0.640558 0.525517 0.086194
C37   C     C_R   0.946832 0.565117 0.814480 -0.222474
C38   C     C_R   0.052668 0.728089 0.240131 -0.218731
C39   C     C_R   0.946505 0.735403 0.242007 -0.218902
C40   C     C_R   0.052843 0.557472 0.812599 -0.222938
H5    H     H_    0.962888 0.536223 0.931465 0.146805
H6    H     H_    0.036636 0.767931 0.127061 0.146162
H7    H     H_    0.962479 0.775198 0.129218 0.146706
H8    H     H_    0.036921 0.528550 0.929381 0.147418
C41   C     C_1   0.500068 0.065180 0.500057 -0.144871
C42   C     C_1   0.500116 0.934799 0.499961 -0.139987
N3    N     N_1   0.500000 0.500000 0.073640 -0.010658
N4    N     N_1   0.500000 0.500000 0.926360 -0.008544
O13   O     O_3   0.344813 0.311928 0.325712 -0.730587
H9    H     H_    0.323336 0.284826 0.232079 0.363913
O14   O     O_3   0.632630 0.739539 0.671450 -0.737486
H10   H     H_    0.649798 0.785412 0.766456 0.360317
O15   O     O_3   0.362667 0.760862 0.657561 -0.734833
H11   H     H_    0.395469 0.760060 0.608489 0.336827
O16   O     O_3   0.661869 0.296025 0.338321 -0.735994
H12   H     H_    0.627991 0.274004 0.369905 0.339669
O17   O     O_3   0.240422 0.342871 0.355513 -0.717441
H13   H     H_    0.256029 0.242983 0.354077 0.360056
O18   O     O_3   0.734664 0.809334 0.647666 -0.712403
H14   H     H_    0.709881 0.889666 0.645672 0.357552
O19   O     O_3   0.261487 0.795551 0.659372 -0.711220
H15   H     H_    0.286295 0.859407 0.712916 0.400049
O20   O     O_3   0.761873 0.358333 0.347140 -0.712845
H16   H     H_    0.745025 0.273595 0.293032 0.402738

loop_
_geom_bond_atom_site_label_1
_geom_bond_atom_site_label_2
_geom_bond_distance
_ccdc_geom_bond_type
C38   H6    1.075110 S    
C10   O20   1.383617 S    
O15   H11   0.988526 S    
O3    C2    1.260467 A    
O19   H15   0.989407 S    
C33   C39   1.416834 A    
C34   C40   1.416562 A    
O17   H13   0.989936 S    
C11   C17   1.401533 A    
O5    C3    1.275881 A    
C7    N1    1.365333 A    
C2    C42   1.363811 S    
C21   C25   1.393188 A    
O1    C1    1.260697 A    
C19   C21   1.408379 A    
C22   C26   1.393574 A    
C13   O15   1.383992 S    
C7    C23   1.399799 A    
C12   O18   1.381459 S    
C8    C24   1.398138 A    
C5    C21   1.398561 A    
C20   C24   1.408026 A    
O7    Zn1   1.999077 S    
C27   C38   1.385929 A    
C5    O9    1.350268 S    
C10   C18   1.402482 A    
N1    C17   1.428088 S    
Zn2   N3    1.971561 S    
C31   C37   1.416482 A    
C24   C28   1.393299 A    
O3    Zn1   1.951908 S    
C6    O10   1.349950 S    
C5    N1    1.365408 A    
C12   C18   1.397536 A    
C6    N2    1.365191 A    
C9    O19   1.384002 S    
O2    C2    1.260672 A    
C16   O14   1.382872 S    
C33   C35   1.421702 A    
C9    C13   1.404560 A    
C34   C36   1.421929 A    
C11   C15   1.413282 A    
N3    N4    1.192098 T    
C12   C16   1.409333 A    
C4    C30   1.457121 S    
O8    Zn2   1.999080 S    
C27   H3    1.083670 S    
C23   C27   1.393648 A    
C7    O11   1.350066 S    
C13   C29   1.419120 A    
C19   C23   1.408545 A    
O16   H12   0.988536 S    
O20   H16   0.989551 S    
O5    Zn1   1.996580 S    
C28   C37   1.384802 A    
O6    C4    1.277075 A    
C25   H1    1.083772 S    
C26   H2    1.083696 S    
C32   C38   1.416633 A    
C1    C41   1.363944 S    
C10   C14   1.408629 A    
C8    N2    1.365544 A    
C3    C29   1.456668 S    
O1    Zn1   1.952403 S    
C32   C33   1.419214 A    
C28   H4    1.083809 S    
O6    Zn2   1.996577 S    
C19   C36   1.418749 A    
C8    O12   1.350347 S    
C16   C30   1.409076 A    
C14   C30   1.417453 A    
C25   C40   1.384854 A    
O4    C1    1.260471 A    
C11   O17   1.381268 S    
C26   C39   1.386171 A    
C37   H5    1.074953 S    
C39   H7    1.075134 S    
C40   H8    1.074840 S    
C31   C34   1.418323 A    
C20   C22   1.408727 A    
O14   H10   0.990485 S    
C20   C35   1.418576 A    
C14   O16   1.384758 S    
C31   C35   1.421949 A    
O4    Zn2   1.951909 S    
O13   H9    0.990198 S    
O2    Zn2   1.952402 S    
O7    C4    1.275374 A    
N2    C18   1.428068 S    
O8    C3    1.276190 A    
O18   H14   0.990072 S    
C15   O13   1.382129 S    
C41   C42   1.164063 T    
C15   C29   1.405210 A    
C9    C17   1.399244 A    
C32   C36   1.422070 A    
C6    C22   1.400163 A    
Zn1   N4    1.971561 S    
