data_mof_unit_56645.cif
_audit_creation_date              2012-12-11T20:51:05-0500
_audit_creation_method            fapswitch 2.2
_symmetry_space_group_name_H-M    P1
_symmetry_Int_Tables_number       1
_space_group_crystal_system       triclinic
_cell_length_a                    30.506125
_cell_length_b                    33.816104
_cell_length_c                    8.403624
_cell_angle_alpha                 89.999702
_cell_angle_beta                  90.038959
_cell_angle_gamma                 90.014009
_cell_volume                      8669.16193224

loop_
_atom_site_label
_atom_site_type_symbol
_atom_type_description
_atom_site_fract_x
_atom_site_fract_y
_atom_site_fract_z
_atom_type_partial_charge
Ba1   Ba    Ba6+2 0.999930 0.472870 0.844940 1.681740
Ba2   Ba    Ba6+2 0.999930 0.527130 0.344940 1.675607
Ba3   Ba    Ba6+2 0.499930 0.972870 0.844940 1.681681
Ba4   Ba    Ba6+2 0.499930 0.027130 0.344940 1.675834
C1    C     C_3   0.015239 0.277943 0.571865 -0.320120
C2    C     C_R   0.213363 0.331337 0.498417 0.590621
C3    C     C_R   0.403365 0.087973 0.691600 0.027960
C4    C     C_R   0.871212 0.383784 0.149909 -0.098610
C5    C     C_R   0.871035 0.616141 0.650822 -0.105344
C6    C     C_R   0.371219 0.883781 0.149896 -0.098582
C7    C     C_R   0.371021 0.116137 0.650842 -0.105179
C8    C     C_R   0.863096 0.349915 0.245231 0.227970
C9    C     C_R   0.862567 0.649776 0.747203 0.223544
C10   C     C_R   0.363093 0.849919 0.245249 0.227945
C11   C     C_R   0.362586 0.149792 0.747142 0.224064
C12   C     C_2   0.067781 0.596619 0.880784 -0.270781
C13   C     C_R   0.713510 0.168860 0.993646 0.591467
C14   C     C_2   0.068181 0.403719 0.378862 -0.267084
C15   C     C_2   0.567785 0.096610 0.880768 -0.270670
C16   C     C_2   0.568156 0.903713 0.378880 -0.267113
C17   C     C_3   0.123595 0.473787 0.173190 0.296421
C18   C     C_3   0.124145 0.525717 0.677479 0.295900
C19   C     C_3   0.623597 0.973796 0.173292 0.296512
C20   C     C_3   0.624163 0.025706 0.677517 0.295900
C21   C     C_3   0.163868 0.447310 0.177597 -0.335414
C22   C     C_3   0.164326 0.552350 0.678618 -0.329385
C23   C     C_3   0.663870 0.947319 0.177742 -0.335460
C24   C     C_R   0.713278 0.831373 0.499588 0.590611
C25   C     C_3   0.664345 0.052337 0.678622 -0.329332
C26   C     C_3   0.873810 0.525869 0.015545 0.317523
C27   C     C_3   0.874243 0.473865 0.516129 0.319018
C28   C     C_3   0.373837 0.025892 0.015692 0.317754
C29   C     C_3   0.374221 0.973879 0.516056 0.318891
C30   C     C_3   0.834389 0.553288 0.035707 0.272814
C31   C     C_3   0.834927 0.446309 0.536207 0.277465
C32   C     C_3   0.334428 0.053318 0.035979 0.273317
C33   C     C_3   0.334900 0.946326 0.536116 0.277032
C34   C     C_3   0.001460 0.320939 0.555954 0.342475
C35   C     C_R   0.157691 0.718556 0.017610 0.590070
C36   C     C_3   0.005230 0.675444 0.055975 0.340374
C37   C     C_3   0.501727 0.821157 0.555812 0.344718
C38   C     C_3   0.505233 0.175473 0.055880 0.340585
C39   C     C_R   0.928169 0.406895 0.320980 -0.303575
C40   C     C_R   0.927546 0.592732 0.823057 -0.307189
C41   C     C_R   0.428135 0.906919 0.321076 -0.303643
C42   C     C_R   0.427562 0.092748 0.823001 -0.307157
C43   C     C_3   0.798395 0.547439 0.278287 0.242495
C44   C     C_3   0.797694 0.453092 0.775945 0.239600
C45   C     C_3   0.298257 0.047340 0.278170 0.242019
C46   C     C_R   0.157791 0.281170 0.512726 0.588635
C47   C     C_3   0.297790 0.953028 0.776152 0.239915
C48   C     C_R   0.657663 0.218566 0.017741 0.590054
C49   C     C_R   0.657788 0.781084 0.511892 0.588570
C50   C     C_R   0.189489 0.747244 0.058594 -0.020141
C51   C     C_R   0.189506 0.252468 0.554198 -0.019700
C52   C     C_R   0.689463 0.247255 0.058706 -0.020149
C53   C     C_3   0.013952 0.719333 0.032711 -0.332006
C54   C     C_R   0.689516 0.752381 0.553216 -0.019655
C55   C     C_R   0.233964 0.736250 0.067989 -0.052631
C56   C     C_R   0.233802 0.263671 0.568662 -0.052602
C57   C     C_R   0.733942 0.236258 0.068046 -0.052639
C58   C     C_R   0.733768 0.763652 0.568766 -0.052666
C59   C     C_R   0.290763 0.686345 0.045650 -0.072175
C60   C     C_R   0.290346 0.314003 0.555726 -0.072341
C61   C     C_R   0.790745 0.186349 0.045631 -0.072176
C62   C     C_R   0.790214 0.814123 0.558138 -0.072328
C63   C     C_R   0.822526 0.214342 0.087455 -0.075924
C64   C     C_3   0.515104 0.778011 0.569548 -0.321169
C65   C     C_R   0.821908 0.786101 0.600382 -0.075268
C66   C     C_R   0.322542 0.714341 0.087486 -0.075921
C67   C     C_R   0.322036 0.285974 0.597946 -0.075290
C68   C     C_R   0.810798 0.253778 0.120725 -0.024009
C69   C     C_R   0.810305 0.746366 0.627992 -0.023119
C70   C     C_R   0.310813 0.753775 0.120729 -0.024047
C71   C     C_R   0.310383 0.246308 0.626741 -0.023213
C72   C     C_R   0.766309 0.264784 0.110626 -0.051647
C73   C     C_R   0.766044 0.735096 0.611770 -0.051995
C74   C     C_R   0.266327 0.764777 0.110586 -0.051628
C75   C     C_3   0.513915 0.219361 0.032601 -0.332118
C76   C     C_R   0.266073 0.235110 0.611688 -0.051935
C77   C     C_R   0.177742 0.786690 0.091375 -0.075864
C78   C     C_R   0.177836 0.212791 0.582516 -0.076752
C79   C     C_R   0.677718 0.286703 0.091522 -0.075878
C80   C     C_R   0.677899 0.712636 0.580342 -0.076698
C81   C     C_3   0.007605 0.313352 0.085554 0.326781
C82   C     C_3   0.000974 0.680196 0.548824 0.355637
C83   C     C_3   0.507669 0.813331 0.085113 0.326607
C84   C     C_3   0.501150 0.180334 0.549173 0.355674
C85   C     C_R   0.709463 0.314696 0.132974 -0.076808
C86   C     C_R   0.246167 0.696824 0.035576 -0.026697
C87   C     C_R   0.709552 0.684622 0.622305 -0.076900
C88   C     C_R   0.209482 0.814684 0.132848 -0.076824
C89   C     C_R   0.209481 0.184776 0.624558 -0.076928
C90   C     C_R   0.754024 0.304179 0.143352 -0.022020
C91   C     C_R   0.753892 0.695405 0.638815 -0.022232
C92   C     C_R   0.254039 0.804171 0.143277 -0.022024
C93   C     C_R   0.253868 0.195487 0.639912 -0.022307
C94   C     C_R   0.786491 0.332075 0.186829 0.588419
C95   C     C_R   0.786252 0.667473 0.682852 0.589596
C96   C     C_R   0.286500 0.832069 0.186770 0.588431
C97   C     C_R   0.245915 0.303329 0.540792 -0.026610
C98   C     C_R   0.286227 0.167552 0.683928 0.589541
C99   C     C_R   0.842499 0.282415 0.164047 0.593086
C100  C     C_R   0.841917 0.717689 0.671583 0.591859
C101  C     C_R   0.342510 0.782415 0.164063 0.593120
C102  C     C_R   0.341990 0.217629 0.670365 0.592111
C103  C     C_2   0.107570 0.656847 0.813801 -0.088560
C104  C     C_2   0.107928 0.343481 0.312582 -0.085347
C105  C     C_2   0.607554 0.156854 0.813852 -0.088578
C106  C     C_2   0.607913 0.843484 0.312593 -0.085767
C107  C     C_3   0.069481 0.632413 0.789261 -0.078656
C108  C     C_R   0.746146 0.196832 0.035600 -0.026675
C109  C     C_3   0.069619 0.367688 0.288946 -0.104483
C110  C     C_3   0.569475 0.132408 0.789273 -0.078872
C111  C     C_3   0.569598 0.867683 0.288949 -0.104038
C112  C     C_1   0.096625 0.588502 0.003444 0.022668
C113  C     C_1   0.096591 0.411541 0.503211 0.030143
C114  C     C_1   0.596622 0.088501 0.003452 0.022669
C115  C     C_1   0.596554 0.911528 0.503275 0.029838
C116  C     C_2   0.129720 0.614638 0.042028 -0.098612
C117  C     C_2   0.129359 0.385180 0.543070 -0.094593
C118  C     C_2   0.629707 0.114643 0.042069 -0.098566
C119  C     C_R   0.745830 0.803374 0.542029 -0.026558
C120  C     C_2   0.629281 0.885141 0.543274 -0.094639
C121  C     C_2   0.136359 0.650689 0.943205 0.225460
C122  C     C_2   0.136362 0.349346 0.443237 0.227564
C123  C     C_2   0.636338 0.150699 0.943272 0.225489
C124  C     C_2   0.636309 0.849319 0.443389 0.227044
C125  C     C_R   0.885404 0.345006 0.383040 -0.084260
C126  C     C_R   0.884500 0.654388 0.886028 -0.085024
C127  C     C_R   0.385376 0.845027 0.383122 -0.084326
C128  C     C_R   0.384545 0.154426 0.885895 -0.085303
C129  C     C_3   0.989552 0.275946 0.009402 -0.314095
C130  C     C_R   0.213532 0.668851 0.993609 0.591501
C131  C     C_3   0.992918 0.723013 0.501731 -0.347562
C132  C     C_3   0.489667 0.775935 0.008730 -0.314155
C133  C     C_3   0.493101 0.223110 0.501494 -0.347109
C134  C     C_R   0.918688 0.374465 0.430900 -0.054153
C135  C     C_R   0.917695 0.624885 0.933979 -0.037977
C136  C     C_R   0.418636 0.874501 0.431028 -0.053097
C137  C     C_R   0.417727 0.124913 0.933891 -0.038374
C138  C     C_R   0.903614 0.411903 0.190635 0.034917
C139  C     C_R   0.903367 0.587970 0.691611 0.027750
C140  C     C_R   0.403606 0.911909 0.190661 0.034759
H1    H     H_    0.030833 0.340031 0.570375 0.048189
H2    H     H_    0.155667 0.581935 0.725714 0.080357
H3    H     H_    0.504145 0.180152 0.680677 -0.066027
H4    H     H_    0.967344 0.283406 0.909503 0.165616
H5    H     H_    0.985946 0.725306 0.372696 0.147848
H6    H     H_    0.467459 0.783407 0.908845 0.165618
H7    H     H_    0.485875 0.225279 0.372691 0.147962
H8    H     H_    0.016839 0.257181 0.965426 0.102835
H9    H     H_    0.022143 0.741313 0.530987 0.111548
H10   H     H_    0.516980 0.757211 0.964673 0.103083
H11   H     H_    0.522408 0.241362 0.529619 0.111439
H12   H     H_    0.110594 0.476887 0.295234 0.004296
H13   H     H_    0.654819 0.917393 0.220213 0.078634
H14   H     H_    0.112597 0.521793 0.800970 0.005726
H15   H     H_    0.610603 0.976913 0.295336 0.004406
H16   H     H_    0.612631 0.021773 0.801026 0.005783
H17   H     H_    0.098562 0.459770 0.095803 0.082082
H18   H     H_    0.098146 0.540017 0.605400 0.079899
H19   H     H_    0.598560 0.959770 0.095956 0.082098
H20   H     H_    0.598155 0.040012 0.605501 0.079829
H21   H     H_    0.803094 0.514844 0.276643 0.034583
H22   H     H_    0.765703 0.555330 0.229006 0.017787
H23   H     H_    0.799280 0.557182 0.404302 0.074373
H24   H     H_    0.655693 0.081919 0.725786 0.080394
H25   H     H_    0.765334 0.444665 0.725205 0.018997
H26   H     H_    0.802071 0.485714 0.771960 0.033939
H27   H     H_    0.798057 0.443988 0.902769 0.073050
H28   H     H_    0.302863 0.014735 0.276116 0.034471
H29   H     H_    0.265626 0.055351 0.228696 0.018009
H30   H     H_    0.299082 0.056972 0.404330 0.074068
H31   H     H_    0.265393 0.944667 0.725548 0.018868
H32   H     H_    0.302213 0.985648 0.772416 0.034020
H33   H     H_    0.298201 0.943857 0.902900 0.073028
H34   H     H_    0.178092 0.444683 0.056424 0.134870
H35   H     H_    0.177107 0.555870 0.555703 0.137066
H36   H     H_    0.678084 0.944666 0.056560 0.134906
H37   H     H_    0.677109 0.055869 0.555686 0.137066
H38   H     H_    0.880237 0.521911 0.887201 -0.054238
H39   H     H_    0.880877 0.477634 0.387853 -0.058265
H40   H     H_    0.380268 0.021971 0.887331 -0.054735
H41   H     H_    0.035518 0.660896 0.100453 0.070869
H42   H     H_    0.380840 0.977668 0.387779 -0.057910
H43   H     H_    0.902695 0.539615 0.074320 0.052193
H44   H     H_    0.903090 0.460312 0.575802 0.053735
H45   H     H_    0.402723 0.039614 0.074545 0.052241
H46   H     H_    0.403073 0.960314 0.575657 0.053529
H47   H     H_    0.803980 0.538365 0.992439 -0.003897
H48   H     H_    0.804625 0.460824 0.489888 -0.005092
H49   H     H_    0.304031 0.038443 0.992313 -0.004048
H50   H     H_    0.304584 0.960875 0.490073 -0.004942
H51   H     H_    0.838905 0.579350 0.957628 0.012450
H52   H     H_    0.531219 0.840002 0.572358 0.049447
H53   H     H_    0.839999 0.419874 0.460649 0.011248
H54   H     H_    0.338999 0.079444 0.958281 0.012430
H55   H     H_    0.339930 0.919927 0.460311 0.011319
H56   H     H_    0.987481 0.324720 0.434638 -0.085312
H57   H     H_    0.996778 0.663176 0.937404 -0.077197
H58   H     H_    0.488117 0.825485 0.434226 -0.087784
H59   H     H_    0.496764 0.163205 0.937341 -0.077567
H60   H     H_    0.035208 0.269230 0.467315 0.124535
H61   H     H_    0.036214 0.723635 0.929739 0.123021
H62   H     H_    0.535301 0.769555 0.465189 0.124843
H63   H     H_    0.535543 0.160948 0.100226 0.070900
H64   H     H_    0.536163 0.223706 0.929565 0.122966
H65   H     H_    0.034923 0.273812 0.681772 0.147472
H66   H     H_    0.029556 0.732035 0.140555 0.142093
H67   H     H_    0.534432 0.773315 0.679948 0.146437
H68   H     H_    0.529521 0.232065 0.140415 0.142163
H69   H     H_    0.970633 0.258908 0.099039 0.113494
H70   H     H_    0.964264 0.734722 0.568219 0.129717
H71   H     H_    0.470759 0.758849 0.098248 0.113237
H72   H     H_    0.464622 0.234963 0.568441 0.129482
H73   H     H_    0.698912 0.344684 0.157333 0.119182
H74   H     H_    0.188812 0.459941 0.259421 0.136601
H75   H     H_    0.699102 0.654402 0.642183 0.118907
H76   H     H_    0.198930 0.844672 0.157181 0.119196
H77   H     H_    0.198989 0.154612 0.645393 0.118932
H78   H     H_    0.143833 0.796099 0.085170 0.119390
H79   H     H_    0.144058 0.203219 0.572404 0.118669
H80   H     H_    0.643807 0.296114 0.085355 0.119353
H81   H     H_    0.644157 0.703007 0.569332 0.118735
H82   H     H_    0.856430 0.204923 0.093954 0.118894
H83   H     H_    0.855642 0.795732 0.611658 0.119781
H84   H     H_    0.356444 0.704925 0.094017 0.118914
H85   H     H_    0.190261 0.539280 0.755046 0.134632
H86   H     H_    0.355809 0.295546 0.608272 0.119718
H87   H     H_    0.878749 0.319934 0.459421 0.090094
H88   H     H_    0.877635 0.679280 0.963097 0.093695
H89   H     H_    0.378715 0.819958 0.459517 0.090080
H90   H     H_    0.377706 0.179341 0.962875 0.093239
H91   H     H_    0.301291 0.656349 0.021374 0.124043
H92   H     H_    0.300812 0.344177 0.534971 0.124320
H93   H     H_    0.801273 0.156351 0.021331 0.124037
H94   H     H_    0.800640 0.844351 0.538319 0.124336
H95   H     H_    0.150077 0.609577 0.146061 0.106818
H96   H     H_    0.688822 0.959968 0.259491 0.136577
H97   H     H_    0.149270 0.389978 0.648423 0.106489
H98   H     H_    0.650065 0.109581 0.146100 0.106804
H99   H     H_    0.649137 0.889908 0.648788 0.107016
H100  H     H_    0.111358 0.683230 0.741484 0.096272
H101  H     H_    0.112095 0.317390 0.238846 0.094726
H102  H     H_    0.611336 0.183242 0.741554 0.096164
H103  H     H_    0.612112 0.817420 0.238723 0.095123
H104  H     H_    0.851963 0.388299 0.043153 0.116543
H105  H     H_    0.852119 0.611848 0.543144 0.119432
H106  H     H_    0.351988 0.888283 0.043087 0.116480
H107  H     H_    0.690290 0.039259 0.754984 0.134632
H108  H     H_    0.352073 0.111828 0.543245 0.119085
H109  H     H_    0.952696 0.428514 0.353843 0.072423
H110  H     H_    0.952068 0.571111 0.855839 0.074545
H111  H     H_    0.452655 0.928543 0.353958 0.072394
H112  H     H_    0.452087 0.071130 0.855775 0.074515
H113  H     H_    0.985839 0.258584 0.576698 0.109118
H114  H     H_    0.982742 0.735124 0.007961 0.116767
H115  H     H_    0.485513 0.758845 0.572035 0.109502
H116  H     H_    0.482679 0.235112 0.007962 0.116543
H117  H     H_    0.039001 0.578118 0.865929 0.074268
H118  H     H_    0.154812 0.417375 0.219947 0.078728
H119  H     H_    0.039644 0.422445 0.362710 0.072275
H120  H     H_    0.539014 0.078100 0.865876 0.074235
H121  H     H_    0.539619 0.922439 0.362721 0.072379
H122  H     H_    0.979541 0.332586 0.120250 0.017975
H123  H     H_    0.972380 0.661874 0.512082 0.071980
H124  H     H_    0.479583 0.832535 0.119824 0.018341
H125  H     H_    0.472474 0.162027 0.513328 0.071480
H126  H     H_    0.026038 0.303991 0.193194 -0.032641
H127  H     H_    0.003762 0.679874 0.680432 -0.066095
H128  H     H_    0.526089 0.803952 0.192750 -0.032169
N1    N     N_R   0.169798 0.679853 0.984618 -0.425550
N2    N     N_R   0.169782 0.320143 0.484606 -0.425613
N3    N     N_R   0.669774 0.179864 0.984697 -0.425572
N4    N     N_R   0.669734 0.820117 0.484757 -0.425573
N5    N     N_R   0.830187 0.321056 0.197275 -0.425138
N6    N     N_R   0.829748 0.678726 0.699122 -0.424300
N7    N     N_R   0.330194 0.821054 0.197268 -0.425122
N8    N     N_R   0.329769 0.178737 0.699054 -0.424339
O1    O     O_2   0.914200 0.445720 0.903420 -0.427452
O2    O     O_3   0.039400 0.666272 0.474583 -0.573393
O3    O     O_3   0.535644 0.833096 0.978147 -0.559859
O4    O     O_3   0.539434 0.166264 0.474472 -0.573274
O5    O     O_3   0.049930 0.518940 0.045960 -0.499059
O6    O     O_3   0.049930 0.481060 0.545960 -0.497322
O7    O     O_3   0.549930 0.018940 0.045960 -0.499065
O8    O     O_3   0.549930 0.981060 0.545960 -0.497335
O9    O     O_2   0.224127 0.634795 0.963715 -0.592846
O10   O     O_2   0.223914 0.365595 0.472384 -0.593177
O11   O     O_2   0.724106 0.134803 0.963726 -0.592852
O12   O     O_2   0.914200 0.554280 0.403420 -0.428914
O13   O     O_2   0.723798 0.865682 0.474400 -0.593221
O14   O     O_2   0.119067 0.727975 0.013317 -0.619376
O15   O     O_2   0.119317 0.271497 0.503582 -0.622520
O16   O     O_2   0.619034 0.227983 0.013515 -0.619354
O17   O     O_2   0.619338 0.771355 0.502040 -0.622475
O18   O     O_2   0.775792 0.366089 0.217171 -0.607364
O19   O     O_2   0.775611 0.633210 0.708567 -0.607986
O20   O     O_2   0.275799 0.866083 0.217071 -0.607400
O21   O     O_2   0.275552 0.133348 0.710619 -0.607795
O22   O     O_2   0.881133 0.273002 0.171392 -0.612060
O23   O     O_2   0.414200 0.945720 0.903420 -0.427518
O24   O     O_2   0.880363 0.727369 0.684230 -0.614114
O25   O     O_2   0.381143 0.773008 0.171432 -0.611957
O26   O     O_2   0.380475 0.227239 0.682025 -0.614063
O27   O     O_3   0.950020 0.480960 0.143730 -0.493015
O28   O     O_3   0.950020 0.519040 0.643730 -0.492379
O29   O     O_3   0.450020 0.980960 0.143730 -0.493039
O30   O     O_3   0.450020 0.019040 0.643730 -0.492389
O31   O     O_3   0.985090 0.412220 0.642040 -0.480340
O32   O     O_3   0.985090 0.587780 0.142040 -0.484070
O33   O     O_3   0.485090 0.912220 0.642040 -0.480555
O34   O     O_2   0.414200 0.054280 0.403420 -0.428839
O35   O     O_3   0.485090 0.087780 0.142040 -0.484006
O36   O     O_2   0.911623 0.380774 0.761030 -0.436604
O37   O     O_2   0.912559 0.620229 0.266895 -0.445811
O38   O     O_2   0.411684 0.880701 0.761327 -0.436750
O39   O     O_2   0.412562 0.120240 0.266812 -0.445648
O40   O     O_3   0.863813 0.489136 0.082304 -0.660636
O41   O     O_3   0.863946 0.510672 0.581693 -0.660186
O42   O     O_3   0.363817 0.989141 0.082264 -0.660642
O43   O     O_3   0.363942 0.010677 0.581728 -0.660089
O44   O     O_3   0.970736 0.329832 0.675006 -0.581541
O45   O     O_3   0.135744 0.489105 0.612519 -0.626967
O46   O     O_3   0.971356 0.670323 0.167447 -0.596065
O47   O     O_3   0.470782 0.829818 0.674448 -0.582052
O48   O     O_3   0.471392 0.170322 0.167480 -0.595802
O49   O     O_2   0.085560 0.445380 0.786390 -0.453606
O50   O     O_2   0.085560 0.554620 0.286390 -0.448448
O51   O     O_2   0.585560 0.945380 0.786390 -0.453612
O52   O     O_2   0.585560 0.054620 0.286390 -0.448432
O53   O     O_3   0.014550 0.412170 0.047860 -0.467637
O54   O     O_3   0.014550 0.587830 0.547860 -0.480113
O55   O     O_3   0.514550 0.912170 0.047860 -0.467642
O56   O     O_3   0.135704 0.510846 0.113539 -0.626928
O57   O     O_3   0.514550 0.087830 0.547860 -0.479959
O58   O     O_2   0.095551 0.388250 0.975995 -0.482205
O59   O     O_2   0.097126 0.609386 0.482370 -0.482247
O60   O     O_2   0.595583 0.888311 0.976167 -0.482386
O61   O     O_2   0.597136 0.109360 0.482459 -0.482256
O62   O     O_3   0.832015 0.567060 0.194611 -0.621669
O63   O     O_3   0.831919 0.433355 0.696087 -0.619428
O64   O     O_3   0.331993 0.066952 0.195072 -0.621489
O65   O     O_3   0.331948 0.933292 0.695908 -0.619591
O66   O     O_3   0.635750 0.989097 0.612493 -0.626877
O67   O     O_3   0.635703 0.010846 0.113542 -0.626957
O68   O     O_3   0.035573 0.333069 0.978410 -0.559639
P1    P     P_3+3 0.909970 0.458430 0.077330 1.008247
P2    P     P_3+3 0.056001 0.623322 0.573987 0.958462
P3    P     P_3+3 0.554901 0.875750 0.073637 0.965498
P4    P     P_3+3 0.556005 0.123319 0.573989 0.958565
P5    P     P_3+3 0.945488 0.625253 0.128575 0.989236
P6    P     P_3+3 0.945637 0.374649 0.627024 0.997453
P7    P     P_3+3 0.445504 0.125265 0.128532 0.989426
P8    P     P_3+3 0.445637 0.874652 0.627049 0.997828
P9    P     P_3+3 0.909970 0.541570 0.577330 1.005750
P10   P     P_3+3 0.409970 0.958430 0.077330 1.008118
P11   P     P_3+3 0.409970 0.041570 0.577330 1.006028
P12   P     P_3+3 0.089830 0.458070 0.612460 0.992486
P13   P     P_3+3 0.089830 0.541930 0.112460 0.991303
P14   P     P_3+3 0.589830 0.958070 0.612460 0.992448
P15   P     P_3+3 0.589830 0.041930 0.112460 0.991270
P16   P     P_3+3 0.054886 0.375736 0.073653 0.965657

loop_
_geom_bond_atom_site_label_1
_geom_bond_atom_site_label_2
_ccdc_geom_bond_type
O2    P2    S    
C31   H48   S    
O42   P10   S    
C58   C73   A    
C3    P11   S    
C1    H60   S    
C45   H29   S    
C5    C139  A    
C24   C119  A    
C121  N1    S    
C11   N8    S    
C66   H84   S    
O40   P1    S    
C43   H21   S    
C95   N6    Am   
C91   C95   A    
C55   C74   A    
C85   C90   A    
C5    C9    A    
C127  C136  S    
C72   C90   A    
C7    C11   A    
C105  C123  A    
O49   P12   D    
C11   C128  D    
C74   C92   A    
C66   C70   A    
C109  P16   S    
C9    C126  D    
C80   C87   A    
C115  P14   S    
O46   P5    S    
C83   H124  S    
Ba1   O49   S    
C39   H109  S    
C100  O24   D    
O8    P14   S    
C47   O65   S    
C26   H38   S    
C21   H74   S    
C20   H20   S    
C38   O48   S    
Ba1   O6    S    
C23   H96   S    
C48   N3    Am   
C75   H68   S    
Ba1   O28   S    
Ba2   O27   S    
C23   H36   S    
C21   H34   S    
C13   O11   D    
C63   H82   S    
O33   P8    S    
O56   P13   S    
C81   H126  S    
C67   H86   S    
C26   O40   S    
Ba4   O29   S    
C46   N2    Am   
C35   O14   D    
C38   H63   S    
C48   O16   D    
C41   H111  S    
C40   C135  S    
C34   H56   S    
C100  N6    Am   
Ba3   O33   S    
C52   C79   A    
C30   O62   S    
C83   C132  S    
O37   P5    D    
Ba4   O57   S    
C123  N3    S    
C94   N5    Am   
C137  P7    S    
C49   C54   A    
C68   C99   A    
Ba2   O50   S    
C26   H43   S    
Ba1   O1    S    
C21   H118  S    
C45   O64   S    
C86   C130  A    
C47   H32   S    
C95   O19   D    
C116  H95   S    
C44   H25   S    
C84   H125  S    
O51   P14   D    
O6    P12   S    
C69   C73   A    
C39   C138  D    
C17   O56   S    
Ba2   P9    S    
C104  C122  A    
C37   H58   S    
O60   P3    D    
C50   C77   A    
C2    O10   D    
C12   C107  A    
C106  C124  A    
O50   P13   D    
C106  H103  S    
C76   C93   A    
O35   P7    S    
C130  O9    D    
C135  P5    S    
C22   H35   S    
C127  H89   S    
C117  H97   S    
C77   H78   S    
Ba1   P12   S    
C28   C32   S    
C25   H24   S    
C34   O44   S    
C82   H127  S    
C35   C50   A    
C88   C92   A    
C133  H11   S    
C28   O42   S    
C63   C68   A    
C114  C118  A    
Ba2   O12   S    
C118  C123  S    
C22   H2    S    
C110  P4    S    
C15   H120  S    
C77   C88   A    
C102  O26   D    
C15   C114  A    
C19   H15   S    
C41   C140  D    
C29   H42   S    
Ba2   P13   S    
C33   O65   S    
C122  N2    S    
C38   C75   S    
C62   H94   S    
C80   H81   S    
C84   O4    S    
C14   C109  A    
C13   N3    Am   
C9    N6    S    
O44   P6    S    
C50   C55   A    
C49   N4    Am   
C57   C72   A    
C79   C85   A    
Ba4   O7    S    
C26   C30   S    
C3    C42   D    
O67   P15   S    
O30   P11   S    
C103  C121  A    
C6    C10   A    
C81   O68   S    
C112  C116  A    
C6    H106  S    
C61   C108  A    
C83   H128  S    
C44   H27   S    
Ba1   O53   S    
C138  P1    S    
C126  H88   S    
C4    C8    A    
Ba3   O55   S    
C1    H113  S    
C82   O2    S    
C6    C140  A    
C105  C110  A    
Ba2   O5    S    
C12   H117  S    
C96   N7    Am   
C64   H62   S    
Ba3   O30   S    
Ba3   Ba4   S    
Ba4   P11   S    
C89   C93   A    
C31   H53   S    
O45   P12   S    
C128  C137  S    
C17   C21   S    
C56   C76   A    
C103  C107  A    
C81   H122  S    
C16   C111  A    
C23   H13   S    
C1    H65   S    
C7    H108  S    
C14   H119  S    
C139  P9    S    
C70   C101  A    
C40   C139  D    
C92   C96   A    
O31   P6    S    
C2    N2    Am   
C87   C91   A    
C82   C131  S    
O23   P10   D    
C130  N1    Am   
C62   C119  A    
O34   P11   D    
C1    C34   S    
C57   C108  A    
C8    N5    S    
C112  P13   S    
C54   C58   A    
O1    P1    D    
Ba2   O54   S    
O3    P3    S    
O41   P9    S    
Ba1   O5    S    
Ba3   O7    S    
C25   H107  S    
C32   H54   S    
C60   H92   S    
O36   P6    D    
C18   H18   S    
O61   P4    D    
C19   O67   S    
C136  P8    S    
C131  H70   S    
C90   C94   A    
C39   C134  S    
C60   C67   A    
C46   O15   D    
C20   C25   S    
O39   P7    D    
C99   O22   D    
C61   C63   A    
C107  P2    S    
C20   O66   S    
C65   C69   A    
O58   P16   D    
C42   C137  S    
C93   C98   A    
C120  C124  S    
C132  H71   S    
C35   N1    Am   
C78   C89   A    
C51   C56   A    
O5    P13   S    
Ba3   O8    S    
C129  H8    S    
O7    P15   S    
O32   P5    S    
C126  C135  S    
C12   C112  A    
Ba4   O35   S    
C42   H112  S    
C45   H30   S    
C37   C64   S    
C10   C127  D    
C22   H85   S    
O28   P9    S    
Ba4   O52   S    
C8    C125  D    
Ba1   P1    S    
C134  P6    S    
C43   H22   S    
C78   H79   S    
C18   H14   S    
C15   C110  A    
C104  H101  S    
C41   C136  S    
C29   C33   S    
C29   H46   S    
C82   H123  S    
C45   H28   S    
C132  H10   S    
O29   P10   S    
C32   O64   S    
C120  H99   S    
C47   H31   S    
C14   C113  A    
C44   H26   S    
C79   H80   S    
O52   P15   D    
C133  H72   S    
C27   C31   S    
C103  H100  S    
Ba3   P10   S    
C53   H66   S    
C36   C53   S    
C116  C121  S    
C31   O63   S    
C98   N8    Am   
C64   H115  S    
Ba3   O51   S    
C18   O45   S    
O4    P4    S    
C33   H50   S    
C30   H51   S    
C98   O21   D    
O54   P2    S    
C84   H3    S    
Ba4   P15   S    
C83   O3    S    
C84   C133  S    
C59   H91   S    
C43   O62   S    
C36   H57   S    
C4    H104  S    
C71   C102  A    
C18   C22   S    
C52   C57   A    
C4    C138  A    
C106  C111  A    
C16   C115  A    
C81   C129  S    
O48   P7    S    
C104  C109  A    
C113  P12   S    
C49   O17   D    
C68   C72   A    
C44   O63   S    
O43   P11   S    
C118  H98   S    
C115  C120  A    
C3    C7    A    
C29   O43   S    
Ba4   O8    S    
C25   H37   S    
C75   H116  S    
C30   H47   S    
C37   H52   S    
C24   N4    Am   
C62   C65   A    
C75   H64   S    
C53   H61   S    
C53   H114  S    
C27   O41   S    
Ba1   Ba2   S    
C2    C97   A    
C111  P3    S    
C88   H76   S    
C113  C117  A    
C32   H49   S    
C124  N4    S    
O68   P16   S    
C69   C100  A    
C125  C134  S    
C27   H44   S    
C19   C23   S    
C96   O20   D    
C71   C76   A    
C70   C74   A    
Ba2   O6    S    
Ba1   O31   S    
Ba2   O32   S    
C61   H93   S    
C38   H59   S    
C24   O13   D    
C65   H83   S    
Ba3   O23   S    
C58   C119  A    
C19   H19   S    
C60   C97   A    
C17   H17   S    
O66   P14   S    
Ba4   O34   S    
O57   P4    S    
C36   H41   S    
C131  H5    S    
O59   P2    D    
C114  P15   S    
C73   C91   A    
O12   P9    D    
C55   C86   A    
C5    H105  S    
C34   H1    S    
O55   P3    S    
C54   C80   A    
C43   H23   S    
C59   C66   A    
C129  H4    S    
C51   C78   A    
C36   O46   S    
O27   P1    S    
O38   P8    D    
C105  H102  S    
C101  N7    Am   
C102  N8    Am   
C99   N5    Am   
C56   C97   A    
C94   O18   D    
C13   C108  A    
C27   H39   S    
C28   H40   S    
O53   P16   S    
C16   H121  S    
C132  H6    S    
C20   H16   S    
O47   P8    S    
C125  H87   S    
C46   C51   A    
C131  H9    S    
C37   O47   S    
C129  H69   S    
C117  C122  S    
C10   N7    S    
C47   H33   S    
C67   C71   A    
C40   H110  S    
C59   C86   A    
C140  P10   S    
C17   H12   S    
C28   H45   S    
C33   H55   S    
Ba3   P14   S    
C87   H75   S    
C85   H73   S    
C133  H7    S    
C89   H77   S    
C64   H67   S    
C128  H90   S    
C48   C52   A    
C101  O25   D    
