data_mof_unit_33298.cif
_audit_creation_date              2012-12-11T16:41:38-0500
_audit_creation_method            fapswitch 2.2
_symmetry_space_group_name_H-M    P1
_symmetry_Int_Tables_number       1
_space_group_crystal_system       triclinic
_cell_length_a                    8.345223
_cell_length_b                    17.611896
_cell_length_c                    18.809621
_cell_angle_alpha                 100.272848
_cell_angle_beta                  90.175138
_cell_angle_gamma                 97.457456
_cell_volume                      2696.24918005

loop_
_atom_site_label
_atom_site_type_symbol
_atom_type_description
_atom_site_fract_x
_atom_site_fract_y
_atom_site_fract_z
_atom_type_partial_charge
Ba1   Ba    Ba6+2 0.849550 0.533890 0.465080 1.709667
Ba2   Ba    Ba6+2 0.340280 0.466170 0.534930 1.694855
C1    C     C_3   0.539928 0.759379 0.218632 -0.032194
C2    C     C_R   0.921791 0.410700 0.093967 0.096625
C3    C     C_R   0.771724 0.441766 0.959380 -0.086844
C4    C     C_3   0.113258 0.691603 0.269359 0.287335
C5    C     C_R   0.935517 0.464806 0.978555 0.019682
C6    C     C_R   0.710790 0.438315 0.889535 0.115982
C7    C     C_R   0.813944 0.461536 0.834937 -0.035950
C8    C     C_R   0.973415 0.497881 0.856543 -0.036719
C9    C     C_R   0.032760 0.500470 0.928868 0.022657
C10   C     C_R   0.766730 0.451307 0.760371 0.028747
C11   C     C_R   0.879545 0.474961 0.710255 -0.230599
C12   C     C_3   0.611637 0.731257 0.283319 0.609693
C13   C     C_R   0.024287 0.522862 0.732278 0.045171
C14   C     C_R   0.072552 0.533710 0.806686 -0.050658
C15   C     C_R   0.155079 0.499982 0.070861 0.010939
C16   C     C_3   0.095751 0.714176 0.195634 -0.322605
C17   C     C_R   0.216087 0.501898 0.142776 0.002661
C18   C     C_R   0.117329 0.466060 0.192664 -0.057695
C19   C     C_R   0.976515 0.417256 0.165539 -0.050160
C20   C     C_R   0.217170 0.579607 0.833242 -0.014069
C21   C     C_R   0.273622 0.582629 0.903476 -0.085898
C22   C     C_R   0.188202 0.539591 0.951343 0.019178
C23   C     C_3   0.546325 0.310086 0.299045 0.273968
C24   C     C_R   0.250917 0.537211 0.021611 0.000341
C25   C     C_R   0.412973 0.564586 0.041372 -0.105663
C26   C     C_R   0.377912 0.535996 0.163516 -0.114010
C27   C     C_R   0.479085 0.560463 0.108552 -0.063867
C28   C     C_3   0.214384 0.728216 0.647702 0.292676
C29   C     C_R   0.426747 0.545119 0.238039 0.001134
C30   C     C_R   0.311856 0.524299 0.288588 -0.219915
C31   C     C_R   0.165054 0.477581 0.267196 0.035093
C32   C     C_R   0.430175 0.717296 0.461745 -0.246364
C33   C     C_R   0.565987 0.746074 0.507281 0.051100
C34   C     C_3   0.496126 0.264208 0.223615 -0.412640
C35   C     C_R   0.617275 0.827105 0.522487 0.027599
C36   C     C_R   0.528866 0.878190 0.493039 -0.029761
C37   C     C_R   0.383892 0.848303 0.453902 -0.071895
C38   C     C_R   0.331132 0.768167 0.440798 0.031873
C39   C     C_R   0.572467 0.162672 0.490027 -0.097216
C40   C     C_3   0.122020 0.799879 0.658737 -0.195573
C41   C     C_R   0.632771 0.242458 0.492234 -0.056885
C42   C     C_R   0.882259 0.225349 0.551077 0.062136
C43   C     C_R   0.826134 0.146372 0.548087 -0.110312
C44   C     C_R   0.671985 0.114457 0.518322 -0.031544
C45   C     C_3   0.115809 0.323724 0.733051 0.429865
C46   C     C_1   0.624372 0.030995 0.511942 0.105799
C47   C     C_1   0.581963 0.961455 0.504399 0.089889
C48   C     C_R   0.784218 0.272808 0.524455 -0.276915
C49   C     C_3   0.944341 0.279696 0.351476 0.341281
C50   C     C_3   0.880948 0.202235 0.301904 -0.202308
C51   C     C_3   0.598188 0.682207 0.694892 0.254150
C52   C     C_3   0.590380 0.742146 0.764007 -0.437004
C53   C     C_2   0.705347 0.796245 0.336176 0.535911
C54   C     C_2   0.100694 0.829328 0.738301 0.485631
C55   C     C_2   0.209770 0.863434 0.623470 0.541903
C56   C     C_3   0.144817 0.309544 0.809749 -0.066144
C57   C     C_2   0.785133 0.145160 0.340793 0.469821
C58   C     C_2   0.658239 0.611838 0.711112 0.579394
C59   C     C_2   0.459395 0.378566 0.312875 0.493034
C60   C     C_2   0.706995 0.256066 0.698952 0.578620
C61   C     C_2   0.657115 0.571506 0.112097 0.518368
C62   C     C_2   0.410615 0.130231 0.455945 0.612625
C63   C     C_3   0.529633 0.259236 0.690618 0.230934
C64   C     C_3   0.433900 0.181342 0.700058 -0.276710
C65   C     C_R   0.000330 0.459280 0.047965 0.038181
H1    H     H_    0.999330 0.782698 0.633720 0.137742
H2    H     H_    0.508199 0.708344 0.313931 -0.534474
H3    H     H_    0.455348 0.710548 0.188032 0.069295
H4    H     H_    0.677210 0.328722 0.299246 0.034972
H5    H     H_    0.363300 0.245795 0.219768 0.128746
H6    H     H_    0.529819 0.300449 0.182036 0.045012
H7    H     H_    0.556042 0.210948 0.211641 0.163526
H8    H     H_    0.124907 0.666402 0.152642 0.084204
H9    H     H_    0.221693 0.360580 0.717443 0.082307
H10   H     H_    0.012344 0.356389 0.733604 -0.055835
H11   H     H_    0.187508 0.366037 0.845568 0.038585
H12   H     H_    0.843997 0.308626 0.376973 -0.005201
H13   H     H_    0.240019 0.271023 0.809625 0.137710
H14   H     H_    0.502619 0.267697 0.634948 0.027230
H15   H     H_    0.446268 0.172100 0.756633 0.140937
H16   H     H_    0.478029 0.132453 0.662833 0.100820
H17   H     H_    0.029253 0.637504 0.270552 0.094665
H18   H     H_    0.304700 0.179297 0.686804 0.166075
H19   H     H_    0.848284 0.461083 0.653150 0.109069
H20   H     H_    0.908359 0.381188 0.198710 0.093361
H21   H     H_    0.290208 0.613673 0.800133 0.085113
H22   H     H_    0.344160 0.537562 0.345557 0.104641
H23   H     H_    0.808209 0.213761 0.256642 0.089223
H24   H     H_    0.684457 0.429022 0.999148 0.087665
H25   H     H_    0.384421 0.620911 0.919157 0.066447
H26   H     H_    0.239458 0.680131 0.276212 -0.004026
H27   H     H_    0.496450 0.582714 0.002043 0.098684
H28   H     H_    0.309249 0.887520 0.435861 0.142692
H29   H     H_    0.902614 0.109810 0.569115 0.116153
H30   H     H_    0.390347 0.655304 0.449896 0.064444
H31   H     H_    0.829231 0.333646 0.526372 0.059001
H32   H     H_    0.970179 0.725177 0.186465 0.205672
H33   H     H_    0.179238 0.767821 0.192422 0.109202
H34   H     H_    0.985105 0.174713 0.277307 0.078621
H35   H     H_    0.339463 0.752443 0.665081 -0.012284
H36   H     H_    0.763436 0.782036 0.382602 0.036481
H37   H     H_    0.023951 0.793316 0.769182 0.032479
H38   H     H_    0.336152 0.884510 0.637204 -0.009936
H39   H     H_    0.080566 0.316286 0.443523 0.215037
H40   H     H_    0.149803 0.243429 0.384121 0.203969
H41   H     H_    0.839392 0.126965 0.386345 0.021772
H42   H     H_    0.690060 0.606066 0.765735 -0.128025
H43   H     H_    0.333661 0.372144 0.298053 -0.080861
H44   H     H_    0.722676 0.838967 0.192821 0.219794
H45   H     H_    0.477919 0.665118 0.670116 0.029905
H46   H     H_    0.609128 0.789078 0.122238 0.194533
H47   H     H_    0.025586 0.262118 0.889001 0.183529
H48   H     H_    0.914941 0.313535 0.846115 0.181942
H49   H     H_    0.788868 0.300526 0.680765 -0.191478
H50   H     H_    0.476903 0.449253 0.911148 0.163495
H51   H     H_    0.517423 0.356388 0.889864 0.183669
H52   H     H_    0.719798 0.525154 0.123539 0.005471
H53   H     H_    0.693109 0.358443 0.098798 0.159881
H54   H     H_    0.830425 0.296525 0.074346 0.183274
H55   H     H_    0.354644 0.159609 0.418626 0.034558
H56   H     H_    0.468658 0.807966 0.237766 0.075282
H57   H     H_    0.838690 0.889280 0.540152 0.241785
H58   H     H_    0.720645 0.894562 0.613381 0.172054
H59   H     H_    0.287136 0.649537 0.564204 0.145371
H60   H     H_    0.096322 0.669932 0.553688 0.247858
H61   H     H_    0.710994 0.757182 0.791834 0.117565
H62   H     H_    0.501877 0.719022 0.801336 0.081888
H63   H     H_    0.552606 0.796311 0.750843 0.142901
N1    N     N_3   0.047072 0.263881 0.408051 -0.533057
N2    N     N_3   0.665845 0.783433 0.170319 -0.439391
N3    N     N_3   0.997311 0.273102 0.837909 -0.416178
N4    N     N_3   0.542157 0.411908 0.876704 -0.454417
N5    N     N_3   0.794271 0.349448 0.067344 -0.514656
N6    N     N_3   0.756485 0.856896 0.568593 -0.447653
N7    N     N_3   0.212808 0.693382 0.571546 -0.532071
O1    O     O_2   0.878040 0.448040 0.325130 -0.447129
O2    O     O_2   0.219794 0.230941 0.557553 -0.494607
O3    O     O_3   0.087660 0.252614 0.684314 -0.581293
O4    O     O_3   0.126800 0.453980 0.414370 -0.486430
O5    O     O_3   0.569440 0.593820 0.536390 -0.443163
O6    O     O_2   0.359400 0.311980 0.465480 -0.474889
O7    O     O_3   0.506292 0.261369 0.349462 -0.642510
O8    O     O_2   0.439254 0.467344 0.758397 -0.481314
O9    O     O_3   0.481975 0.319900 0.742470 -0.635618
O10   O     O_3   0.651020 0.589120 0.368830 -0.412841
O11   O     O_2   0.759730 0.529457 0.245920 -0.495880
O12   O     O_3   0.704637 0.714428 0.648215 -0.629227
O13   O     O_3   0.035377 0.324843 0.307648 -0.653241
O14   O     O_3   0.715531 0.675470 0.258122 -0.611233
O15   O     O_2   0.830300 0.688050 0.534560 -0.436309
O16   O     O_3   0.068750 0.630380 0.404830 -0.500156
O17   O     O_2   0.002937 0.771666 0.458971 -0.443085
O18   O     O_2   0.714642 0.864299 0.329218 -0.604407
O19   O     O_2   0.166946 0.892801 0.768814 -0.567922
O20   O     O_2   0.139846 0.892107 0.579932 -0.558477
O21   O     O_2   0.648015 0.116890 0.320098 -0.556539
O22   O     O_2   0.671311 0.559541 0.660792 -0.570699
O23   O     O_3   0.075278 0.752277 0.323348 -0.584414
O24   O     O_2   0.529649 0.440605 0.343070 -0.563473
O25   O     O_2   0.759324 0.204383 0.723867 -0.551485
O26   O     O_2   0.734625 0.629137 0.095495 -0.571886
O27   O     O_2   0.334743 0.071138 0.470454 -0.579136
O28   O     O_2   0.311660 0.551990 0.674910 -0.482574
O29   O     O_3   0.062910 0.546080 0.585630 -0.482246
O30   O     O_3   0.538690 0.410940 0.631180 -0.436728
O31   O     O_3   0.152709 0.675941 0.693607 -0.655166
O32   O     O_3   0.620260 0.406250 0.463620 -0.411255
O33   O     O_3   0.120960 0.369680 0.595180 -0.508364
P1    P     P_3+3 0.048060 0.426210 0.336320 0.989577
P2    P     P_3+3 0.655920 0.678120 0.556130 1.050280
P3    P     P_3+3 0.121890 0.730437 0.407606 0.985826
P4    P     P_3+3 0.141640 0.573850 0.663690 0.986016
P5    P     P_3+3 0.078770 0.269655 0.595136 0.968256
P6    P     P_3+3 0.635449 0.583909 0.275909 1.025594
P7    P     P_3+3 0.537879 0.306511 0.441206 0.957793
P8    P     P_3+3 0.558625 0.412137 0.723418 0.987182

loop_
_geom_bond_atom_site_label_1
_geom_bond_atom_site_label_2
_ccdc_geom_bond_type
C55   H38   S    
C27   C61   S    
H59   N7    S    
C16   H8    S    
C33   P2    S    
H46   N2    S    
C53   H36   S    
C25   C27   A    
O12   P2    S    
O23   P3    S    
O2    P5    D    
C17   C18   A    
C58   O22   D    
C54   O19   D    
C64   H18   S    
C19   H20   S    
C36   C47   S    
C60   O25   D    
C43   C44   A    
O31   P4    S    
C24   C25   A    
O11   P6    D    
C32   C38   A    
C15   C24   A    
O5    P2    S    
C26   C27   A    
C33   C35   A    
C22   C24   A    
C45   H9    S    
C32   C33   A    
C36   C37   A    
O15   P2    D    
C57   O21   D    
H50   N4    S    
C13   C14   A    
O16   P3    S    
C9    C22   A    
O4    P1    S    
C32   H30   S    
O9    P8    S    
Ba1   O15   S    
Ba1   Ba2   S    
O17   P3    D    
Ba1   O5    S    
C40   C54   S    
C64   H16   S    
C50   H23   S    
C30   H22   S    
C49   O13   S    
C6    C7    A    
C11   H19   S    
C39   C44   A    
C42   P5    S    
C23   H4    S    
C20   H21   S    
C7    C8    A    
Ba2   O29   S    
C58   H42   S    
C23   C34   S    
C60   C63   S    
C56   H13   S    
C29   P6    S    
C12   C53   S    
O1    P1    D    
C28   N7    S    
C40   H1    S    
Ba2   O6    S    
C39   C41   A    
C16   H33   S    
C52   H63   S    
C59   H43   S    
C40   C55   S    
O32   P7    S    
C51   C58   S    
C1    H56   S    
O33   P5    S    
C56   N3    S    
H39   N1    S    
C4    C16   S    
C44   C46   S    
C50   H34   S    
C48   H31   S    
C15   C65   A    
H57   N6    S    
C6    N4    S    
C1    N2    S    
C1    H3    S    
C4    H17   S    
C54   H37   S    
H40   N1    S    
O30   P8    S    
C53   O18   D    
C37   C38   A    
C51   O12   S    
C49   N1    S    
O10   P6    S    
O7    P7    S    
H48   N3    S    
O28   P4    D    
C51   C52   S    
C52   H61   S    
Ba1   P1    S    
C49   C50   S    
O8    P8    D    
C5    C9    A    
C60   H49   S    
C35   C36   A    
C50   C57   S    
C64   H15   S    
C61   H52   S    
C63   H14   S    
C29   C30   A    
C21   C22   A    
C4    H26   S    
C28   H35   S    
C35   N6    S    
C23   C59   S    
H54   N5    S    
Ba1   O16   S    
C17   C26   A    
Ba2   O28   S    
C37   H28   S    
C3    H24   S    
C1    C12   S    
C34   H7    S    
Ba2   O33   S    
C2    N5    S    
C18   C31   A    
C51   H45   S    
C46   C47   T    
C11   C13   A    
O29   P4    S    
Ba2   O5    S    
C12   H2    S    
C59   O24   D    
Ba1   O10   S    
C23   O7    S    
C16   H32   S    
C45   H10   S    
C61   O26   D    
C31   P1    S    
C42   C43   A    
H58   N6    S    
C3    C5    A    
C42   C48   A    
C52   H62   S    
C55   O20   D    
C41   P7    S    
C14   C20   A    
O14   P6    S    
Ba1   P2    S    
C13   P4    S    
C18   C19   A    
C21   H25   S    
C62   O27   D    
C26   C29   A    
H51   N4    S    
C2    C65   A    
C4    O23   S    
C41   C48   A    
O13   P1    S    
C57   H41   S    
H53   N5    S    
C30   C31   A    
C63   O9    S    
C28   O31   S    
C8    C14   A    
Ba2   P4    S    
C45   C56   S    
C2    C19   A    
C38   P3    S    
Ba1   O29   S    
C12   O14   S    
O3    P5    S    
C62   H55   S    
Ba2   O30   S    
Ba1   O32   S    
C15   C17   A    
H47   N3    S    
O6    P7    D    
C7    C10   A    
C49   H12   S    
Ba1   O4    S    
C8    C9    A    
C56   H11   S    
Ba2   O32   S    
C5    C65   A    
H44   N2    S    
C45   O3    S    
C10   C11   A    
C63   C64   S    
Ba2   O4    S    
C3    C6    A    
C20   C21   A    
C28   C40   S    
C25   H27   S    
H60   N7    S    
C39   C62   S    
C10   P8    S    
C43   H29   S    
C34   H6    S    
Ba1   O1    S    
C34   H5    S    
