data_mof_unit_42865.cif
_audit_creation_date              2012-12-11T17:09:26-0500
_audit_creation_method            fapswitch 2.2
_symmetry_space_group_name_H-M    P1
_symmetry_Int_Tables_number       1
_space_group_crystal_system       triclinic
_cell_length_a                    14.82304
_cell_length_b                    6.962664
_cell_length_c                    13.490107
_cell_angle_alpha                 90.000167
_cell_angle_beta                  99.926014
_cell_angle_gamma                 89.99983
_cell_volume                      1371.44401418

loop_
_atom_site_label
_atom_site_type_symbol
_atom_type_description
_atom_site_fract_x
_atom_site_fract_y
_atom_site_fract_z
_atom_type_partial_charge
O1    O     O_R   0.586930 0.505770 0.416350 -0.535663
O2    O     O_R   0.413070 0.005770 0.583650 -0.535662
O3    O     O_R   0.397900 0.173100 0.389630 -0.535897
O4    O     O_R   0.602100 0.673100 0.610370 -0.535901
C1    C     C_R   0.364383 0.345379 0.362910 0.720161
C2    C     C_R   0.635617 0.845379 0.637090 0.720164
O5    O     O_R   0.585280 0.175870 0.404330 -0.547027
O6    O     O_R   0.414720 0.675870 0.595670 -0.547029
O7    O     O_R   0.601790 0.008380 0.598460 -0.532766
O8    O     O_R   0.398210 0.508380 0.401540 -0.532769
C3    C     C_R   0.611871 0.345791 0.379712 0.691755
C4    C     C_R   0.388128 0.845792 0.620287 0.691751
O9    O     O_3   0.505200 0.340120 0.563670 -0.371619
O10   O     O_3   0.494800 0.840120 0.436330 -0.371618
V1    V     V_3+5 0.499040 0.064180 0.488190 1.391431
V2    V     V_3+5 0.500960 0.564180 0.511810 1.391419
C5    C     C_R   0.265231 0.018863 0.691500 0.076503
C6    C     C_R   0.734769 0.518857 0.308499 0.076437
C7    C     C_R   0.321991 0.859016 0.691259 -0.100982
C8    C     C_R   0.678009 0.359012 0.308740 -0.100958
C9    C     C_R   0.310688 0.709879 0.757470 -0.209856
C10   C     C_R   0.689310 0.209880 0.242525 -0.209945
H1    H     H_    0.357241 0.591399 0.763762 0.147878
H2    H     H_    0.642758 0.091401 0.236233 0.147898
C11   C     C_R   0.243554 0.719667 0.819831 -0.202125
C12   C     C_R   0.756446 0.219669 0.180165 -0.202141
H3    H     H_    0.240706 0.606430 0.874108 0.128304
H4    H     H_    0.759295 0.106434 0.125888 0.128320
C13   C     C_R   0.181982 0.875725 0.813420 -0.136942
C14   C     C_R   0.818017 0.375726 0.186578 -0.136943
C15   C     C_R   0.190610 0.019695 0.742947 0.080957
C16   C     C_R   0.809389 0.519695 0.257052 0.081077
C17   C     C_3   0.198850 0.230110 0.762164 -0.098576
C18   C     C_3   0.801143 0.730112 0.237838 -0.098572
C19   C     C_3   0.291054 0.220188 0.726055 -0.042487
C20   C     C_3   0.708942 0.720182 0.273950 -0.042580
H5    H     H_    0.204135 0.267840 0.843076 0.121181
H6    H     H_    0.795855 0.767850 0.156927 0.121175
H7    H     H_    0.298182 0.320719 0.663893 0.151091
H8    H     H_    0.701820 0.820704 0.336119 0.151085
C21   C     C_1   0.783493 0.877187 0.782878 -0.190991
C22   C     C_1   0.216507 0.377186 0.217122 -0.190988
C23   C     C_1   0.716147 0.860095 0.716788 -0.187715
C24   C     C_1   0.283853 0.360095 0.283212 -0.187712
O11   O     O_R   0.101720 0.231700 0.098560 -0.534920
O12   O     O_R   0.898280 0.731700 0.901440 -0.534920
O13   O     O_R   0.914700 0.558980 0.095690 -0.546253
O14   O     O_R   0.085300 0.058980 0.904310 -0.546263
C25   C     C_R   0.885591 0.389537 0.117405 0.699970
C26   C     C_R   0.114409 0.889537 0.882595 0.699959
O15   O     O_R   0.102080 0.561590 0.110390 -0.536196
O16   O     O_R   0.897920 0.061590 0.889610 -0.536201
O17   O     O_R   0.086950 0.728940 0.916330 -0.539950
O18   O     O_R   0.913050 0.228940 0.083670 -0.539953
C27   C     C_R   0.135976 0.391962 0.137410 0.731071
C28   C     C_R   0.864024 0.891962 0.862590 0.731066
O19   O     O_3   0.994770 0.394510 0.936380 -0.371897
O20   O     O_3   0.005230 0.894510 0.063620 -0.371897
V3    V     V_3+5 0.000970 0.670520 0.011800 1.393046
V4    V     V_3+5 0.999030 0.170520 0.988200 1.393023
C29   C     C_3   0.122107 0.345759 0.694708 -0.325846
C30   C     C_3   0.097979 0.280154 0.584696 -0.763266
H9    H     H_    0.158622 0.288231 0.546786 0.218882
H10   H     H_    0.070799 0.131233 0.579941 0.223679
H11   H     H_    0.044104 0.375722 0.543773 0.212251
H12   H     H_    0.059134 0.337295 0.728838 0.193373
H13   H     H_    0.141743 0.498728 0.694337 0.198638
C31   C     C_3   0.877865 0.845808 0.305299 -0.325870
C32   C     C_3   0.902115 0.779959 0.415267 -0.763162
H14   H     H_    0.841477 0.787518 0.453218 0.218887
H15   H     H_    0.929483 0.631178 0.419895 0.223638
H16   H     H_    0.955886 0.875711 0.456235 0.212248
H17   H     H_    0.940810 0.837636 0.271095 0.193382
H18   H     H_    0.858136 0.998722 0.305791 0.198628
C33   C     C_3   0.370936 0.223999 0.818260 -0.395493
C34   C     C_3   0.465680 0.244113 0.789886 -0.697211
H19   H     H_    0.485994 0.110083 0.755611 0.226933
H20   H     H_    0.467510 0.366581 0.737971 0.236817
H21   H     H_    0.516750 0.271492 0.858900 0.192923
H22   H     H_    0.361201 0.345531 0.868590 0.167750
H23   H     H_    0.370206 0.092663 0.865105 0.199124
C35   C     C_3   0.629058 0.723994 0.181748 -0.395448
C36   C     C_3   0.534316 0.744123 0.210124 -0.697229
H24   H     H_    0.513997 0.610099 0.244397 0.226942
H25   H     H_    0.532490 0.866587 0.262037 0.236828
H26   H     H_    0.483247 0.771511 0.141113 0.192921
H27   H     H_    0.638793 0.845521 0.131415 0.167745
H28   H     H_    0.629783 0.592655 0.134904 0.199126

loop_
_geom_bond_atom_site_label_1
_geom_bond_atom_site_label_2
_ccdc_geom_bond_type
O11   V4    S    
O12   V3    S    
O1    C3    A    
C34   H21   S    
O2    C4    A    
C2    O7    A    
O17   V3    S    
O13   C25   A    
O18   V4    S    
O5    C3    A    
C19   C33   S    
C7    C9    A    
C34   H20   S    
O19   V3    S    
O20   V4    S    
C35   H27   S    
C32   H15   S    
C30   H10   S    
O16   V4    S    
C17   C19   S    
C29   H12   S    
C20   C35   S    
C31   C32   S    
C15   C17   S    
O10   V2    S    
C33   H22   S    
C6    C8    A    
O14   C26   A    
O6    V2    S    
C25   O18   A    
C21   C23   T    
C29   C30   S    
C22   C24   T    
O14   V4    S    
C13   C26   S    
C11   C13   A    
C3    C8    S    
C26   O17   A    
C20   H8    S    
C34   H19   S    
O4    C2    A    
C18   C31   S    
C33   H23   S    
O19   V4    S    
O15   C27   A    
C31   H17   S    
C17   H5    S    
C16   C18   S    
O4    V2    S    
C32   H16   S    
C19   H7    S    
C33   C34   S    
C21   C28   S    
C30   H9    S    
C22   C27   S    
C29   H13   S    
C36   H24   S    
O6    C4    A    
O1    V2    S    
O2    V1    S    
C36   H25   S    
C1    C24   S    
C8    C10   A    
C12   C14   A    
C2    C23   S    
O9    V1    S    
C5    C15   A    
C10   H2    S    
O15   V3    S    
O3    V1    S    
C9    C11   A    
C30   H11   S    
C18   H6    S    
C14   C25   S    
O3    C1    A    
C11   H3    S    
C12   H4    S    
C9    H1    S    
O20   V3    S    
C1    O8    A    
C13   C15   A    
O8    V2    S    
C14   C16   A    
C6    C20   S    
C35   H28   S    
C4    C7    S    
O5    V1    S    
C5    C7    A    
C18   C20   S    
O7    V1    S    
C32   H14   S    
O13   V3    S    
C36   H26   S    
C6    C16   A    
O11   C27   A    
C17   C29   S    
C35   C36   S    
C10   C12   A    
O9    V2    S    
O12   C28   A    
O10   V1    S    
C5    C19   S    
C31   H18   S    
O16   C28   A    
