data_mof_unit_25743.cif
_audit_creation_date              2012-12-10T19:33:13-0500
_audit_creation_method            fapswitch 2.2
_symmetry_space_group_name_H-M    P1
_symmetry_Int_Tables_number       1
_space_group_crystal_system       triclinic
_cell_length_a                    8.801759
_cell_length_b                    15.910531
_cell_length_c                    17.181637
_cell_angle_alpha                 94.13662
_cell_angle_beta                  95.328538
_cell_angle_gamma                 84.457348
_cell_volume                      2379.6803426

loop_
_atom_site_label
_atom_site_type_symbol
_atom_type_description
_atom_site_fract_x
_atom_site_fract_y
_atom_site_fract_z
_atom_type_partial_charge
C1    C     C_R   0.510178 0.490504 0.349174 0.891454
C2    C     C_R   0.492227 0.509511 0.651072 0.901005
C3    C     C_R   0.426193 0.762403 0.458881 0.067108
C4    C     C_R   0.568398 0.237558 0.543387 0.048468
C5    C     C_R   0.445349 0.848953 0.459224 -0.290936
C6    C     C_R   0.547763 0.150997 0.542077 -0.306539
C7    C     C_R   0.538720 0.888917 0.517477 0.263214
C8    C     C_R   0.460408 0.110941 0.481339 0.259132
C9    C     C_R   0.620151 0.838299 0.574584 -0.234508
C10   C     C_R   0.383598 0.161599 0.423097 -0.235337
C11   C     C_R   0.613866 0.748220 0.567640 0.553456
C12   C     C_R   0.389633 0.251681 0.430701 0.548152
C13   C     C_R   0.205807 0.521270 0.499165 0.843726
C14   C     C_R   0.794157 0.478597 0.500692 0.858159
C15   C     C_2   0.040457 0.528951 0.486040 -0.302172
C16   C     C_2   0.959418 0.470312 0.513413 -0.297238
C17   C     C_R   0.536425 0.487081 0.264253 -0.283521
C18   C     C_R   0.486165 0.512652 0.737695 -0.279436
C19   C     C_R   0.535168 0.562579 0.223599 -0.159814
C20   C     C_R   0.516840 0.437350 0.778957 -0.152099
C21   C     C_R   0.553454 0.557152 0.143075 0.315881
C22   C     C_R   0.566194 0.443531 0.858989 0.300933
C23   C     C_R   0.549542 0.478276 0.099932 0.143923
C24   C     C_R   0.550847 0.522596 0.901521 0.122828
C25   C     C_R   0.550079 0.404162 0.139199 0.283182
C26   C     C_R   0.496800 0.595613 0.863246 0.315249
C27   C     C_R   0.561259 0.407465 0.221486 -0.170381
C28   C     C_R   0.467252 0.592033 0.781366 -0.161982
Cu1   Cu    Cu3+1 0.492520 0.415770 0.496210 1.070974
Cu2   Cu    Cu3+1 0.507480 0.584230 0.503790 1.072865
H1    H     H_    0.607905 0.113023 0.586989 0.240520
H2    H     H_    0.378900 0.886645 0.415857 0.231766
N1    N     N_2   0.536470 0.470030 0.016814 -0.162770
N2    N     N_2   0.576602 0.530529 0.984111 -0.159244
N3    N     N_R   0.518730 0.710760 0.509500 -0.226338
N4    N     N_R   0.481270 0.289240 0.490500 -0.227774
N5    N     N_2   0.542902 0.979646 0.523912 -0.161658
N6    N     N_2   0.456416 0.020168 0.474534 -0.160123
O1    O     O_R   0.493000 0.421040 0.382520 -0.531730
O2    O     O_R   0.507000 0.578960 0.617480 -0.534682
O3    O     O_R   0.505640 0.563310 0.388930 -0.530486
O4    O     O_R   0.494360 0.436690 0.611070 -0.537817
O5    O     O_R   0.269980 0.445280 0.497530 -0.588361
O6    O     O_R   0.730020 0.554720 0.502470 -0.589092
O7    O     O_R   0.282610 0.587550 0.503940 -0.537604
O8    O     O_R   0.717390 0.412450 0.496060 -0.519875
C29   C     C_2   0.973372 0.586335 0.424899 0.898737
O9    O     O_2   0.988249 0.662000 0.433615 -0.574712
O10   O     O_R   0.896092 0.552967 0.356651 -0.777775
H3    H     H_    0.869913 0.596238 0.315960 0.346947
C30   C     C_2   0.027509 0.409447 0.571580 0.896309
O11   O     O_2   0.100420 0.434870 0.631247 -0.575444
O12   O     O_R   0.008928 0.323343 0.557689 -0.743202
H4    H     H_    0.066337 0.288124 0.599742 0.348358
C31   C     C_2   0.484557 0.352116 0.743199 0.965088
O13   O     O_2   0.366615 0.343642 0.701031 -0.569092
O14   O     O_R   0.582874 0.280660 0.761923 -0.740413
H5    H     H_    0.544426 0.226240 0.736626 0.324549
C32   C     C_2   0.513689 0.649727 0.260518 0.962922
O15   O     O_2   0.607826 0.675205 0.311379 -0.605617
O16   O     O_R   0.392536 0.705245 0.231063 -0.727400
H6    H     H_    0.394330 0.764453 0.257042 0.324483
O17   O     O_3   0.617168 0.370939 0.897051 -0.525210
C33   C     C_3   0.779012 0.363896 0.904899 0.144268
H7    H     H_    0.823269 0.418115 0.941961 0.127973
H8    H     H_    0.825567 0.361078 0.846489 0.157534
C34   C     C_3   0.837233 0.282842 0.944070 -0.721226
H9    H     H_    0.795533 0.227342 0.908354 0.264770
H10   H     H_    0.964486 0.276195 0.949812 0.179899
H11   H     H_    0.795853 0.284543 0.003311 0.276127
O18   O     O_3   0.564906 0.630592 0.106032 -0.537920
C35   C     C_3   0.720375 0.648178 0.113689 0.092977
H12   H     H_    0.794102 0.595429 0.086269 0.142300
H13   H     H_    0.763374 0.658648 0.176298 0.140599
C36   C     C_3   0.735935 0.728203 0.072892 -0.713739
H14   H     H_    0.663202 0.782011 0.098835 0.248557
H15   H     H_    0.857177 0.743381 0.080061 0.193556
H16   H     H_    0.700201 0.718973 0.009448 0.286096
O19   O     O_3   0.557976 0.326864 0.096628 -0.546519
C37   C     C_3   0.407449 0.307540 0.070692 0.146423
H17   H     H_    0.348848 0.355481 0.031301 0.140013
H18   H     H_    0.337798 0.304116 0.121146 0.163916
C38   C     C_3   0.414683 0.222042 0.024921 -0.707345
H19   H     H_    0.470151 0.172252 0.062955 0.260987
H20   H     H_    0.297021 0.206131 0.004098 0.185236
H21   H     H_    0.481695 0.224006 0.973482 0.268810
O20   O     O_3   0.473460 0.671639 0.906905 -0.535714
C39   C     C_3   0.323309 0.679160 0.931069 0.116062
H22   H     H_    0.306924 0.627237 0.968783 0.165242
H23   H     H_    0.236325 0.678227 0.879648 0.119295
C40   C     C_3   0.295937 0.762864 0.978422 -0.691497
H24   H     H_    0.310158 0.816193 0.942221 0.247258
H25   H     H_    0.177781 0.769727 0.997235 0.190224
H26   H     H_    0.378698 0.765101 0.031231 0.279137
C41   C     C_2   0.610594 0.327519 0.260506 0.992691
O21   O     O_2   0.711675 0.326686 0.314388 -0.611801
O22   O     O_R   0.546782 0.252534 0.233871 -0.697524
H27   H     H_    0.593166 0.202520 0.264145 0.347385
C42   C     C_2   0.404983 0.671443 0.744527 0.967167
O23   O     O_2   0.295902 0.670882 0.695001 -0.628298
O24   O     O_R   0.467437 0.747519 0.768691 -0.666212
H28   H     H_    0.413477 0.797181 0.740294 0.341536
C43   C     C_2   0.698796 0.263643 0.599726 0.929420
O25   O     O_2   0.718333 0.337093 0.617899 -0.571951
O26   O     O_R   0.802499 0.201345 0.633687 -0.750619
H29   H     H_    0.882227 0.225638 0.673179 0.345681
C44   C     C_2   0.289897 0.736298 0.407665 0.918399
O27   O     O_2   0.281969 0.664536 0.379472 -0.563639
O28   O     O_R   0.168869 0.797372 0.388870 -0.739747
H30   H     H_    0.086437 0.774626 0.350057 0.365039
C45   C     C_2   0.702771 0.880028 0.644154 0.853947
O29   O     O_2   0.772268 0.941599 0.636989 -0.553123
O30   O     O_R   0.701031 0.849002 0.718124 -0.712717
H31   H     H_    0.761654 0.882479 0.760610 0.338434
C46   C     C_2   0.305201 0.120001 0.352051 0.857937
O31   O     O_2   0.236604 0.057671 0.357457 -0.559114
O32   O     O_R   0.309534 0.152115 0.278736 -0.724289
H32   H     H_    0.251670 0.118633 0.235161 0.334347
O33   O     O_3   0.683703 0.699472 0.626710 -0.537487
C47   C     C_3   0.844150 0.689497 0.623458 0.103759
H33   H     H_    0.897769 0.748336 0.643787 0.165016
H34   H     H_    0.875769 0.671108 0.563396 0.174891
C48   C     C_3   0.910805 0.620773 0.677211 -0.690462
H35   H     H_    0.852181 0.562235 0.662478 0.233845
H36   H     H_    0.034759 0.606288 0.670407 0.249198
H37   H     H_    0.895114 0.642284 0.739129 0.243369
O34   O     O_3   0.323189 0.300314 0.370893 -0.539433
C49   C     C_3   0.162305 0.310592 0.371853 0.102339
H38   H     H_    0.127502 0.331577 0.430826 0.179153
H39   H     H_    0.109308 0.251229 0.352809 0.165626
C50   C     C_3   0.099053 0.377024 0.315130 -0.696117
H40   H     H_    0.124676 0.354698 0.254585 0.235113
H41   H     H_    0.973289 0.388940 0.316985 0.257915
H42   H     H_    0.152220 0.437087 0.331220 0.238022

loop_
_geom_bond_atom_site_label_1
_geom_bond_atom_site_label_2
_ccdc_geom_bond_type
C9    C45   S    
C31   O13   D    
C4    N4    A    
O24   H28   S    
Cu1   O4    S    
C2    C18   S    
Cu2   O7    S    
C27   C41   S    
C41   O21   D    
C16   C30   S    
C15   C29   S    
O20   C39   S    
C50   H42   S    
C11   O33   S    
C49   H38   S    
O22   H27   S    
C48   H35   S    
C14   O8    A    
C12   O34   S    
O12   H4    S    
Cu1   N4    S    
Cu1   Cu2   S    
Cu2   N3    S    
C21   O18   S    
C38   H19   S    
C19   C21   A    
C24   C26   A    
C20   C31   S    
C48   H36   S    
C46   O31   D    
C4    C43   S    
C23   N1    S    
C22   O17   S    
C43   O26   S    
C42   O23   D    
C26   O20   S    
C46   O32   S    
C44   O27   D    
Cu2   O3    S    
C12   N4    A    
C18   C20   A    
C47   C48   S    
C5    H2    S    
C6    H1    S    
C32   O15   D    
Cu1   O5    S    
C44   O28   S    
Cu2   O6    S    
C8    N6    S    
C35   C36   S    
C29   O10   S    
C47   H34   S    
C32   O16   S    
C15   C16   D    
C30   O11   D    
C17   C27   A    
C33   C34   S    
C18   C28   A    
C35   H13   S    
C40   H24   S    
C5    C7    A    
C37   H17   S    
C48   H37   S    
C6    C8    A    
C19   C32   S    
O17   C33   S    
C24   N2    S    
C34   H9    S    
C34   H10   S    
C33   H8    S    
C36   H14   S    
N5    N6    D    
C40   H25   S    
C36   H15   S    
C29   O9    D    
C39   C40   S    
C3    N3    A    
Cu1   O1    S    
N1    N2    D    
C7    N5    S    
Cu2   O2    S    
C45   O30   S    
C31   O14   S    
C9    C11   A    
C10   C12   A    
C28   C42   S    
C1    O3    A    
C38   H20   S    
C39   H23   S    
C21   C23   A    
C22   C24   A    
C4    C6    A    
O34   C49   S    
C49   C50   S    
C3    C5    A    
C13   O5    A    
C47   H33   S    
C14   O6    A    
O30   H31   S    
C7    C9    A    
C45   O29   D    
C42   O24   S    
C25   O19   S    
C26   C28   A    
C20   C22   A    
C35   H12   S    
C50   H41   S    
C49   H39   S    
O33   C47   S    
C41   O22   S    
C25   C27   A    
O26   H29   S    
C1    C17   S    
Cu1   O8    S    
C34   H11   S    
C3    C44   S    
C33   H7    S    
C13   C15   S    
O18   C35   S    
O28   H30   S    
C40   H26   S    
C13   O7    A    
O14   H5    S    
C2    O4    A    
C11   N3    A    
C37   C38   S    
C17   C19   A    
C37   H18   S    
C14   C16   S    
C23   C25   A    
O16   H6    S    
C36   H16   S    
C1    O1    A    
O19   C37   S    
C2    O2    A    
C38   H21   S    
C39   H22   S    
C8    C10   A    
O10   H3    S    
C43   O25   D    
C30   O12   S    
O32   H32   S    
C10   C46   S    
C50   H40   S    
