data_mof_unit_35009.cif
_audit_creation_date              2013-03-05T16:45:57-0500
_audit_creation_method            fapswitch 2.2
_symmetry_space_group_name_H-M    P1
_symmetry_Int_Tables_number       1
_space_group_crystal_system       triclinic
_cell_length_a                    9.845161
_cell_length_b                    10.675733
_cell_length_c                    16.826137
_cell_angle_alpha                 89.522157
_cell_angle_beta                  94.593818
_cell_angle_gamma                 90.074923
_cell_volume                      1762.75659465

loop_
_atom_site_label
_atom_site_type_symbol
_atom_site_description
_atom_site_fract_x
_atom_site_fract_y
_atom_site_fract_z
_atom_type_partial_charge
O1    O     O_R   0.614690 0.316790 0.499990 -0.615318
O2    O     O_R   0.385350 0.316760 0.500000 -0.620473
C1    C     C_R   0.500344 0.259853 0.502652 0.888622
O3    O     O_R   0.627460 0.498860 0.616130 -0.621220
O4    O     O_R   0.398120 0.498820 0.616130 -0.624391
C2    C     C_R   0.517838 0.501834 0.653415 0.897364
Zn1   Zn    Zn3+2 0.653130 0.500020 0.499990 0.948236
Zn2   Zn    Zn3+2 0.346870 0.499980 0.500010 0.946534
O5    O     O_R   0.614650 0.683240 0.500000 -0.620125
O6    O     O_R   0.385310 0.683210 0.500010 -0.628055
O7    O     O_R   0.601880 0.501180 0.383870 -0.620868
O8    O     O_R   0.372540 0.501140 0.383870 -0.616791
C3    C     C_R   0.500413 0.740112 0.502600 0.882476
C4    C     C_R   0.482212 0.504797 0.346630 0.874783
C5    C     C_R   0.528593 0.523534 0.738820 -0.096203
C6    C     C_R   0.411594 0.555477 0.775824 -0.212767
C7    C     C_R   0.420847 0.584199 0.855732 -0.195268
C8    C     C_R   0.547741 0.579535 0.900915 0.220415
C9    C     C_R   0.667425 0.552876 0.863337 0.307678
C10   C     C_R   0.656106 0.523873 0.782212 -0.285451
C11   C     C_R   0.580101 0.586990 0.143379 -0.141368
C12   C     C_R   0.588505 0.561949 0.224213 -0.235436
C13   C     C_R   0.454514 0.574299 0.097759 0.316859
N1    N     N_2   0.556233 0.587516 0.984811 -0.135774
N2    N     N_2   0.444001 0.581587 0.013878 -0.188997
C14   C     C_R   0.471911 0.525649 0.261035 -0.037504
H1    H     H_    0.686472 0.571694 0.257801 0.168864
H2    H     H_    0.672484 0.613500 0.116659 0.190769
H3    H     H_    0.747030 0.502760 0.752773 0.193868
C15   C     C_R   0.345720 0.517769 0.216447 -0.215541
C16   C     C_R   0.337469 0.542110 0.134983 -0.169065
H4    H     H_    0.254184 0.491606 0.244228 0.168532
H5    H     H_    0.327596 0.607030 0.882448 0.190265
H6    H     H_    0.240609 0.532182 0.100257 0.169466
H7    H     H_    0.312409 0.559347 0.743024 0.176343
C17   C     C_R   0.625580 0.063914 0.517201 0.129363
C18   C     C_R   0.502610 0.128414 0.515954 -0.106835
C19   C     C_R   0.382549 0.064214 0.530403 -0.218965
H8    H     H_    0.287323 0.112925 0.535777 0.166209
C20   C     C_R   0.382634 0.934693 0.530421 -0.218654
H9    H     H_    0.287451 0.885524 0.535883 0.171464
C21   C     C_R   0.502769 0.871233 0.515938 -0.104473
C22   C     C_R   0.625689 0.936118 0.517229 0.150044
C23   C     C_3   0.737177 0.930015 0.462032 -0.495143
C24   C     C_3   0.736916 0.072013 0.461921 -0.471461
H10   H     H_    0.832238 0.889134 0.491527 0.203764
H11   H     H_    0.703066 0.889197 0.403162 0.203035
H12   H     H_    0.831874 0.112916 0.491174 0.201084
H13   H     H_    0.702419 0.113919 0.403007 0.209481
C25   C     C_R   0.075287 0.400104 0.530542 0.207768
N3    N     N_R   0.142860 0.499130 0.500540 -0.106127
C26   C     C_R   0.067090 0.592726 0.462916 -0.131237
H14   H     H_    0.117702 0.668722 0.434264 0.149019
C27   C     C_R   0.922956 0.592623 0.462801 -0.129222
H15   H     H_    0.864668 0.668260 0.433831 0.143739
N4    N     N_R   0.857210 0.499170 0.500530 -0.103863
C28   C     C_R   0.932635 0.400147 0.530534 0.203314
C29   C     C_3   0.938032 0.351901 0.614075 -0.486316
C30   C     C_3   0.092309 0.351839 0.614136 -0.488828
H16   H     H_    0.899401 0.420787 0.655946 0.224674
H17   H     H_    0.893736 0.256388 0.617613 0.200348
H18   H     H_    0.142661 0.420545 0.656163 0.223146
H19   H     H_    0.137004 0.256234 0.617729 0.195765
N5    N     N_R   0.799755 0.551720 0.906933 0.211815
O9    O     O_R   0.901441 0.494066 0.878409 -0.401162
O10   O     O_R   0.822707 0.616008 0.972013 -0.392205

loop_
_geom_bond_atom_site_label_1
_geom_bond_atom_site_label_2
_geom_bond_distance
_ccdc_geom_bond_type
C7    C8    1.410174 A    
O4    Zn2   1.978376 S    
C19   C20   1.382728 A    
C22   C23   1.495351 S    
N1    N2    1.244972 D    
C14   C15   1.401743 A    
C18   C19   1.402560 A    
N4    C28   1.362698 A    
C30   H19   1.111260 S    
C9    C10   1.397899 A    
C23   H11   1.112381 S    
C24   H13   1.112306 S    
C9    N5    1.443045 S    
Zn2   O8    1.990369 S    
N5    O9    1.301893 A    
C29   H17   1.111507 S    
C20   C21   1.402949 A    
O2    C1    1.282985 A    
O8    C4    1.291445 A    
C16   H6    1.083289 S    
C17   C24   1.495277 S    
C6    H7    1.083148 S    
O1    Zn1   1.991901 S    
C11   C12   1.379936 A    
C4    C14   1.451017 S    
C15   H4    1.083184 S    
Zn2   N3    2.009253 S    
N5    O10   1.301425 A    
C28   C29   1.489979 S    
O4    C2    1.290584 A    
C7    H5    1.082981 S    
Zn1   N4    2.008526 S    
O3    Zn1   1.990369 S    
C8    N1    1.410700 S    
C25   C30   1.490775 S    
Zn2   O6    1.991901 S    
C17   C18   1.392177 A    
C11   H2    1.082669 S    
C26   C27   1.418870 A    
Zn1   O7    1.978376 S    
C12   H1    1.083467 S    
C13   N2    1.408397 S    
C11   C13   1.409118 A    
C5    C10   1.400821 A    
O7    C4    1.289817 A    
C27   N4    1.367810 A    
C29   C30   1.518800 S    
C21   C22   1.392351 A    
C29   H16   1.110906 S    
N3    C26   1.367993 A    
C30   H18   1.111461 S    
C19   H8    1.083137 S    
C23   C24   1.515916 S    
C1    C18   1.419021 S    
C10   H3    1.082086 S    
O3    C2    1.291609 A    
C8    C9    1.411541 A    
C12   C14   1.400152 A    
C24   H12   1.111650 S    
Zn1   O5    1.992847 S    
O5    C3    1.282789 A    
C15   C16   1.388993 A    
C3    C21   1.419411 S    
C17   C22   1.364309 A    
C20   H9    1.083435 S    
C23   H10   1.111637 S    
C25   N3    1.363117 A    
C2    C5    1.452949 S    
C27   H15   1.081104 S    
C25   C28   1.404428 A    
O2    Zn2   1.992847 S    
C5    C6    1.396506 A    
C26   H14   1.081588 S    
C6    C7    1.377431 A    
O1    C1    1.282436 A    
O6    C3    1.282895 A    
C13   C16   1.396153 A    
