data_mof_unit_36850.cif
_audit_creation_date              2012-12-10T17:05:18-0500
_audit_creation_method            fapswitch 2.2
_symmetry_space_group_name_H-M    P1
_symmetry_Int_Tables_number       1
_space_group_crystal_system       triclinic
_cell_length_a                    10.036058
_cell_length_b                    10.747824
_cell_length_c                    15.542223
_cell_angle_alpha                 90.045261
_cell_angle_beta                  67.723319
_cell_angle_gamma                 89.997776
_cell_volume                      1551.34830818

loop_
_atom_site_label
_atom_site_type_symbol
_atom_type_description
_atom_site_fract_x
_atom_site_fract_y
_atom_site_fract_z
_atom_type_partial_charge
C1    C     C_R   0.501354 0.737285 0.497948 0.934987
C2    C     C_R   0.737765 0.510991 0.029610 0.085989
C3    C     C_R   0.597360 0.466213 0.083363 0.027062
C4    C     C_R   0.409925 0.498932 0.675841 0.876699
C5    C     C_R   0.834843 0.544610 0.072261 0.473179
C6    C     C_R   0.788659 0.532122 0.169866 -0.349589
C7    C     C_R   0.554706 0.461977 0.179586 -0.271217
C8    C     C_2   0.614261 0.066970 0.496731 -0.158368
C9    C     C_2   0.494041 0.131197 0.510552 -0.333194
C10   C     C_2   0.611135 0.933094 0.502238 -0.162693
C11   C     C_2   0.506655 0.868787 0.489090 -0.334992
C12   C     C_R   0.429518 0.457090 0.907021 0.087823
C13   C     C_2   0.109902 0.437982 0.440318 -0.121737
C14   C     C_2   0.958322 0.433509 0.443026 -0.142706
C15   C     C_R   0.498910 0.262717 0.501993 0.932298
C16   C     C_R   0.590243 0.498984 0.324141 0.896704
C17   C     C_R   0.356175 0.481028 0.776159 -0.079542
C18   C     C_R   0.647484 0.496119 0.222754 -0.101304
C19   C     C_R   0.194353 0.381882 0.916150 -0.131701
C20   C     C_R   0.225366 0.421214 0.825038 -0.190997
C21   C     C_R   0.451745 0.505638 0.819536 -0.272743
C22   C     C_3   0.043786 0.655280 0.062183 0.077050
C23   C     C_R   0.296179 0.398377 0.957163 0.162158
C24   C     C_3   0.168197 0.727328 0.991071 -0.312917
C25   C     C_3   0.268257 0.781525 0.034882 -0.958882
C26   C     C_R   0.535903 0.467337 0.945938 0.085059
C27   C     C_R   0.499326 0.435831 0.040372 0.094295
C28   C     C_R   0.365899 0.375473 0.088545 -0.237751
C29   C     C_R   0.266967 0.356219 0.047040 -0.255558
C30   C     C_R   0.678627 0.505019 0.892783 -0.258795
C31   C     C_R   0.777812 0.524721 0.933736 -0.200550
H1    H     H_    0.166375 0.309456 0.085967 0.147446
H2    H     H_    0.445938 0.437978 0.223310 0.162553
H3    H     H_    0.859047 0.554303 0.205873 0.149314
H4    H     H_    0.885210 0.554615 0.889766 0.192657
H5    H     H_    0.092742 0.335812 0.953632 0.144075
H6    H     H_    0.150192 0.401083 0.792017 0.153423
H7    H     H_    0.545010 0.561686 0.782424 0.156147
H8    H     H_    0.336632 0.337828 0.157544 0.142587
H9    H     H_    0.718390 0.516853 0.818381 0.149170
H10   H     H_    0.087961 0.589162 0.099691 0.160014
H11   H     H_    0.971286 0.724216 0.111527 0.134180
H12   H     H_    0.717100 0.112712 0.482152 0.171725
H13   H     H_    0.231228 0.664844 0.933200 0.249129
H14   H     H_    0.124331 0.803960 0.961575 0.214348
H15   H     H_    0.207800 0.845170 0.092917 0.262422
H16   H     H_    0.355885 0.834738 0.981735 0.268351
H17   H     H_    0.317420 0.705667 0.061545 0.272603
H18   H     H_    0.388744 0.088488 0.530751 0.150502
H19   H     H_    0.697289 0.887441 0.516386 0.171891
H20   H     H_    0.424682 0.911436 0.469237 0.150785
H21   H     H_    0.191220 0.385266 0.385998 0.152576
H22   H     H_    0.071045 0.544205 0.553050 0.156298
H23   H     H_    0.937635 0.372675 0.393755 0.153079
H24   H     H_    0.872447 0.560474 0.543035 0.160709
N1    N     N_2   0.148330 0.498670 0.499030 -0.189028
N2    N     N_2   0.852680 0.498640 0.499000 -0.190342
O1    O     O_R   0.386950 0.680940 0.500010 -0.612268
O2    O     O_R   0.613110 0.680900 0.499990 -0.615435
O3    O     O_R   0.322330 0.500030 0.632270 -0.616792
O4    O     O_R   0.548480 0.499990 0.632240 -0.611036
O5    O     O_R   0.386890 0.319100 0.500010 -0.615480
O6    O     O_R   0.613050 0.319060 0.499990 -0.607366
O7    O     O_R   0.451520 0.500010 0.367760 -0.615898
O8    O     O_R   0.677670 0.499970 0.367730 -0.614204
O9    O     O_3   0.971213 0.587916 0.014990 -0.666205
Zn1   Zn    Zn3+2 0.349000 0.500030 0.500020 0.935825
Zn2   Zn    Zn3+2 0.651000 0.499970 0.499980 0.934179

loop_
_geom_bond_atom_site_label_1
_geom_bond_atom_site_label_2
_ccdc_geom_bond_type
C8    C9    D    
C19   C23   A    
C7    C18   A    
O2    Zn2   S    
N1    Zn1   S    
C25   H16   S    
C19   C20   A    
O4    Zn2   S    
C8    H12   S    
C30   C31   A    
C13   N1    D    
C4    O3    A    
C17   C20   A    
C3    C27   A    
C2    C3    A    
C9    C15   S    
C30   H9    S    
C10   H19   S    
C13   C14   S    
C5    O9    S    
C21   H7    S    
C20   H6    S    
C7    H2    S    
C12   C23   A    
C26   C27   A    
C22   H11   S    
C12   C21   A    
O5    Zn1   S    
C6    C18   A    
C4    C17   S    
C23   C29   A    
C22   C24   S    
C8    C10   S    
C28   C29   A    
C14   H23   S    
C15   O5    A    
C26   C30   A    
C29   H1    S    
C3    C7    A    
C19   H5    S    
H24   N2    S    
C5    C6    A    
C24   H13   S    
C31   H4    S    
C2    C5    A    
C11   H20   S    
C10   C11   D    
C24   H14   S    
N2    Zn2   S    
C13   H21   S    
O7    Zn1   S    
O1    Zn1   S    
C27   C28   A    
O8    Zn2   S    
C9    H18   S    
C24   C25   S    
C25   H15   S    
C16   C18   S    
H22   N1    S    
C1    O2    A    
C14   N2    D    
C15   O6    A    
O6    Zn2   S    
C22   O9    S    
C16   O8    A    
C16   O7    A    
C28   H8    S    
C1    O1    A    
C25   H17   S    
C4    O4    A    
C17   C21   A    
C22   H10   S    
C6    H3    S    
O3    Zn1   S    
C12   C26   A    
C2    C31   A    
C1    C11   S    
