data_mof_unit_23324.cif
_audit_creation_date              2012-12-10T20:28:45-0500
_audit_creation_method            fapswitch 2.2
_symmetry_space_group_name_H-M    P1
_symmetry_Int_Tables_number       1
_space_group_crystal_system       triclinic
_cell_length_a                    10.631969
_cell_length_b                    10.685456
_cell_length_c                    9.857304
_cell_angle_alpha                 89.42528
_cell_angle_beta                  89.882642
_cell_angle_gamma                 89.887196
_cell_volume                      1119.80223047

loop_
_atom_site_label
_atom_site_type_symbol
_atom_type_description
_atom_site_fract_x
_atom_site_fract_y
_atom_site_fract_z
_atom_type_partial_charge
C1    C     C_R   0.505771 0.260169 0.500596 0.899232
C2    C     C_R   0.548895 0.939342 0.373993 0.201741
C3    C     C_R   0.526327 0.872213 0.496554 -0.156427
C4    C     C_R   0.260443 0.503703 0.500088 0.870242
C5    C     C_R   0.532599 0.934770 0.619950 0.076560
C6    C     C_3   0.450211 0.926407 0.742959 -0.467379
C7    C     C_3   0.451381 0.068287 0.744836 -0.476765
C8    C     C_R   0.433355 0.411910 0.072315 0.211802
C9    C     C_R   0.575432 0.578810 0.070965 -0.123229
C10   C     C_R   0.575118 0.579160 0.926902 -0.139687
C11   C     C_R   0.433415 0.411878 0.929750 0.212052
C12   C     C_R   0.065395 0.611494 0.565088 0.096630
C13   C     C_3   0.294835 0.391594 0.924483 -0.502853
C14   C     C_3   0.294778 0.391607 0.078557 -0.509313
C15   C     C_R   0.504256 0.740391 0.498887 0.863358
C16   C     C_R   0.739517 0.503655 0.499804 0.861606
C17   C     C_R   0.130121 0.711521 0.626696 -0.197789
C18   C     C_R   0.064056 0.808765 0.687996 -0.141818
C19   C     C_R   0.933187 0.808950 0.687492 -0.137963
C20   C     C_R   0.867954 0.711902 0.625751 -0.192065
C21   C     C_R   0.933558 0.611664 0.564643 0.098562
C22   C     C_3   0.440889 0.881927 0.169311 -0.751142
C23   C     C_R   0.128178 0.512352 0.499787 -0.101973
C24   C     C_R   0.064547 0.419056 0.430707 -0.221477
C25   C     C_R   0.936089 0.419124 0.430438 -0.209190
C26   C     C_R   0.871663 0.512574 0.499099 -0.094357
C27   C     C_R   0.533987 0.062349 0.622260 0.138411
C28   C     C_R   0.530537 0.129653 0.501080 -0.141839
C29   C     C_R   0.553585 0.068906 0.378397 -0.300707
H1    H     H_    0.114686 0.344592 0.379495 0.149299
H2    H     H_    0.270602 0.299128 0.124099 0.195599
H3    H     H_    0.231569 0.716670 0.626166 0.144177
H4    H     H_    0.114485 0.884886 0.734742 0.129968
H5    H     H_    0.882001 0.885155 0.733803 0.133759
H6    H     H_    0.766464 0.717519 0.624668 0.142721
H7    H     H_    0.886563 0.344593 0.379230 0.151354
H8    H     H_    0.563111 0.120917 0.283951 0.176410
H9    H     H_    0.355994 0.886868 0.721108 0.195942
H10   H     H_    0.632002 0.911106 0.188065 0.208660
H11   H     H_    0.416136 0.979457 0.139316 0.219644
H12   H     H_    0.499884 0.883079 0.830756 0.200034
H13   H     H_    0.362925 0.840908 0.230324 0.255818
H14   H     H_    0.452272 0.825700 0.076062 0.227146
H15   H     H_    0.357941 0.110888 0.723102 0.196550
H16   H     H_    0.501240 0.106967 0.834093 0.200856
H17   H     H_    0.634469 0.644069 0.124530 0.163365
H18   H     H_    0.633650 0.644943 0.871660 0.146805
H19   H     H_    0.243420 0.472528 0.879268 0.228064
H20   H     H_    0.270653 0.299113 0.881110 0.195205
H21   H     H_    0.243300 0.472524 0.122149 0.227279
N1    N     N_R   0.499160 0.499140 0.142800 -0.105114
N2    N     N_R   0.499160 0.499180 0.857150 -0.104305
N3    N     N_2   0.557090 0.879828 0.245718 -0.285338
O1    O     O_R   0.500020 0.316790 0.614690 -0.613108
O2    O     O_R   0.500000 0.316760 0.385350 -0.625857
O3    O     O_R   0.316770 0.500020 0.614690 -0.623830
O4    O     O_R   0.316760 0.499980 0.385350 -0.617437
O5    O     O_R   0.500000 0.683240 0.614650 -0.635516
O6    O     O_R   0.499980 0.683210 0.385310 -0.583864
O7    O     O_R   0.683240 0.500020 0.614650 -0.621219
O8    O     O_R   0.683230 0.499980 0.385310 -0.618623
Zn1   Zn    Zn3+2 0.500010 0.500020 0.653130 0.934650
Zn2   Zn    Zn3+2 0.499990 0.499980 0.346870 0.946688

loop_
_geom_bond_atom_site_label_1
_geom_bond_atom_site_label_2
_ccdc_geom_bond_type
C12   C17   A    
O5    Zn1   S    
C13   H19   S    
C23   C24   A    
C6    H9    S    
C24   C25   A    
O4    Zn2   S    
C6    C7    S    
C1    C28   S    
C9    C10   A    
C7    C27   S    
O6    Zn2   S    
C22   H14   S    
C8    N1    A    
C5    C27   A    
C14   H2    S    
C1    O1    A    
C10   N2    A    
C9    N1    A    
C2    C3    A    
C1    O2    A    
C3    C15   S    
C9    H17   S    
C14   H21   S    
C13   C14   S    
C4    O3    A    
C11   C13   S    
C12   C23   A    
C22   H13   S    
C2    C29   A    
C13   H20   S    
C7    H16   S    
C28   C29   A    
C18   H4    S    
C21   C26   A    
H10   N3    S    
C17   C18   A    
C22   N3    S    
O3    Zn1   S    
C8    C11   A    
C16   C26   S    
C5    C6    S    
C15   O5    A    
C24   H1    S    
C16   O8    A    
C25   H7    S    
C2    N3    S    
C27   C28   A    
N1    Zn2   S    
C20   C21   A    
O7    Zn1   S    
C18   C19   A    
C16   O7    A    
C29   H8    S    
C10   H18   S    
O8    Zn2   S    
C17   H3    S    
C22   H11   S    
C8    C14   S    
C11   N2    A    
O1    Zn1   S    
C3    C5    A    
C25   C26   A    
C7    H15   S    
C20   H6    S    
C15   O6    A    
C12   C21   A    
N2    Zn1   S    
C4    C23   S    
C19   C20   A    
C4    O4    A    
C6    H12   S    
C19   H5    S    
O2    Zn2   S    
