data_mof_unit_49091.cif
_audit_creation_date              2012-12-10T16:44:39-0500
_audit_creation_method            fapswitch 2.2
_symmetry_space_group_name_H-M    P1
_symmetry_Int_Tables_number       1
_space_group_crystal_system       triclinic
_cell_length_a                    15.015779
_cell_length_b                    8.733122
_cell_length_c                    7.438111
_cell_angle_alpha                 102.527916
_cell_angle_beta                  94.40621
_cell_angle_gamma                 92.596266
_cell_volume                      947.430254187

loop_
_atom_site_label
_atom_site_type_symbol
_atom_type_description
_atom_site_fract_x
_atom_site_fract_y
_atom_site_fract_z
_atom_type_partial_charge
C1    C     C_R   0.495219 0.200334 0.454541 0.845490
C2    C     C_R   0.504763 0.799665 0.545460 0.845585
C3    C     C_R   0.053655 0.393966 0.778278 -0.211755
C4    C     C_R   0.946345 0.606026 0.221719 -0.211743
C5    C     C_2   0.479625 0.034630 0.436119 -0.261721
C6    C     C_2   0.520328 0.965370 0.563890 -0.261666
C7    C     C_R   0.328863 0.501268 0.502180 0.827576
C8    C     C_R   0.671137 0.498730 0.497820 0.827510
C9    C     C_R   0.809941 0.546538 0.354893 -0.248797
C10   C     C_R   0.190058 0.453457 0.645106 -0.248828
C11   C     C_R   0.767589 0.495309 0.494427 -0.059332
C12   C     C_R   0.232410 0.504686 0.505571 -0.059333
C13   C     C_R   0.817591 0.443781 0.634455 -0.208165
C14   C     C_R   0.182409 0.556210 0.365542 -0.208152
C15   C     C_R   0.910290 0.443752 0.636615 0.087131
C16   C     C_R   0.089709 0.556239 0.363382 0.087113
C17   C     C_R   0.953276 0.498429 0.498376 0.067258
C18   C     C_R   0.046723 0.501563 0.501621 0.067263
C19   C     C_R   0.902892 0.550188 0.357077 0.107050
C20   C     C_R   0.097107 0.449805 0.642920 0.107049
C21   C     C_R   0.960652 0.390736 0.774961 -0.202969
C22   C     C_R   0.039347 0.609255 0.225035 -0.202983
Cu1   Cu    Cu3+1 0.510010 0.517380 0.684380 1.005951
Cu2   Cu    Cu3+1 0.489990 0.482620 0.315620 1.006019
H1    H     H_    0.770763 0.587021 0.247625 0.150549
H2    H     H_    0.229237 0.412975 0.752375 0.150556
H3    H     H_    0.784244 0.403038 0.741319 0.180275
H4    H     H_    0.215755 0.596951 0.258676 0.180305
H5    H     H_    0.928126 0.347393 0.880888 0.161956
H6    H     H_    0.071873 0.652598 0.119108 0.161947
H7    H     H_    0.091573 0.353192 0.886778 0.155057
H8    H     H_    0.908427 0.646800 0.113219 0.155055
H9    H     H_    0.430372 0.377678 0.948316 0.231702
H10   H     H_    0.569629 0.622322 0.051684 0.231651
N1    N     N_2   0.474890 0.456420 0.038520 -0.204534
N2    N     N_2   0.525110 0.543580 0.961480 -0.204591
O1    O     O_R   0.506510 0.286130 0.619770 -0.582072
O2    O     O_R   0.493490 0.713870 0.380230 -0.581996
O3    O     O_R   0.489600 0.256770 0.308360 -0.538927
O4    O     O_R   0.510400 0.743230 0.691640 -0.539087
O5    O     O_R   0.378710 0.514640 0.655720 -0.600275
O6    O     O_R   0.621290 0.485360 0.344280 -0.600286
O7    O     O_R   0.361800 0.485290 0.344300 -0.578876
O8    O     O_R   0.638200 0.514710 0.655700 -0.578938
C23   C     C_2   0.406197 0.956056 0.294587 0.871833
O9    O     O_2   0.344962 0.878453 0.338476 -0.616812
O10   O     O_R   0.406241 0.975022 0.112716 -0.707550
H11   H     H_    0.353107 0.916587 0.029827 0.330004
C24   C     C_2   0.593728 0.043964 0.705467 0.871798
O11   O     O_2   0.655065 0.121311 0.661536 -0.616853
O12   O     O_R   0.593524 0.025303 0.887477 -0.707465
H12   H     H_    0.646658 0.083700 0.970398 0.330022

loop_
_geom_bond_atom_site_label_1
_geom_bond_atom_site_label_2
_ccdc_geom_bond_type
Cu2   O2    S    
Cu1   Cu2   S    
C7    O7    A    
C4    C22   A    
C2    O2    A    
C18   C20   A    
N1    N2    D    
Cu1   O5    S    
C1    O1    A    
C9    C11   A    
C14   H4    S    
C10   H2    S    
C13   C15   A    
C17   C18   A    
C9    H1    S    
C3    C20   A    
C5    C23   S    
C2    C6    S    
C23   O9    D    
C3    H7    S    
C11   C13   A    
C8    O8    A    
C4    H8    S    
C10   C12   A    
C8    C11   S    
C1    C5    S    
H9    N1    S    
C8    O6    A    
Cu1   N2    S    
H10   N2    S    
C23   O10   S    
C6    C24   S    
C5    C6    D    
C14   C16   A    
C7    C12   S    
C3    C21   A    
Cu2   N1    S    
C1    O3    A    
Cu1   O4    S    
O10   H11   S    
C2    O4    A    
C15   C21   A    
Cu2   O3    S    
Cu2   O6    S    
C16   C18   A    
C24   O11   D    
C10   C20   A    
C15   C17   A    
Cu2   O7    S    
C13   H3    S    
C16   C22   A    
C22   H6    S    
C17   C19   A    
Cu1   O1    S    
C4    C19   A    
C21   H5    S    
C9    C19   A    
Cu1   O8    S    
O12   H12   S    
C7    O5    A    
C12   C14   A    
C24   O12   S    
