data_mof_unit_22705.cif
_audit_creation_date              2013-03-05T15:58:46-0500
_audit_creation_method            fapswitch 2.2
_symmetry_space_group_name_H-M    P1
_symmetry_Int_Tables_number       1
_space_group_crystal_system       triclinic
_cell_length_a                    7.000764
_cell_length_b                    14.777221
_cell_length_c                    15.69044
_cell_angle_alpha                 90.357405
_cell_angle_beta                  90.136906
_cell_angle_gamma                 89.975812
_cell_volume                      1623.16848935

loop_
_atom_site_label
_atom_site_type_symbol
_atom_site_description
_atom_site_fract_x
_atom_site_fract_y
_atom_site_fract_z
_atom_type_partial_charge
O1    O     O_R   0.494320 0.415010 0.412140 -0.608963
O2    O     O_R   0.824010 0.404260 0.587250 -0.530657
O3    O     O_R   0.994320 0.584990 0.587860 -0.572777
C1    C     C_R   0.656336 0.381829 0.616385 0.999916
O4    O     O_R   0.824040 0.403870 0.412760 -0.598103
O5    O     O_R   0.994350 0.584590 0.412130 -0.614751
C2    C     C_R   0.655523 0.387028 0.379860 0.868205
O6    O     O_R   0.494300 0.415410 0.587870 -0.561929
O7    O     O_3   0.660800 0.559290 0.500000 -0.266015
V1    V     V_3+5 0.935650 0.489000 0.500000 1.260820
O8    O     O_R   0.324060 0.595740 0.412750 -0.614208
C3    C     C_R   0.155225 0.616530 0.383096 0.874394
O9    O     O_R   0.324040 0.596130 0.587240 -0.551953
C4    C     C_R   0.155351 0.617984 0.616030 1.059369
V2    V     V_3+5 0.435660 0.511000 0.500000 1.249618
O10   O     O_3   0.160640 0.440710 0.500000 -0.241264
C5    C     C_3   0.009327 0.681071 0.763348 -0.065315
C6    C     C_3   0.174407 0.709694 0.823667 0.136552
H1    H     H_    0.912793 0.623041 0.774965 0.233052
C7    C     C_3   0.119806 0.810141 0.812407 -0.374200
C8    C     C_3   0.953441 0.782385 0.752641 0.052847
C9    C     C_3   0.088149 0.788049 0.674375 -0.178526
C10   C     C_3   0.253213 0.816613 0.734655 0.174094
C11   C     C_3   0.305916 0.716858 0.746053 0.333859
C12   C     C_3   0.144957 0.687775 0.686154 -0.375314
H2    H     H_    0.809041 0.812633 0.755128 0.205856
H3    H     H_    0.052379 0.820869 0.612909 0.185930
C13   C     C_3   0.338529 0.796909 0.221159 0.350050
C14   C     C_3   0.346326 0.723727 0.291770 -0.422093
H4    H     H_    0.411605 0.751848 0.350927 0.185438
H5    H     H_    0.439867 0.666523 0.272067 0.173886
H6    H     H_    0.155390 0.689609 0.104759 0.223084
H7    H     H_    0.144739 0.583821 0.210249 0.167117
C15   C     C_3   0.061462 0.714592 0.155813 -0.418857
C16   C     C_3   0.989976 0.833333 0.264454 0.246797
C17   C     C_3   0.126910 0.809820 0.187698 -0.213928
H8    H     H_    0.841713 0.821677 0.241557 0.122715
C18   C     C_3   0.145034 0.686138 0.312402 0.016484
C19   C     C_3   0.060443 0.644445 0.229447 -0.336030
C20   C     C_3   0.019055 0.766805 0.340132 -0.460458
H9    H     H_    0.087538 0.799396 0.396348 0.207171
H10   H     H_    0.876691 0.742515 0.361660 0.170126
H11   H     H_    0.919166 0.718048 0.126237 0.211104
H12   H     H_    0.911334 0.621601 0.241042 0.173568
C21   C     C_3   0.469278 0.252067 0.678490 -0.348536
H13   H     H_    0.351788 0.297381 0.690213 0.298578
H14   H     H_    0.453930 0.224162 0.612751 0.194875
C22   C     C_3   0.462419 0.174533 0.744283 -0.299885
H15   H     H_    0.473625 0.109439 0.710014 0.227668
H16   H     H_    0.321603 0.175845 0.776906 0.219023
H17   H     H_    0.465637 0.290349 0.875390 0.237773
C23   C     C_3   0.656721 0.352707 0.779689 0.246620
C24   C     C_3   0.816487 0.238218 0.678995 0.097862
C25   C     C_3   0.651480 0.309806 0.686996 -0.321564
H18   H     H_    0.782286 0.194248 0.623011 0.154704
C26   C     C_3   0.627578 0.183856 0.809795 -0.176459
C27   C     C_3   0.611331 0.280369 0.848686 -0.505105
C28   C     C_3   0.824813 0.178959 0.760933 0.119172
H19   H     H_    0.934934 0.208339 0.804557 0.122732
H20   H     H_    0.803720 0.375713 0.793543 0.159488
H21   H     H_    0.713058 0.288135 0.902883 0.201845
C29   C     C_3   0.481434 0.341324 0.242895 -0.363429
H22   H     H_    0.341620 0.341688 0.276534 0.177084
H23   H     H_    0.501609 0.409974 0.215617 0.170012
C30   C     C_3   0.475575 0.269769 0.169692 -0.294582
H24   H     H_    0.486530 0.302525 0.106672 0.213011
H25   H     H_    0.332230 0.238819 0.169841 0.233902
H26   H     H_    0.476731 0.224693 0.382652 0.181366
H27   H     H_    0.436163 0.127276 0.271353 0.230089
C31   C     C_3   0.608630 0.224050 0.343148 -0.326967
C32   C     C_3   0.832633 0.320351 0.253659 -0.498454
C33   C     C_3   0.645129 0.319527 0.306654 0.041779
H28   H     H_    0.960291 0.318904 0.295712 0.192788
H29   H     H_    0.844507 0.387191 0.221862 0.175932
C34   C     C_3   0.630484 0.194550 0.182333 -0.210173
C35   C     C_3   0.585337 0.153209 0.270872 -0.291887
C36   C     C_3   0.837994 0.240650 0.186913 0.561889
H30   H     H_    0.727950 0.204485 0.386144 0.210843
H31   H     H_    0.678733 0.095003 0.284464 0.248853
O11   O     O_R   0.771990 0.083520 0.910980 -0.581204
O12   O     O_R   0.442180 0.095020 0.086060 -0.551507
O13   O     O_R   0.271950 0.914280 0.086680 -0.571249
C37   C     C_R   0.613041 0.120389 0.112972 0.937883
O14   O     O_R   0.442270 0.094630 0.911580 -0.593830
O15   O     O_R   0.272040 0.913890 0.910940 -0.586693
C38   C     C_R   0.611721 0.114153 0.880685 0.970668
O16   O     O_R   0.771900 0.083910 0.086710 -0.532143
O17   O     O_3   0.605520 0.939610 0.998840 -0.260402
V3    V     V_3+5 0.330640 0.009880 0.998810 1.316800
O18   O     O_R   0.942330 0.902710 0.911540 -0.590731
C39   C     C_R   0.110917 0.880159 0.883044 1.076158
O19   O     O_R   0.942240 0.903100 0.086030 -0.569243
C40   C     C_R   0.112253 0.880102 0.115019 1.004658
V4    V     V_3+5 0.830640 0.987830 0.998780 1.324444
O20   O     O_3   0.105630 0.058150 0.998800 -0.215087
I1    I     I_    0.228414 0.630627 0.934025 -0.185785
N1    N     N_R   0.998510 0.928549 0.290773 0.253309
O21   O     O_R   0.917315 0.987725 0.242161 -0.368112
O22   O     O_R   0.047842 0.953095 0.367567 -0.324982
N2    N     N_R   0.534544 0.432521 0.789522 0.243509
O23   O     O_R   0.349470 0.426013 0.789073 -0.342479
O24   O     O_R   0.612124 0.508912 0.811935 -0.334925
N3    N     N_R   0.002153 0.278423 0.662346 0.223408
O25   O     O_R   0.056916 0.348884 0.705957 -0.414970
O26   O     O_R   0.089237 0.258151 0.591511 -0.394062
N4    N     N_R   0.885540 0.086335 0.739775 0.239727
O27   O     O_R   0.038980 0.053579 0.774867 -0.416814
O28   O     O_R   0.807511 0.041980 0.676969 -0.382605
N5    N     N_R   0.891315 0.278808 0.102569 0.197500
O29   O     O_R   0.797275 0.346929 0.071182 -0.434448
O30   O     O_R   0.044134 0.252992 0.062159 -0.378440
N6    N     N_R   0.984233 0.174128 0.216298 0.218588
O31   O     O_R   0.081579 0.124812 0.163036 -0.323536
O32   O     O_R   0.018886 0.162853 0.297171 -0.390282
I2    I     I_    0.450067 0.917710 0.700634 -0.242484
N7    N     N_R   0.502952 0.686413 0.747512 0.254074
O33   O     O_R   0.595840 0.691960 0.819212 -0.374108
O34   O     O_R   0.598181 0.680358 0.676643 -0.393827
I3    I     I_    0.530583 0.753764 0.120434 -0.374315
I4    I     I_    0.461233 0.919471 0.271738 -0.290026

loop_
_geom_bond_atom_site_label_1
_geom_bond_atom_site_label_2
_geom_bond_distance
_ccdc_geom_bond_type
C37   O16   1.302354 A    
C8    H2    1.105823 S    
C31   H30   1.111766 S    
C6    I1    2.127950 S    
C16   C17   1.578029 S    
C35   H31   1.101800 S    
C1    O6    1.316476 A    
N6    O32   1.303052 A    
N1    O21   1.294374 A    
O15   C39   1.306820 A    
C24   C25   1.570757 S    
N7    O33   1.300238 A    
H7    C19   1.112922 S    
O13   V3    2.023093 S    
C6    C11   1.532614 S    
C13   C14   1.553892 S    
C16   H8    1.110714 S    
O14   C38   1.315394 A    
N5    O30   1.300773 A    
O5    C3    1.305495 A    
C18   C19   1.552762 S    
N4    O27   1.300549 A    
V2    O10   2.188044 S    
O16   V4    2.016475 S    
C26   C27   1.551986 S    
H27   C35   1.112634 S    
C21   H14   1.113431 S    
O19   C40   1.318334 A    
O11   C38   1.299789 A    
C23   H20   1.104630 S    
N1    O22   1.302055 A    
O8    V2    2.016943 S    
C17   C40   1.550386 S    
N7    O34   1.300454 A    
C30   H25   1.103022 S    
C9    C12   1.546134 S    
C14   C18   1.550563 S    
C29   H23   1.112692 S    
C10   C11   1.530888 S    
H17   C27   1.113017 S    
O9    C4    1.305146 A    
O7    V1    2.186226 S    
C6    C7    1.543711 S    
O12   V3    2.010228 S    
C20   H10   1.113405 S    
O13   C40   1.307051 A    
C8    C9    1.552843 S    
N2    O24   1.299071 A    
N6    O31   1.299470 A    
O12   C37   1.321220 A    
C23   C25   1.583269 S    
O18   V4    2.012474 S    
C24   H18   1.114947 S    
C7    C39   1.512861 S    
O17   V4    1.729889 S    
C15   C19   1.557037 S    
C11   C12   1.525804 S    
C13   I4    2.151290 S    
C2    C33   1.518221 S    
C32   H28   1.109895 S    
O15   V3    2.013606 S    
C28   H19   1.115971 S    
C21   H13   1.075862 S    
C23   N2    1.464225 S    
C5    C8    1.557262 S    
C28   N4    1.469315 S    
H6    C15   1.099561 S    
V3    O20   1.728938 S    
C36   N6    1.493176 S    
O2    C1    1.304433 A    
C34   C35   1.554316 S    
C14   H4    1.111942 S    
C26   C38   1.524944 S    
C7    C10   1.541649 S    
O8    C3    1.306437 A    
C29   H22   1.113145 S    
O19   V4    2.016849 S    
C5    C6    1.549329 S    
C29   C33   1.554366 S    
N3    O26   1.302151 A    
O17   V3    2.186272 S    
C36   N5    1.490149 S    
C34   C36   1.606040 S    
O3    C4    1.303598 A    
O1    V2    2.014681 S    
C22   H15   1.101929 S    
C21   C25   1.539969 S    
C11   N7    1.450909 S    
O6    V2    2.021337 S    
C9    H3    1.110240 S    
O9    V2    2.012376 S    
C31   C35   1.546914 S    
O14   V3    2.019843 S    
O11   V4    2.021640 S    
O2    V1    2.019990 S    
C32   C36   1.571642 S    
O4    C2    1.309943 A    
C21   C22   1.547814 S    
C22   C26   1.550858 S    
C20   H9    1.110276 S    
C29   C30   1.556818 S    
C1    C25   1.541530 S    
O1    C2    1.304163 A    
C15   H11   1.099267 S    
C13   I3    2.169966 S    
O5    V1    2.023004 S    
C32   H29   1.112565 S    
C24   C28   1.561005 S    
C27   H21   1.113295 S    
C19   H12   1.112967 S    
C30   C34   1.565766 S    
C5    C12   1.544503 S    
C16   C20   1.559218 S    
O7    V2    1.730439 S    
O4    V1    2.010221 S    
C14   H5    1.111850 S    
O3    V1    2.013598 S    
V1    O10   1.728933 S    
N5    O29   1.301290 A    
C18   C20   1.543551 S    
C34   C37   1.544319 S    
O18   C39   1.305473 A    
N4    O28   1.299539 A    
C24   N3    1.454281 S    
C22   H16   1.111983 S    
N2    O23   1.299265 A    
C5    H1    1.108293 S    
C26   C28   1.582368 S    
C15   C17   1.559207 S    
C4    C12   1.505209 S    
C3    C18   1.518982 S    
V4    O20   2.188069 S    
C23   C27   1.559496 S    
C10   I2    2.105045 S    
C32   C33   1.555643 S    
C7    C8    1.547411 S    
C13   C17   1.582456 S    
H26   C31   1.113373 S    
C30   H24   1.106482 S    
N3    O25   1.299832 A    
C9    C10   1.548651 S    
C31   C33   1.547535 S    
C16   N1    1.465107 S    
