data_mof_unit_17728.cif
_audit_creation_date              2013-03-05T16:09:07-0500
_audit_creation_method            fapswitch 2.2
_symmetry_space_group_name_H-M    P1
_symmetry_Int_Tables_number       1
_space_group_crystal_system       triclinic
_cell_length_a                    18.220102
_cell_length_b                    7.091474
_cell_length_c                    13.002636
_cell_angle_alpha                 90.001623
_cell_angle_beta                  72.091874
_cell_angle_gamma                 89.999447
_cell_volume                      1598.64010459

loop_
_atom_site_label
_atom_site_type_symbol
_atom_site_description
_atom_site_fract_x
_atom_site_fract_y
_atom_site_fract_z
_atom_type_partial_charge
O1    O     O_R   0.453880 0.506200 0.150010 -0.590080
O2    O     O_R   0.546120 0.006200 0.849990 -0.590078
O3    O     O_R   0.604080 0.177770 0.007280 -0.593283
O4    O     O_R   0.395920 0.677770 0.992720 -0.593288
C1    C     C_R   0.635978 0.344507 0.001794 0.977555
C2    C     C_R   0.364022 0.844508 0.998205 0.977559
O5    O     O_R   0.458010 0.176640 0.159130 -0.594087
O6    O     O_R   0.541990 0.676640 0.840870 -0.594090
O7    O     O_R   0.399010 0.004010 0.002930 -0.589002
O8    O     O_R   0.600990 0.504010 0.997070 -0.589008
C3    C     C_R   0.442935 0.345234 0.201761 0.921451
C4    C     C_R   0.557066 0.845225 0.798239 0.921450
O9    O     O_3   0.480810 0.338440 0.948570 -0.282521
O10   O     O_3   0.519190 0.838440 0.051430 -0.282527
V1    V     V_3+5 0.503560 0.064490 0.009540 1.172661
V2    V     V_3+5 0.496440 0.564490 0.990460 1.172655
C5    C     C_R   0.583486 0.873492 0.501070 -0.170890
C6    C     C_R   0.416507 0.374136 0.498914 -0.170882
H1    H     H_    0.485919 0.868083 0.644522 0.111099
H2    H     H_    0.514074 0.368783 0.355461 0.111107
H3    H     H_    0.662340 0.887610 0.292950 0.139098
H4    H     H_    0.337651 0.388437 0.707030 0.139088
H5    H     H_    0.547495 0.882594 0.448575 0.127785
H6    H     H_    0.452495 0.383539 0.551402 0.127783
C7    C     C_R   0.593383 0.853787 0.681481 -0.087561
C8    C     C_R   0.406617 0.353845 0.318518 -0.087576
C9    C     C_R   0.955398 0.847796 0.384126 -0.173405
C10   C     C_R   0.044604 0.347596 0.615878 -0.173479
C11   C     C_R   0.924760 0.839219 0.496673 0.465584
C12   C     C_R   0.075243 0.338995 0.503332 0.465610
C13   C     C_R   0.844325 0.842366 0.544146 -0.280193
C14   C     C_R   0.155677 0.342227 0.455857 -0.280193
C15   C     C_R   0.793473 0.854257 0.480780 0.053877
C16   C     C_R   0.206527 0.354264 0.519220 0.053870
C17   C     C_R   0.826110 0.862880 0.366345 0.105020
C18   C     C_R   0.173889 0.363005 0.633652 0.105032
C19   C     C_R   0.711312 0.857922 0.527099 0.121305
C20   C     C_R   0.288687 0.358012 0.472899 0.121302
C21   C     C_R   0.664235 0.869935 0.457895 0.177300
C22   C     C_R   0.335760 0.370371 0.542094 0.177296
C23   C     C_R   0.697859 0.878319 0.346089 -0.243955
C24   C     C_R   0.302135 0.378900 0.653897 -0.243944
C25   C     C_R   0.777389 0.874897 0.300906 -0.185539
C26   C     C_R   0.222606 0.375295 0.699084 -0.185533
C27   C     C_R   0.673839 0.850109 0.639784 -0.228323
C28   C     C_R   0.326163 0.349952 0.360221 -0.228321
C29   C     C_R   0.548283 0.865320 0.612316 -0.184390
C30   C     C_R   0.451712 0.365810 0.387672 -0.184376
C31   C     C_R   0.907128 0.859446 0.319196 -0.199166
C32   C     C_R   0.092872 0.359424 0.680804 -0.199144
H7    H     H_    0.705007 0.841019 0.697829 0.113283
H8    H     H_    0.294999 0.340516 0.302184 0.113285
H9    H     H_    0.017343 0.845485 0.346296 0.157701
H10   H     H_    0.982660 0.345183 0.653711 0.157679
H11   H     H_    0.823253 0.835581 0.630853 0.163231
H12   H     H_    0.176750 0.335449 0.369149 0.163232
H13   H     H_    0.800365 0.881809 0.213671 0.125907
H14   H     H_    0.199629 0.382313 0.786317 0.125906
C33   C     C_1   0.216303 0.858759 0.000322 -0.222932
C34   C     C_1   0.783697 0.358760 0.999678 -0.222929
C35   C     C_1   0.283601 0.852577 0.999116 -0.242310
C36   C     C_1   0.716399 0.352576 0.000884 -0.242308
O11   O     O_R   0.899030 0.205490 0.002790 -0.593924
O12   O     O_R   0.100970 0.705490 0.997210 -0.593950
O13   O     O_R   0.042000 0.536370 0.840840 -0.572802
O14   O     O_R   0.958000 0.036370 0.159160 -0.572767
C37   C     C_R   0.057129 0.368136 0.798168 0.944759
C38   C     C_R   0.942871 0.868142 0.201832 0.944770
O15   O     O_R   0.895930 0.535070 0.992690 -0.590721
O16   O     O_R   0.104070 0.035070 0.007310 -0.590697
O17   O     O_R   0.953870 0.707520 0.150040 -0.587651
O18   O     O_R   0.046130 0.207520 0.849960 -0.587612
C39   C     C_R   0.864132 0.366749 0.998682 0.974825
C40   C     C_R   0.135867 0.866748 0.001318 0.974832
O19   O     O_3   0.019200 0.374340 0.051340 -0.265839
O20   O     O_3   0.980800 0.874340 0.948660 -0.265825
V3    V     V_3+5 0.996440 0.648350 0.990470 1.229629
V4    V     V_3+5 0.003560 0.148350 0.009530 1.229679
N1    N     N_R   0.975286 0.827680 0.562801 0.230207
O21   O     O_R   0.049848 0.829155 0.518883 -0.420504
O22   O     O_R   0.947358 0.816034 0.667546 -0.413232
N2    N     N_R   0.024718 0.327358 0.437207 0.230205
O23   O     O_R   0.950156 0.328959 0.481118 -0.420515
O24   O     O_R   0.052648 0.315532 0.332468 -0.413265

loop_
_geom_bond_atom_site_label_1
_geom_bond_atom_site_label_2
_geom_bond_distance
_ccdc_geom_bond_type
O14   C38   1.308834 A    
O4    V2    1.991833 S    
C31   C38   1.464773 S    
C9    C11   1.398027 A    
O12   V3    1.975306 S    
O15   V3    1.991822 S    
O1    C3    1.308845 A    
O2    C4    1.308867 A    
C2    O7    1.309066 A    
C18   C32   1.413836 A    
C21   C23   1.394489 A    
O5    C3    1.310893 A    
C5    H5    1.084134 S    
C6    H6    1.084136 S    
C2    C35   1.462811 S    
O20   V4    2.185394 S    
H1    C29   1.083625 S    
O16   V4    1.991804 S    
C27   H7    1.076968 S    
C28   H8    1.076968 S    
C34   C39   1.462717 S    
C34   C36   1.222219 T    
C37   O18   1.306923 A    
C5    C21   1.404434 A    
C6    C22   1.404435 A    
O18   V4    2.023103 S    
C10   C32   1.396332 A    
C26   H14   1.082701 S    
O13   C37   1.308836 A    
C17   C31   1.413838 A    
C13   C15   1.419126 A    
O15   C39   1.318624 A    
C12   C14   1.404628 A    
C17   C25   1.408453 A    
C32   C37   1.464773 S    
C7    C29   1.394701 A    
C8    C30   1.394704 A    
C22   C24   1.394489 A    
O6    V2    2.027789 S    
C23   C25   1.386347 A    
C24   C26   1.386346 A    
O14   V4    2.027771 S    
C33   C35   1.222221 T    
O13   V3    2.027720 S    
O20   V3    1.743672 S    
O4    C2    1.309754 A    
N1    O22   1.301728 A    
C10   H10   1.083800 S    
O11   C39   1.317480 A    
C3    C8    1.458963 S    
C15   C19   1.431741 A    
C14   C16   1.419125 A    
C12   N2    1.442316 S    
O16   C40   1.318618 A    
C11   N1    1.442319 S    
O6    C4    1.310868 A    
O1    V2    2.021571 S    
O2    V1    2.021544 S    
O19   V3    2.185426 S    
C33   C40   1.462713 S    
H2    C30   1.083627 S    
H3    C23   1.084229 S    
N2    O24   1.301728 A    
C18   C26   1.408455 A    
C19   C27   1.414508 A    
C7    C27   1.398124 A    
O17   V3    2.023078 S    
O3    V1    1.991848 S    
C16   C20   1.431738 A    
C5    C29   1.391591 A    
O3    C1    1.309763 A    
C6    C30   1.391593 A    
C9    H9    1.083801 S    
C4    C7    1.458961 S    
C10   C12   1.398027 A    
O7    V1    1.980080 S    
C1    O8    1.309064 A    
C19   C21   1.423848 A    
O8    V2    1.980076 S    
C20   C22   1.423849 A    
H4    C24   1.084231 S    
C38   O17   1.306923 A    
O5    V1    2.027738 S    
C15   C17   1.423812 A    
C1    C36   1.462813 S    
C16   C18   1.423812 A    
O19   V4    1.743649 S    
C20   C28   1.414510 A    
C25   H13   1.082699 S    
N1    O21   1.301802 A    
C11   C13   1.404629 A    
N2    O23   1.301801 A    
O9    V2    1.744370 S    
O12   C40   1.317481 A    
O10   V1    1.744393 S    
C13   H11   1.074527 S    
C8    C28   1.398125 A    
C14   H12   1.074526 S    
C9    C31   1.396332 A    
O11   V4    1.975299 S    
