data_mof_unit_29553.cif
_audit_creation_date              2012-12-11T16:44:18-0500
_audit_creation_method            fapswitch 2.2
_symmetry_space_group_name_H-M    P1
_symmetry_Int_Tables_number       1
_space_group_crystal_system       triclinic
_cell_length_a                    27.135407
_cell_length_b                    7.201213
_cell_length_c                    22.844865
_cell_angle_alpha                 90.001889
_cell_angle_beta                  101.681361
_cell_angle_gamma                 90.002288
_cell_volume                      4371.60936402

loop_
_atom_site_label
_atom_site_type_symbol
_atom_type_description
_atom_site_fract_x
_atom_site_fract_y
_atom_site_fract_z
_atom_type_partial_charge
O1    O     O_R   0.707300 0.594030 0.176840 -0.532440
O2    O     O_R   0.292700 0.405970 0.823160 -0.531263
O3    O     O_R   0.792700 0.094030 0.323160 -0.532438
O4    O     O_R   0.207300 0.905970 0.676840 -0.531260
O5    O     O_R   0.697330 0.262360 0.295660 -0.540862
O6    O     O_R   0.302670 0.737640 0.704340 -0.540827
O7    O     O_R   0.802670 0.762360 0.204340 -0.540860
O8    O     O_R   0.197330 0.237640 0.795660 -0.540832
C1    C     C_R   0.684811 0.432474 0.311796 0.677375
C2    C     C_R   0.315169 0.567529 0.688176 0.676695
C3    C     C_R   0.815188 0.932475 0.188203 0.677363
C4    C     C_R   0.184831 0.067528 0.811824 0.676682
O9    O     O_R   0.701410 0.264250 0.175600 -0.533678
O10   O     O_R   0.298590 0.735750 0.824400 -0.534821
O11   O     O_R   0.798590 0.764250 0.324400 -0.533674
O12   O     O_R   0.201410 0.235750 0.675600 -0.534824
O13   O     O_R   0.796800 0.094950 0.202240 -0.538775
O14   O     O_R   0.203200 0.905050 0.797760 -0.538394
O15   O     O_R   0.703200 0.594950 0.297760 -0.538770
O16   O     O_R   0.296800 0.405050 0.702240 -0.538392
C5    C     C_R   0.689627 0.432313 0.153422 0.686164
C6    C     C_R   0.310427 0.567315 0.846512 0.685728
C7    C     C_R   0.810373 0.932325 0.346577 0.686167
C8    C     C_R   0.189573 0.067302 0.653489 0.685726
O17   O     O_3   0.781290 0.427390 0.258880 -0.372252
O18   O     O_3   0.218710 0.572610 0.741120 -0.371810
O19   O     O_3   0.718710 0.927390 0.241120 -0.372253
O20   O     O_3   0.281290 0.072610 0.758880 -0.371802
V1    V     V_3+5 0.744190 0.152150 0.248350 1.416147
V2    V     V_3+5 0.255810 0.847850 0.751650 1.419810
V3    V     V_3+5 0.755810 0.652150 0.251650 1.416153
V4    V     V_3+5 0.244190 0.347850 0.748350 1.419790
C9    C     C_R   0.154818 0.059066 0.594783 -0.049829
C10   C     C_R   0.845703 0.933738 0.404989 -0.051549
C11   C     C_R   0.345181 0.559142 0.905220 -0.049868
C12   C     C_R   0.654292 0.433666 0.095011 -0.051609
C13   C     C_R   0.141190 0.088382 0.487326 -0.141645
C14   C     C_R   0.862984 0.838187 0.508574 -0.141420
C15   C     C_R   0.358840 0.589172 0.012660 -0.141676
C16   C     C_R   0.636963 0.337527 0.991479 -0.141439
C17   C     C_R   0.173023 0.098770 0.543275 -0.154803
C18   C     C_R   0.829062 0.866658 0.454925 -0.149900
C19   C     C_R   0.327002 0.599340 0.956710 -0.154802
C20   C     C_R   0.670902 0.366187 0.045103 -0.149854
C21   C     C_R   0.103925 0.010102 0.589829 -0.210165
C22   C     C_R   0.897189 0.972731 0.409393 -0.214867
C23   C     C_R   0.396058 0.509916 0.910191 -0.210125
C24   C     C_R   0.602817 0.472889 0.090600 -0.214873
C25   C     C_R   0.071278 0.987611 0.532933 0.082954
C26   C     C_R   0.933350 0.928071 0.462127 0.084196
C27   C     C_R   0.428709 0.487686 0.967096 0.082945
C28   C     C_R   0.566634 0.428044 0.037900 0.084200
C29   C     C_R   0.090705 0.034368 0.481737 0.063987
C30   C     C_R   0.914731 0.866684 0.512508 0.064946
C31   C     C_R   0.409309 0.534925 0.018270 0.063990
C32   C     C_R   0.585225 0.366225 0.987546 0.064948
C33   C     C_R   0.019664 0.928390 0.525090 -0.084726
C34   C     C_R   0.986976 0.945332 0.467250 -0.084513
C35   C     C_R   0.480309 0.428288 0.974962 -0.084724
C36   C     C_R   0.513013 0.445508 0.032784 -0.084496
C37   C     C_R   0.009819 0.971624 0.416861 0.345915
C38   C     C_R   0.999497 0.847066 0.572071 0.346463
C39   C     C_R   0.490189 0.472275 0.083165 0.345909
C40   C     C_R   0.500445 0.346533 0.928024 0.346455
C41   C     C_R   0.060228 0.022153 0.424930 -0.187017
C42   C     C_R   0.947809 0.825127 0.565918 -0.185166
C43   C     C_R   0.439794 0.522983 0.075077 -0.187035
C44   C     C_R   0.552126 0.324425 0.934172 -0.185162
H1    H     H_    0.076208 0.045969 0.385729 0.146226
H2    H     H_    0.933525 0.766517 0.602949 0.146118
H3    H     H_    0.423829 0.547173 0.114270 0.146224
H4    H     H_    0.566387 0.265486 0.897172 0.146118
H5    H     H_    0.907907 0.035689 0.370997 0.154563
H6    H     H_    0.090487 0.996517 0.630949 0.152275
H7    H     H_    0.592127 0.536141 0.128967 0.154604
H8    H     H_    0.409484 0.495968 0.869074 0.152292
H9    H     H_    0.789675 0.833774 0.452081 0.103099
H10   H     H_    0.212023 0.138023 0.546425 0.103710
H11   H     H_    0.710278 0.333114 0.047955 0.103121
H12   H     H_    0.288017 0.638824 0.953546 0.103740
H13   H     H_    0.156246 0.121473 0.448102 0.114485
H14   H     H_    0.848847 0.787430 0.546708 0.113906
H15   H     H_    0.343804 0.622646 0.051869 0.114490
H16   H     H_    0.651077 0.286443 0.953369 0.113907
C45   C     C_R   0.867437 0.117192 0.129550 -0.151434
C46   C     C_R   0.132631 0.882785 0.870529 -0.149704
C47   C     C_R   0.632551 0.617195 0.370433 -0.151399
C48   C     C_R   0.367379 0.382782 0.629485 -0.149710
H17   H     H_    0.850173 0.244295 0.140827 0.123658
H18   H     H_    0.149844 0.755668 0.859173 0.124426
H19   H     H_    0.649806 0.744305 0.359144 0.123657
H20   H     H_    0.350175 0.255659 0.640853 0.124435
C49   C     C_R   0.903181 0.129757 0.093392 -0.143280
C50   C     C_R   0.096943 0.870203 0.906760 -0.143488
C51   C     C_R   0.596807 0.629760 0.406591 -0.143272
C52   C     C_R   0.403067 0.370200 0.593254 -0.143499
H21   H     H_    0.911790 0.265339 0.077576 0.100493
H22   H     H_    0.088329 0.734592 0.922549 0.100804
H23   H     H_    0.588189 0.765349 0.422395 0.100488
H24   H     H_    0.411690 0.234583 0.577476 0.100807
C53   C     C_R   0.926653 0.969657 0.076811 0.095487
C54   C     C_R   0.073529 0.030307 0.923436 0.094731
C55   C     C_R   0.573345 0.469654 0.423187 0.095489
C56   C     C_R   0.426472 0.530310 0.576564 0.094729
C57   C     C_R   0.913305 0.796190 0.097503 -0.137611
C58   C     C_R   0.086895 0.203805 0.902783 -0.139791
C59   C     C_R   0.586704 0.296181 0.402510 -0.137619
C60   C     C_R   0.413095 0.703815 0.597203 -0.139803
H25   H     H_    0.931042 0.670065 0.086272 0.101334
H26   H     H_    0.069206 0.329944 0.914086 0.101808
H27   H     H_    0.568975 0.170050 0.413754 0.101334
H28   H     H_    0.430777 0.829959 0.585888 0.101807
C61   C     C_R   0.877407 0.783427 0.133726 -0.153366
C62   C     C_R   0.122744 0.216587 0.866493 -0.155835
C63   C     C_R   0.622602 0.283418 0.366287 -0.153402
C64   C     C_R   0.377247 0.716596 0.633493 -0.155841
H29   H     H_    0.868188 0.647569 0.148764 0.122046
H30   H     H_    0.131980 0.352469 0.851491 0.123557
H31   H     H_    0.631829 0.147554 0.351262 0.122040
H32   H     H_    0.368003 0.852483 0.648484 0.123553
C65   C     C_R   0.853899 0.943905 0.150259 -0.046461
C66   C     C_R   0.146176 0.056095 0.849844 -0.048226
C67   C     C_R   0.646100 0.443902 0.349739 -0.046461
C68   C     C_R   0.353824 0.556098 0.650157 -0.048239
C69   C     C_R   0.966379 0.851042 0.993267 -0.152292
C70   C     C_R   0.033827 0.148867 0.007017 -0.152027
C71   C     C_R   0.533630 0.351085 0.506745 -0.152292
C72   C     C_R   0.466162 0.648825 0.492969 -0.152026
H33   H     H_    0.940076 0.736241 0.986314 0.109970
H34   H     H_    0.060129 0.263671 0.013971 0.110286
H35   H     H_    0.559942 0.236319 0.513708 0.109973
H36   H     H_    0.439852 0.763593 0.486005 0.110291
C73   C     C_R   0.001409 0.866515 0.956133 -0.148115
C74   C     C_R   0.998794 0.133403 0.044148 -0.147228
C75   C     C_R   0.498601 0.366560 0.543880 -0.148125
C76   C     C_R   0.501195 0.633357 0.455837 -0.147231
H37   H     H_    0.001106 0.762838 0.921740 0.112090
H38   H     H_    0.999087 0.237092 0.078534 0.112456
H39   H     H_    0.498913 0.262920 0.578283 0.112090
H40   H     H_    0.500893 0.737010 0.421440 0.112465
C77   C     C_R   0.035667 0.015585 0.962494 0.081765
C78   C     C_R   0.964536 0.984336 0.037783 0.081770
C79   C     C_R   0.464333 0.515588 0.537505 0.081762
C80   C     C_R   0.535463 0.484333 0.462216 0.081764
O21   O     O_3   0.986289 0.928974 0.359232 -0.649430
H41   H     H_    0.965748 0.816005 0.361087 0.286749
O22   O     O_3   0.028827 0.766937 0.621913 -0.648850
H42   H     H_    0.057761 0.706574 0.609119 0.289689
O23   O     O_3   0.513721 0.429938 0.140817 -0.649437
H43   H     H_    0.534229 0.316851 0.139028 0.286734
O24   O     O_3   0.471086 0.266159 0.878245 -0.648848
H44   H     H_    0.442142 0.206032 0.891090 0.289705

loop_
_geom_bond_atom_site_label_1
_geom_bond_atom_site_label_2
_ccdc_geom_bond_type
O17   V3    S    
C48   C52   A    
O1    C5    A    
C47   H19   S    
O19   V1    S    
C9    C21   A    
C16   H16   S    
O3    C7    A    
O22   H42   S    
C10   C18   A    
C73   H37   S    
C48   C68   A    
C11   C23   A    
C55   C80   S    
O21   H41   S    
C25   C33   A    
C33   C38   A    
C5    C12   S    
C75   H39   S    
C6    C11   S    
C35   C40   A    
C26   C30   A    
C58   C62   A    
C36   C39   A    
C40   C44   A    
C57   C61   A    
C71   C75   A    
C23   H8    S    
C14   C18   A    
C2    C68   S    
C72   C76   A    
C58   H26   S    
O4    C8    A    
C51   H23   S    
C44   H4    S    
C70   H34   S    
O1    V3    S    
O13   V1    S    
O2    V4    S    
O3    V1    S    
C37   O21   S    
C39   O23   S    
C46   C50   A    
C45   C49   A    
C1    O15   A    
C15   C31   A    
C48   H20   S    
C2    O16   A    
C16   C32   A    
C47   C51   A    
O2    C6    A    
O24   H44   S    
C45   C65   A    
C10   C22   A    
C54   C77   S    
C11   C19   A    
C16   C20   A    
C43   H3    S    
C76   H40   S    
C13   C29   A    
C34   C37   A    
O11   C7    A    
O15   V3    S    
C35   C36   A    
O12   C8    A    
C14   H14   S    
C24   H7    S    
C13   H13   S    
C3    C65   S    
O10   V2    S    
C72   H36   S    
C51   C55   A    
O5    V1    S    
C53   C57   A    
C39   C43   A    
C63   C67   A    
C38   C42   A    
C40   O24   S    
C26   C34   A    
O7    V3    S    
C4    C66   S    
C46   H18   S    
C49   C53   A    
C17   H10   S    
C45   H17   S    
O18   V4    S    
C23   C27   A    
C19   H12   S    
C32   C44   A    
C64   H32   S    
C21   H6    S    
O8    V4    S    
O7    C3    A    
O5    C1    A    
C37   C41   A    
C74   C78   A    
C53   C78   S    
C31   C43   A    
C14   C30   A    
C21   C25   A    
C69   C78   A    
O8    C4    A    
C7    C10   S    
C56   C79   S    
O9    C5    A    
C59   C63   A    
C62   H30   S    
C61   H29   S    
O6    V2    S    
C63   H31   S    
C38   O22   S    
C52   C56   A    
C69   H33   S    
O14   V2    S    
C12   C20   A    
C27   C35   A    
O9    V1    S    
C49   H21   S    
C56   C60   A    
C29   C41   A    
O16   V4    S    
C69   C73   A    
C57   H25   S    
C3    O13   A    
C64   C68   A    
C59   H27   S    
C20   H11   S    
C74   H38   S    
C15   C19   A    
O11   V3    S    
C30   C42   A    
O12   V4    S    
C22   C26   A    
C70   C77   A    
C73   C77   A    
C8    C9    S    
C9    C17   A    
O10   C6    A    
O20   V2    S    
C15   H15   S    
C76   C80   A    
O23   H43   S    
C47   C67   A    
C60   C64   A    
C33   C34   A    
C42   H2    S    
C41   H1    S    
C52   H24   S    
C75   C79   A    
C1    C67   S    
C12   C24   A    
C27   C31   A    
C71   C80   A    
C13   C17   A    
C46   C66   A    
C72   C79   A    
C71   H35   S    
C25   C29   A    
O6    C2    A    
C62   C66   A    
C60   H28   S    
C24   C28   A    
C61   C65   A    
C70   C74   A    
C18   H9    S    
C28   C36   A    
C54   C58   A    
C4    O14   A    
C50   H22   S    
C55   C59   A    
C22   H5    S    
O4    V2    S    
C28   C32   A    
C50   C54   A    
