data_mof_unit_16105.cif
_audit_creation_date              2012-12-10T20:53:21-0500
_audit_creation_method            fapswitch 2.2
_symmetry_space_group_name_H-M    P1
_symmetry_Int_Tables_number       1
_space_group_crystal_system       triclinic
_cell_length_a                    15.80941
_cell_length_b                    15.060424
_cell_length_c                    10.536863
_cell_angle_alpha                 88.870691
_cell_angle_beta                  90.202209
_cell_angle_gamma                 89.995075
_cell_volume                      2508.2863793

loop_
_atom_site_label
_atom_site_type_symbol
_atom_type_description
_atom_site_fract_x
_atom_site_fract_y
_atom_site_fract_z
_atom_type_partial_charge
C1    C     C_R   0.338860 0.499978 0.500388 0.883208
C2    C     C_1   0.499637 0.192899 0.499908 0.166731
C3    C     C_R   0.481741 0.500632 0.265842 0.858994
C4    C     C_R   0.500298 0.498801 0.739314 0.868000
C5    C     C_2   0.438529 0.441376 0.930211 0.372907
C6    C     C_2   0.444606 0.429186 0.069072 0.327755
C7    C     C_2   0.498241 0.493410 0.875141 0.211554
C8    C     C_2   0.444240 0.502873 0.139648 0.226409
C9    C     C_R   0.956022 0.580935 0.460872 0.349661
C10   C     C_R   0.043482 0.581569 0.476924 0.343890
C11   C     C_R   0.912715 0.499775 0.471022 -0.262180
C12   C     C_R   0.661134 0.499990 0.499236 0.882703
C13   C     C_R   0.086726 0.500317 0.487921 -0.254447
C14   C     C_R   0.955816 0.418653 0.481180 0.383276
C15   C     C_R   0.043625 0.419049 0.493244 0.390752
C16   C     C_1   0.823845 0.500020 0.480132 0.113133
C17   C     C_1   0.175754 0.500135 0.492724 0.103285
C18   C     C_1   0.250572 0.500025 0.496735 -0.188453
C19   C     C_1   0.749254 0.500078 0.489683 -0.196110
C20   C     C_3   0.315342 0.354251 0.922685 -0.288796
C21   C     C_3   0.519389 0.297669 0.061775 -0.302350
C22   C     C_3   0.640683 0.518048 0.908170 0.042802
C23   C     C_R   0.471354 0.953649 0.391327 0.374447
C24   C     C_3   0.702076 0.539396 0.015727 -0.290624
C25   C     C_3   0.792895 0.515622 0.981329 -1.008997
C26   C     C_3   0.347986 0.618683 0.147476 0.092959
C27   C     C_3   0.267214 0.566937 0.115836 -0.440385
C28   C     C_3   0.188376 0.613542 0.164470 -0.919446
C29   C     C_3   0.109961 0.686453 0.597055 0.095849
C30   C     C_3   0.041593 0.745078 0.655085 -0.304148
C31   C     C_3   0.069644 0.780393 0.783298 -0.998558
C32   C     C_3   0.887346 0.673680 0.319314 0.107839
C33   C     C_3   0.956533 0.721788 0.243060 -0.323527
C34   C     C_R   0.525389 0.950970 0.607473 0.351549
C35   C     C_3   0.926987 0.744201 0.108145 -0.992112
C36   C     C_3   0.901671 0.308056 0.363615 -0.274800
C37   C     C_3   0.094545 0.317011 0.634626 -0.274045
C38   C     C_3   0.377108 0.154038 0.291052 0.110558
C39   C     C_3   0.305794 0.129104 0.385568 -0.501516
C40   C     C_3   0.234621 0.197556 0.379186 -0.829349
C41   C     C_3   0.626157 0.142133 0.705197 0.104740
C42   C     C_3   0.697298 0.110101 0.616911 -0.470291
C43   C     C_3   0.772645 0.173422 0.619358 -0.857786
C44   C     C_3   0.371516 0.904552 0.246372 0.147396
C45   C     C_R   0.498719 0.905057 0.499454 -0.298595
C46   C     C_3   0.318821 0.846828 0.338524 -0.442105
C47   C     C_3   0.226648 0.842505 0.295704 -0.952551
C48   C     C_3   0.631690 0.883044 0.721647 0.102626
C49   C     C_3   0.644432 0.792412 0.786928 -0.298733
C50   C     C_3   0.738128 0.768312 0.795605 -0.978591
C51   C     C_R   0.529018 0.045035 0.606999 0.387696
C52   C     C_R   0.468126 0.048330 0.392029 0.368149
C53   C     C_R   0.498886 0.095071 0.499655 -0.316613
C54   C     C_1   0.499564 0.807097 0.499698 0.235752
H1    H     H_    0.283546 0.401593 0.986129 0.139945
H2    H     H_    0.683650 0.501169 0.102682 0.218637
H3    H     H_    0.798053 0.443557 0.962191 0.267873
H4    H     H_    0.835595 0.531303 0.061675 0.257948
H5    H     H_    0.813519 0.554251 0.896056 0.270906
H6    H     H_    0.339913 0.688500 0.113575 0.186748
H7    H     H_    0.356642 0.621452 0.251951 0.144762
H8    H     H_    0.261767 0.560112 0.011298 0.242600
H9    H     H_    0.270579 0.499728 0.160986 0.202393
H10   H     H_    0.194813 0.627086 0.267246 0.295229
H11   H     H_    0.132227 0.570511 0.150350 0.259339
H12   H     H_    0.338133 0.294850 0.976617 0.202436
H13   H     H_    0.178141 0.676974 0.111209 0.261019
H14   H     H_    0.169474 0.725404 0.589485 0.164127
H15   H     H_    0.124013 0.628854 0.662051 0.122630
H16   H     H_    0.027677 0.801968 0.589486 0.238515
H17   H     H_    0.982706 0.705907 0.668932 0.242098
H18   H     H_    0.127887 0.821051 0.772444 0.270270
H19   H     H_    0.082063 0.724504 0.851240 0.269178
H20   H     H_    0.018891 0.822718 0.822438 0.271017
H21   H     H_    0.829849 0.716098 0.319170 0.166656
H22   H     H_    0.868987 0.610947 0.271769 0.115196
H23   H     H_    0.267082 0.331142 0.854168 0.176746
H24   H     H_    0.974212 0.784104 0.291354 0.242677
H25   H     H_    0.013496 0.678917 0.237989 0.239766
H26   H     H_    0.911452 0.682568 0.056825 0.273177
H27   H     H_    0.978261 0.779602 0.056241 0.273266
H28   H     H_    0.870323 0.787777 0.109783 0.271117
H29   H     H_    0.963858 0.294366 0.318757 0.179279
H30   H     H_    0.864426 0.355621 0.303526 0.147811
H31   H     H_    0.866011 0.244691 0.368048 0.180497
H32   H     H_    0.031296 0.305746 0.678126 0.183321
H33   H     H_    0.129906 0.368534 0.687485 0.145616
H34   H     H_    0.578672 0.337188 0.052847 0.148778
H35   H     H_    0.130639 0.254090 0.644356 0.177580
H36   H     H_    0.347664 0.160838 0.195458 0.170195
H37   H     H_    0.402508 0.220937 0.310436 0.196700
H38   H     H_    0.278923 0.063203 0.363764 0.220738
H39   H     H_    0.330097 0.126589 0.484463 0.231311
H40   H     H_    0.258676 0.263946 0.406081 0.284739
H41   H     H_    0.183675 0.177514 0.446058 0.276755
H42   H     H_    0.207453 0.201815 0.281891 0.248920
H43   H     H_    0.654055 0.148721 0.801471 0.160852
H44   H     H_    0.605537 0.210189 0.678218 0.150162
H45   H     H_    0.497370 0.275800 0.967118 0.190991
H46   H     H_    0.719134 0.043166 0.647634 0.212216
H47   H     H_    0.674384 0.106737 0.517402 0.221808
H48   H     H_    0.798360 0.178081 0.717242 0.253638
H49   H     H_    0.753389 0.240621 0.584693 0.283434
H50   H     H_    0.823316 0.148272 0.556860 0.268144
H51   H     H_    0.367610 0.874385 0.151159 0.168174
H52   H     H_    0.344004 0.971614 0.234184 0.162342
H53   H     H_    0.345340 0.778525 0.342957 0.235542
H54   H     H_    0.320745 0.874765 0.435272 0.217505
H55   H     H_    0.197494 0.909559 0.298000 0.262270
H56   H     H_    0.534477 0.237080 0.119002 0.218918
H57   H     H_    0.190815 0.797340 0.360323 0.297001
H58   H     H_    0.222310 0.817050 0.197787 0.262486
H59   H     H_    0.664285 0.933989 0.778847 0.169443
H60   H     H_    0.661665 0.881001 0.625756 0.106430
H61   H     H_    0.617467 0.793535 0.884184 0.249212
H62   H     H_    0.610719 0.740681 0.732484 0.239780
H63   H     H_    0.765896 0.764387 0.699162 0.277806
H64   H     H_    0.745475 0.702759 0.844066 0.271614
H65   H     H_    0.773106 0.818605 0.850897 0.266488
H66   H     H_    0.657400 0.558611 0.822468 0.155270
H67   H     H_    0.647354 0.446096 0.886464 0.108244
H68   H     H_    0.698473 0.611332 0.036766 0.234007
N1    N     N_1   0.500000 0.270550 0.500000 -0.102187
N2    N     N_1   0.500000 0.729450 0.500000 -0.110950
O1    O     O_R   0.378020 0.573650 0.500040 -0.636729
O2    O     O_3   0.455689 0.345250 0.124823 -0.640309
O3    O     O_3   0.557669 0.538927 0.947087 -0.637861
O4    O     O_3   0.419647 0.583947 0.084883 -0.621599
O5    O     O_3   0.086620 0.661653 0.472713 -0.638744
O6    O     O_3   0.912840 0.660655 0.447384 -0.625432
O7    O     O_3   0.911995 0.339238 0.488018 -0.580024
O8    O     O_3   0.087426 0.339749 0.504538 -0.580608
O9    O     O_3   0.444323 0.091584 0.279438 -0.626673
O10   O     O_3   0.555361 0.084286 0.718964 -0.604721
O11   O     O_3   0.458240 0.907423 0.280090 -0.599521
O12   O     O_R   0.621980 0.573650 0.499960 -0.607880
O13   O     O_3   0.544298 0.903167 0.717618 -0.589421
O14   O     O_R   0.378020 0.426320 0.500100 -0.596814
O15   O     O_R   0.621980 0.426320 0.499900 -0.613145
O16   O     O_R   0.500000 0.573650 0.319080 -0.600140
O17   O     O_R   0.500000 0.573650 0.680920 -0.604459
O18   O     O_R   0.500000 0.426320 0.319140 -0.577868
O19   O     O_R   0.500000 0.426320 0.680860 -0.600998
O20   O     O_3   0.381756 0.394680 0.853760 -0.622665
Zn1   Zn    Zn3+2 0.500000 0.598370 0.500000 0.969152
Zn2   Zn    Zn3+2 0.500000 0.401630 0.500000 0.987800

loop_
_geom_bond_atom_site_label_1
_geom_bond_atom_site_label_2
_ccdc_geom_bond_type
O19   Zn2   S    
O15   Zn2   S    
C23   C45   A    
C50   H63   S    
C41   C42   S    
O18   Zn2   S    
C4    O19   A    
C32   O6    S    
C30   H17   S    
C35   H27   S    
C44   H51   S    
C22   H66   S    
C34   C51   A    
C48   O13   S    
C20   H12   S    
C26   H7    S    
C1    O1    A    
C20   H1    S    
C5    C6    S    
C21   H45   S    
C11   C14   A    
C33   H24   S    
C31   H19   S    
C36   H29   S    
C47   H58   S    
C35   H26   S    
C38   O9    S    
C1    C18   S    
C43   H50   S    
C39   H39   S    
C33   C35   S    
C8    O4    S    
C29   O5    S    
C15   O8    S    
C42   C43   S    
C46   H54   S    
C9    C10   A    
O12   Zn1   S    
O17   Zn1   S    
C44   O11   S    
C21   H34   S    
C52   O9    S    
C3    O18   A    
C25   H3    S    
C40   H42   S    
C4    C7    S    
C41   O10   S    
C30   H16   S    
C35   H28   S    
C44   C46   S    
C21   H56   S    
C29   H15   S    
C14   O7    S    
C38   C39   S    
C50   H65   S    
C37   H32   S    
C28   H13   S    
C24   C25   S    
C6    O2    S    
C3    C8    S    
C36   O7    S    
C4    O17   A    
C5    C7    D    
C33   H25   S    
C31   H20   S    
C6    C8    D    
C47   H55   S    
C38   H37   S    
C2    C53   S    
C51   C53   A    
C29   C30   S    
C27   H8    S    
C42   H46   S    
C29   H14   S    
C11   C16   S    
C22   O3    S    
C14   C15   A    
N1    Zn2   S    
C46   H53   S    
C24   H68   S    
C17   C18   T    
C26   C27   S    
C12   O15   A    
C34   C45   A    
C26   O4    S    
C9    C11   A    
C27   H9    S    
C20   H23   S    
C48   C49   S    
C49   H61   S    
C32   H21   S    
C45   C54   S    
C13   C15   A    
C41   H43   S    
C25   H4    S    
C40   H41   S    
C42   H47   S    
C28   H10   S    
C39   H38   S    
C39   C40   S    
C52   C53   A    
C22   H67   S    
C48   H60   S    
C54   N2    T    
C46   C47   S    
C31   H18   S    
C50   H64   S    
C37   H33   S    
C40   H40   S    
C5    O20   S    
C10   C13   A    
O16   Zn1   S    
C32   H22   S    
C20   O20   S    
C44   H52   S    
C36   H31   S    
C24   H2    S    
N2    Zn1   S    
C38   H36   S    
C34   O13   S    
C37   O8    S    
C23   O11   S    
O14   Zn2   S    
C32   C33   S    
C28   H11   S    
C10   O5    S    
O1    Zn1   S    
C23   C52   A    
C30   C31   S    
C36   H30   S    
C16   C19   T    
C47   H57   S    
C12   C19   S    
C51   O10   S    
C37   H35   S    
C22   C24   S    
C43   H49   S    
C43   H48   S    
C13   C17   S    
C9    O6    S    
C49   H62   S    
C49   C50   S    
C12   O12   A    
C27   C28   S    
C41   H44   S    
C3    O16   A    
C25   H5    S    
C7    O3    S    
C21   O2    S    
C26   H6    S    
C2    N1    T    
C1    O14   A    
C48   H59   S    
