data_mof_unit_66884.cif
_audit_creation_date              2013-03-05T15:57:23-0500
_audit_creation_method            fapswitch 2.2
_symmetry_space_group_name_H-M    P1
_symmetry_Int_Tables_number       1
_space_group_crystal_system       triclinic
_cell_length_a                    17.3537
_cell_length_b                    18.631426
_cell_length_c                    8.395179
_cell_angle_alpha                 89.901434
_cell_angle_beta                  101.793116
_cell_angle_gamma                 90.250695
_cell_volume                      2657.04302982

loop_
_atom_site_label
_atom_site_type_symbol
_atom_site_description
_atom_site_fract_x
_atom_site_fract_y
_atom_site_fract_z
_atom_type_partial_charge
P1    P     P_3+3 0.834140 0.419320 0.003900 0.961105
P2    P     P_3+3 0.834140 0.580680 0.503900 0.957673
P3    P     P_3+3 0.334140 0.919320 0.003900 0.955496
P4    P     P_3+3 0.334140 0.080680 0.503900 0.966191
O1    O     O_2   0.841960 0.394640 0.833410 -0.468335
O2    O     O_2   0.841960 0.605360 0.333410 -0.470260
O3    O     O_2   0.341960 0.894640 0.833410 -0.458059
O4    O     O_2   0.341960 0.105360 0.333410 -0.483536
O5    O     O_3   0.907950 0.463080 0.102990 -0.494869
O6    O     O_3   0.907950 0.536920 0.602990 -0.495426
O7    O     O_3   0.407950 0.963080 0.102990 -0.502890
O8    O     O_3   0.407950 0.036920 0.602990 -0.486955
O9    O     O_3   0.972780 0.329600 0.629720 -0.487470
O10   O     O_3   0.972780 0.670400 0.129720 -0.475256
O11   O     O_3   0.472780 0.829600 0.629720 -0.478208
O12   O     O_3   0.472780 0.170400 0.129720 -0.486250
O13   O     O_2   0.839496 0.277480 0.694312 -0.492747
O14   O     O_2   0.843135 0.726121 0.205563 -0.506872
O15   O     O_2   0.345261 0.769833 0.698918 -0.500506
O16   O     O_2   0.338860 0.221671 0.191662 -0.488983
O17   O     O_3   0.751660 0.474849 0.954268 -0.646195
O18   O     O_3   0.753308 0.523006 0.457680 -0.652774
O19   O     O_3   0.254090 0.976973 0.951558 -0.643673
O20   O     O_3   0.251974 0.024174 0.466857 -0.645275
O21   O     O_3   0.937163 0.183097 0.636779 -0.622836
O22   O     O_3   0.942102 0.815595 0.126989 -0.614771
O23   O     O_3   0.446468 0.680565 0.621951 -0.619991
O24   O     O_3   0.437529 0.317146 0.141643 -0.622313
H1    H     H_    0.050347 0.225066 0.653507 0.059437
H2    H     H_    0.044114 0.776812 0.063127 0.017482
H3    H     H_    0.554852 0.728919 0.619592 0.037869
H4    H     H_    0.554342 0.287710 0.191233 0.066749
C1    C     C_3   0.052341 0.111674 0.671651 -0.063437
C2    C     C_3   0.047565 0.891106 0.080194 -0.055055
C3    C     C_3   0.570227 0.614969 0.639064 -0.041048
C4    C     C_3   0.540338 0.399552 0.124204 -0.065269
H5    H     H_    0.627341 0.635874 0.708903 0.077117
H6    H     H_    0.541651 0.416698 0.250735 0.114554
H7    H     H_    0.063296 0.120078 0.804378 0.139571
H8    H     H_    0.083616 0.883060 0.203373 0.109465
P5    P     P_3+3 0.165830 0.418670 0.685610 0.964432
P6    P     P_3+3 0.165830 0.581330 0.185610 0.963866
P7    P     P_3+3 0.665830 0.918670 0.685610 0.959767
P8    P     P_3+3 0.665830 0.081330 0.185610 0.964097
P9    P     P_3+3 0.097341 0.262036 0.110480 0.918694
P10   P     P_3+3 0.097540 0.738357 0.609043 0.925199
P11   P     P_3+3 0.594219 0.759787 0.112730 0.925425
P12   P     P_3+3 0.602588 0.234177 0.609379 0.931486
O25   O     O_2   0.157990 0.394030 0.856030 -0.475923
O26   O     O_2   0.157990 0.605970 0.356030 -0.474425
O27   O     O_2   0.657990 0.894030 0.856030 -0.483541
O28   O     O_2   0.657990 0.105970 0.356030 -0.464461
O29   O     O_3   0.027110 0.329490 0.059550 -0.492944
O30   O     O_3   0.027110 0.670510 0.559550 -0.496059
O31   O     O_3   0.527110 0.829490 0.059550 -0.488702
O32   O     O_3   0.527110 0.170510 0.559550 -0.486822
O33   O     O_2   0.148891 0.264141 0.980302 -0.495011
O34   O     O_2   0.148963 0.736120 0.478726 -0.481060
O35   O     O_2   0.644708 0.757823 0.980581 -0.494539
O36   O     O_2   0.660899 0.222024 0.496323 -0.482826
O37   O     O_3   0.248824 0.474275 0.733158 -0.645120
O38   O     O_3   0.247310 0.524603 0.229813 -0.649492
O39   O     O_3   0.748266 0.974837 0.729558 -0.650373
O40   O     O_3   0.748879 0.026604 0.234256 -0.647310
O41   O     O_3   0.045465 0.180797 0.076807 -0.628915
O42   O     O_3   0.045449 0.819265 0.572914 -0.628355
O43   O     O_3   0.538886 0.680077 0.086313 -0.631683
O44   O     O_3   0.563858 0.318037 0.547574 -0.623493
C5    C     C_3   0.964921 0.196515 0.060958 0.355712
C6    C     C_3   0.964673 0.801828 0.541111 0.370187
C7    C     C_3   0.458776 0.698221 0.068573 0.350815
C8    C     C_3   0.486549 0.320813 0.572359 0.347861
H9    H     H_    0.943570 0.226368 0.945992 0.106038
H10   H     H_    0.950508 0.767846 0.430922 0.126811
H11   H     H_    0.439615 0.730529 0.956518 0.109351
H12   H     H_    0.447363 0.286083 0.482418 0.094442
H13   H     H_    0.954344 0.228815 0.165519 -0.022666
H14   H     H_    0.948441 0.772665 0.645020 -0.032919
H15   H     H_    0.449315 0.728903 0.175647 -0.028220
H16   H     H_    0.483395 0.304059 0.698133 -0.048069
C9    C     C_3   0.916706 0.128112 0.052667 -0.220756
C10   C     C_3   0.913894 0.868077 0.503552 -0.229510
C11   C     C_3   0.406422 0.631607 0.050045 -0.233980
C12   C     C_3   0.459138 0.397883 0.547304 -0.249612
H17   H     H_    0.343998 0.647340 0.012022 0.074297
H18   H     H_    0.458641 0.414413 0.420726 0.125182
H19   H     H_    0.853805 0.140793 0.004971 0.069933
H20   H     H_    0.855029 0.850634 0.436500 0.086196
H21   H     H_    0.937198 0.090005 0.969789 0.120122
H22   H     H_    0.941587 0.905315 0.429036 0.131754
H23   H     H_    0.420669 0.597161 0.954481 0.112532
H24   H     H_    0.501757 0.432736 0.627544 0.115373
C13   C     C_3   0.225137 0.452597 0.241769 0.275668
C14   C     C_3   0.229269 0.546309 0.751160 0.280166
C15   C     C_3   0.729463 0.953788 0.243127 0.274424
C16   C     C_3   0.727924 0.046130 0.753979 0.275182
H25   H     H_    0.227498 0.440095 0.371320 -0.014342
H26   H     H_    0.241166 0.559168 0.882722 -0.005908
H27   H     H_    0.741448 0.937661 0.372955 -0.004439
H28   H     H_    0.735545 0.055804 0.886440 -0.011769
H29   H     H_    0.166016 0.438023 0.171615 0.083055
H30   H     H_    0.167563 0.560785 0.697561 0.064550
H31   H     H_    0.667825 0.939162 0.188443 0.069078
H32   H     H_    0.667456 0.061544 0.693095 0.069865
C17   C     C_3   0.283365 0.406456 0.176569 -0.357957
C18   C     C_3   0.282181 0.591834 0.668572 -0.351341
C19   C     C_3   0.782602 0.911790 0.155435 -0.352532
C20   C     C_3   0.784181 0.093880 0.685966 -0.341495
H33   H     H_    0.343287 0.414932 0.248039 0.123817
H34   H     H_    0.344277 0.583637 0.725904 0.111950
H35   H     H_    0.844451 0.920593 0.213797 0.106481
H36   H     H_    0.844968 0.082675 0.748142 0.111109
H37   H     H_    0.267252 0.348983 0.180583 0.110565
H38   H     H_    0.266841 0.649302 0.673486 0.107357
H39   H     H_    0.768054 0.853796 0.155696 0.103296
H40   H     H_    0.770857 0.151137 0.701744 0.111288
H41   H     H_    0.284277 0.422773 0.050233 0.136485
H42   H     H_    0.276766 0.574092 0.541426 0.142522
H43   H     H_    0.777389 0.932167 0.030284 0.148951
H44   H     H_    0.780645 0.081229 0.556137 0.144049
Ba1   Ba    Ba6+2 0.000000 0.447380 0.844850 1.610502
Ba2   Ba    Ba6+2 0.000000 0.552620 0.344850 1.610743
Ba3   Ba    Ba6+2 0.500000 0.947380 0.844850 1.614603
Ba4   Ba    Ba6+2 0.500000 0.052620 0.344850 1.616708
C21   C     C_3   0.771939 0.546937 0.937422 0.286286
C22   C     C_3   0.775589 0.451706 0.441116 0.271256
C23   C     C_3   0.276166 0.049486 0.961415 0.282884
C24   C     C_3   0.271037 0.956806 0.413079 0.289868
H45   H     H_    0.757756 0.560796 0.806379 -0.011351
H46   H     H_    0.775044 0.441705 0.311278 -0.012807
H47   H     H_    0.276426 0.068823 0.837313 -0.018348
H48   H     H_    0.267104 0.959150 0.280037 -0.005405
H49   H     H_    0.834431 0.560680 0.986507 0.060832
H50   H     H_    0.833805 0.436790 0.514669 0.084143
H51   H     H_    0.333988 0.062389 0.038895 0.091591
H52   H     H_    0.330240 0.937784 0.474479 0.054570
C25   C     C_3   0.721877 0.592232 0.026129 -0.348846
C26   C     C_3   0.715278 0.404003 0.496792 -0.345354
C27   C     C_3   0.214790 0.089353 0.030172 -0.352112
C28   C     C_3   0.211071 0.903093 0.449947 -0.346241
H53   H     H_    0.659856 0.589581 0.966349 0.108282
H54   H     H_    0.655860 0.415776 0.426495 0.121493
H55   H     H_    0.156040 0.073919 0.964634 0.109417
H56   H     H_    0.151923 0.928006 0.431736 0.131611
H57   H     H_    0.740920 0.648877 0.029933 0.117515
H58   H     H_    0.728797 0.346782 0.481786 0.115797
H59   H     H_    0.223521 0.147891 0.021341 0.123152
H60   H     H_    0.208972 0.855217 0.370991 0.080785
H61   H     H_    0.724794 0.570817 0.149808 0.143450
H62   H     H_    0.714677 0.415699 0.625584 0.135670
H63   H     H_    0.216930 0.072590 0.157089 0.131785
H64   H     H_    0.227560 0.886287 0.578432 0.135277
O45   O     O_3   0.092100 0.536880 0.086720 -0.497518
O46   O     O_3   0.092100 0.463120 0.586720 -0.493340
O47   O     O_3   0.592100 0.036880 0.086720 -0.497130
O48   O     O_3   0.592100 0.963120 0.586720 -0.492341
P13   P     P_3+3 0.896620 0.732850 0.080207 0.916264
P14   P     P_3+3 0.896861 0.266601 0.578481 0.913953
P15   P     P_3+3 0.397469 0.233726 0.078830 0.924447
P16   P     P_3+3 0.400370 0.763587 0.576494 0.923470
C29   C     C_3   0.012044 0.179879 0.598144 0.342292
C30   C     C_3   0.001242 0.821642 0.036056 0.354292
C31   C     C_3   0.519488 0.680922 0.571749 0.353669
C32   C     C_3   0.512613 0.321655 0.104678 0.373781
H65   H     H_    0.007690 0.181274 0.464512 -0.044594
H66   H     H_    0.974634 0.820846 0.904795 -0.041680
H67   H     H_    0.509832 0.683327 0.437228 -0.044114
H68   H     H_    0.512361 0.304027 0.977957 -0.063303
C33   C     C_R   0.141190 0.675171 0.918817 -0.286446
C34   C     C_R   0.140615 0.323883 0.420901 -0.287614
C35   C     C_R   0.639957 0.176093 0.922328 -0.285397
C36   C     C_R   0.640890 0.824157 0.419717 -0.291555
C37   C     C_R   0.858914 0.324936 0.266484 -0.284928
C38   C     C_R   0.856444 0.673992 0.768187 -0.283547
C39   C     C_R   0.357479 0.825566 0.267769 -0.285430
C40   C     C_R   0.361638 0.177415 0.764046 -0.276377
C41   C     C_R   0.786973 0.216899 0.303925 -0.092521
C42   C     C_R   0.782457 0.779785 0.807845 -0.098181
C43   C     C_R   0.286916 0.716482 0.303460 -0.088485
C44   C     C_R   0.289068 0.284573 0.802256 -0.098907
C45   C     C_R   0.843542 0.269025 0.365122 -0.011406
C46   C     C_R   0.839965 0.728626 0.868395 -0.016449
C47   C     C_R   0.343329 0.768747 0.365503 -0.000601
C48   C     C_R   0.345791 0.232789 0.863420 -0.010633
C49   C     C_R   0.815477 0.333361 0.108444 0.055740
C50   C     C_R   0.813099 0.665400 0.610007 0.053193
C51   C     C_R   0.314458 0.833766 0.109139 0.031503
C52   C     C_R   0.317442 0.168067 0.606678 0.067786
C53   C     C_R   0.756632 0.280232 0.044350 -0.062409
C54   C     C_R   0.753657 0.717860 0.546094 -0.056008
C55   C     C_R   0.256758 0.779886 0.043418 -0.065369
C56   C     C_R   0.258680 0.221253 0.542127 -0.058006
C57   C     C_R   0.242379 0.720423 0.143004 -0.046030
C58   C     C_R   0.244372 0.280603 0.641994 -0.056116
C59   C     C_R   0.742658 0.220532 0.143747 -0.055253
C60   C     C_R   0.739807 0.777487 0.645550 -0.051463
C61   C     C_R   0.184320 0.666844 0.077939 0.063285
C62   C     C_R   0.184625 0.332922 0.578937 0.060533
C63   C     C_R   0.683870 0.167376 0.080017 0.059076
C64   C     C_R   0.683397 0.832198 0.579359 0.057764
C65   C     C_R   0.156189 0.731546 0.819804 -0.010432
C66   C     C_R   0.155380 0.267802 0.321803 -0.001575
C67   C     C_R   0.654876 0.232395 0.823796 -0.006972
C68   C     C_R   0.653724 0.766564 0.322533 0.000908
C69   C     C_R   0.213256 0.783223 0.881937 -0.100942
C70   C     C_R   0.212123 0.216061 0.383670 -0.092507
C71   C     C_R   0.711224 0.284684 0.885138 -0.099131
C72   C     C_R   0.708493 0.713419 0.386269 -0.101697
H69   H     H_    0.279585 0.672548 0.381613 0.097015
H70   H     H_    0.280296 0.327342 0.881894 0.103796
H71   H     H_    0.779329 0.173306 0.382758 0.111829
H72   H     H_    0.774317 0.822757 0.887213 0.101130
H73   H     H_    0.718685 0.328550 0.806960 0.110611
H74   H     H_    0.714837 0.668653 0.309825 0.099863
H75   H     H_    0.220691 0.827416 0.804463 0.108477
H76   H     H_    0.218642 0.171622 0.307082 0.103995
H77   H     H_    0.096606 0.635930 0.869250 0.062972
H78   H     H_    0.095886 0.362768 0.371589 0.061561
H79   H     H_    0.596034 0.136370 0.872101 0.060414
H80   H     H_    0.597874 0.864227 0.368744 0.061203
H81   H     H_    0.903127 0.364421 0.316702 0.060774
H82   H     H_    0.901996 0.635763 0.816878 0.058297
H83   H     H_    0.401951 0.864851 0.317670 0.059612
H84   H     H_    0.405549 0.137993 0.814550 0.059751
C73   C     C_3   0.590254 0.566059 0.508221 -0.431518
H85   H     H_    0.540432 0.529942 0.458927 0.118513
H86   H     H_    0.609086 0.596907 0.409650 0.131174
H87   H     H_    0.638461 0.530539 0.567310 0.166560
C74   C     C_3   0.622739 0.407290 0.090247 -0.433389
H88   H     H_    0.644744 0.462367 0.122637 0.161082
H89   H     H_    0.662831 0.368723 0.165524 0.092633
H90   H     H_    0.622223 0.397331 0.959669 0.142105
C75   C     C_3   0.130384 0.100969 0.619761 -0.447391
H91   H     H_    0.122802 0.103841 0.485313 0.142146
H92   H     H_    0.171402 0.142827 0.679209 0.101986
H93   H     H_    0.156039 0.048134 0.661695 0.170632
C76   C     C_3   0.102652 0.906297 0.963550 -0.448210
H94   H     H_    0.101074 0.962962 0.923508 0.160207
H95   H     H_    0.162841 0.894186 0.028901 0.132709
H96   H     H_    0.088467 0.873369 0.852028 0.131534
C77   C     C_3   0.417319 0.587944 0.204908 -0.419748
H97   H     H_    0.399787 0.618174 0.304856 0.136977
H98   H     H_    0.381991 0.538210 0.182959 0.158759
H99   H     H_    0.479591 0.573112 0.237899 0.147174
C78   C     C_3   0.377480 0.407420 0.582491 -0.471818
H100  H     H_    0.335824 0.370366 0.505485 0.120157
H101  H     H_    0.377039 0.395505 0.711410 0.146319
H102  H     H_    0.358301 0.463536 0.554994 0.165255
C79   C     C_3   0.924060 0.094038 0.218829 -0.436787
H103  H     H_    0.900259 0.129565 0.301415 0.125941
H104  H     H_    0.889529 0.043752 0.207523 0.158836
H105  H     H_    0.986756 0.082985 0.272290 0.141797
C80   C     C_3   0.902032 0.906923 0.654241 -0.455954
H106  H     H_    0.866569 0.874959 0.722266 0.133826
H107  H     H_    0.959415 0.917449 0.734490 0.146298
H108  H     H_    0.870458 0.957682 0.617320 0.164574
C81   C     C_3   0.000612 0.045158 0.635131 -0.375515
H109  H     H_    0.965867 0.040188 0.731192 0.115209
H110  H     H_    0.959335 0.048189 0.516840 0.134059
H111  H     H_    0.036503 0.995914 0.636589 0.131919
C82   C     C_3   0.994872 0.955145 0.090200 -0.369393
H112  H     H_    0.971003 0.950127 0.201635 0.125792
H113  H     H_    0.030384 0.005215 0.100996 0.127175
H114  H     H_    0.945548 0.958514 0.983351 0.125737
C83   C     C_3   0.532871 0.569044 0.753460 -0.365422
H115  H     H_    0.528220 0.601387 0.859835 0.171422
H116  H     H_    0.473482 0.550054 0.692604 0.140668
H117  H     H_    0.570407 0.521861 0.795827 0.108501
C84   C     C_3   0.484375 0.448852 0.011528 -0.407748
H118  H     H_    0.423816 0.445264 0.034098 0.144482
H119  H     H_    0.506019 0.504513 0.031664 0.129363
H120  H     H_    0.483310 0.434378 0.884230 0.120457

loop_
_geom_bond_atom_site_label_1
_geom_bond_atom_site_label_2
_geom_bond_distance
_ccdc_geom_bond_type
C43   H69   1.071472 S    
C33   H77   1.082032 S    
P1    O17   1.749406 S    
C82   H112  1.101479 S    
O10   Ba2   2.819064 S    
C13   H25   1.104455 S    
C6    H14   1.110418 S    
O27   Ba3   2.903815 S    
C5    H13   1.111323 S    
C20   H44   1.104854 S    
P3    O19   1.743155 S    
O7    Ba4   2.849578 S    
C38   H82   1.082183 S    
P3    O7    1.598452 S    
P5    O37   1.749384 S    
C8    H12   1.113201 S    
O6    Ba1   2.853669 S    
C37   H81   1.082361 S    
C28   H60   1.108260 S    
C7    H15   1.106661 S    
P7    O39   1.746492 S    
Ba3   Ba4   4.629909 S    
Ba3   O47   2.849550 S    
C26   H62   1.105485 S    
C1    C29   1.520968 S    
O8    Ba3   2.853669 S    
P12   C67   1.843129 S    
P9    O33   1.547700 D    
C79   H103  1.100215 S    
C1    H7    1.102726 S    
O11   Ba3   2.820683 S    
C16   H28   1.107679 S    
C18   H38   1.107317 S    
C29   H65   1.109162 S    
P1    O1    1.536445 D    
O15   P16   1.545195 D    
O32   Ba4   2.820023 S    
C25   H57   1.103097 S    
C3    H5    1.112517 S    
C23   H51   1.104262 S    
C81   H109  1.104765 S    
C74   H90   1.110353 S    
P3    O3    1.536445 D    
C24   H52   1.110364 S    
C43   C57   1.411338 A    
C80   H106  1.094897 S    
P4    O20   1.744980 S    
C10   H20   1.108447 S    
O18   C22   1.400238 S    
C14   H26   1.107787 S    
C15   H27   1.108265 S    
C21   H49   1.107560 S    
P2    C50   1.887110 S    
C23   H47   1.102679 S    
C76   H95   1.100134 S    
O1    Ba1   2.892332 S    
C71   H73   1.071192 S    
C73   H87   1.103616 S    
C84   H118  1.107050 S    
P4    Ba4   3.453587 S    
O22   P13   1.737428 S    
C40   C48   1.391132 A    
C77   H97   1.105131 S    
C55   C69   1.411871 A    
C58   C62   1.445050 A    
P5    Ba1   3.455907 S    
C65   C69   1.400748 A    
C36   C68   1.395008 A    
C2    C76   1.527170 S    
C35   C63   1.395568 A    
O23   C31   1.414773 S    
P7    O27   1.533930 D    
C30   H66   1.104422 S    
C27   H55   1.092493 S    
P5    O25   1.533930 D    
P10   C65   1.856585 S    
C14   C18   1.514818 S    
O20   C24   1.398350 S    
C68   C72   1.403077 A    
O21   C29   1.403731 S    
C4    C74   1.520374 S    
C15   H31   1.107391 S    
O16   P15   1.540533 D    
O26   Ba2   2.895700 S    
C6    H10   1.106673 S    
O14   P13   1.543530 D    
C17   H41   1.106017 S    
C4    C84   1.520184 S    
C10   C80   1.509123 S    
C5    H9    1.109935 S    
P7    C64   1.898587 S    
P15   C48   1.847143 S    
P4    O8    1.602704 S    
C41   C59   1.407732 A    
C75   H91   1.110550 S    
C28   H64   1.103118 S    
P16   C47   1.846665 S    
C7    C11   1.524152 S    
C36   H80   1.082096 S    
P4    O4    1.534616 D    
P6    O38   1.746811 S    
O28   Ba4   2.895700 S    
C9    H21   1.104404 S    
P8    O28   1.535759 D    
O30   Ba2   2.820023 S    
P9    O29   1.745343 S    
C78   H100  1.106008 S    
P10   O34   1.547431 D    
O12   P15   1.751046 S    
C35   C67   1.390627 A    
Ba2   O46   2.853643 S    
C25   H61   1.103224 S    
P2    O2    1.534616 D    
C56   C70   1.411450 A    
O3    Ba3   2.892332 S    
C24   H48   1.105781 S    
C22   H50   1.107262 S    
C19   H43   1.102853 S    
P14   C45   1.840976 S    
C8    H16   1.112509 S    
P3    Ba3   3.449076 S    
P12   O36   1.539932 D    
C33   C61   1.400138 A    
C59   C63   1.441437 A    
Ba3   O48   2.957369 S    
P2    Ba2   3.453587 S    
O25   Ba1   2.903815 S    
H3    C31   1.110543 S    
C79   H104  1.103643 S    
C83   H115  1.094940 S    
Ba1   O46   2.957369 S    
O10   P13   1.749464 S    
C41   C45   1.399304 A    
C43   C47   1.401039 A    
H1    C29   1.112105 S    
C32   H68   1.113078 S    
P6    O45   1.603461 S    
P1    O5    1.598452 S    
C26   H54   1.101092 S    
C9    C79   1.513318 S    
C60   C64   1.445881 A    
C82   H113  1.109349 S    
C22   H46   1.104271 S    
O37   C14   1.401742 S    
O4    Ba4   2.900362 S    
C27   H63   1.103164 S    
C84   H119  1.102873 S    
C33   C65   1.394613 A    
C21   C25   1.514762 S    
O23   P16   1.749927 S    
C42   C60   1.412001 A    
O39   C16   1.401999 S    
O22   C30   1.402748 S    
O24   P15   1.737967 S    
P8    O40   1.747661 S    
C20   H36   1.097853 S    
C12   C78   1.516705 S    
C77   H98   1.103568 S    
C3    C31   1.551854 S    
C53   C71   1.408557 A    
C50   C54   1.445019 A    
C31   H67   1.108152 S    
C55   C57   1.438149 A    
C40   C52   1.396213 A    
P2    O18   1.743173 S    
C74   H88   1.108090 S    
C82   H114  1.108009 S    
O9    Ba1   2.820683 S    
C19   H35   1.096684 S    
C53   C59   1.438572 A    
C80   H107  1.099302 S    
O44   C8    1.400220 S    
C37   C49   1.394520 A    
P10   O30   1.745023 S    
O5    Ba2   2.849578 S    
C25   H53   1.091589 S    
C42   H72   1.070620 S    
P11   O43   1.754538 S    
P6    Ba2   3.451294 S    
C42   C46   1.400772 A    
C3    C83   1.523647 S    
C44   H70   1.072206 S    
O13   P14   1.541377 D    
C75   H92   1.102371 S    
C14   H30   1.107708 S    
Ba1   Ba2   4.629909 S    
C8    C12   1.515400 S    
C15   C19   1.513427 S    
C49   C53   1.442416 A    
P6    O26   1.535759 D    
C38   C46   1.389066 A    
C27   H59   1.104907 S    
C54   C72   1.411176 A    
C11   H17   1.105625 S    
C35   H79   1.082261 S    
C36   C64   1.399422 A    
C78   H101  1.106005 S    
P9    O41   1.751232 S    
Ba2   O45   2.959495 S    
C2    H8    1.104132 S    
C84   H120  1.099103 S    
P13   C46   1.849322 S    
O2    Ba2   2.900362 S    
C13   H29   1.106493 S    
P7    O48   1.607763 S    
P2    O6    1.602704 S    
O31   Ba3   2.818399 S    
P7    Ba3   3.455907 S    
O9    P14   1.747865 S    
C34   C62   1.399054 A    
C1    C75   1.519067 S    
O24   C32   1.401917 S    
C1    C81   1.521441 S    
P11   O31   1.743793 S    
P5    O46   1.607763 S    
C18   H34   1.097904 S    
C17   H37   1.107736 S    
P12   O32   1.749821 S    
C16   H32   1.108036 S    
C17   H33   1.100058 S    
C76   H96   1.104523 S    
C22   C26   1.514666 S    
C79   H105  1.108884 S    
C72   H74   1.072913 S    
C40   H84   1.082436 S    
C2    C82   1.519240 S    
C73   H85   1.105090 S    
C83   H117  1.110342 S    
C3    C73   1.523166 S    
C39   C47   1.389697 A    
C51   C55   1.442924 A    
P6    C61   1.888813 S    
C28   H56   1.110039 S    
O40   C15   1.401962 S    
C12   H18   1.104211 S    
P5    C62   1.894615 S    
C2    C30   1.526191 S    
P3    C51   1.884626 S    
C80   H108  1.106709 S    
P10   O42   1.754926 S    
P1    C49   1.883331 S    
H2    C30   1.112875 S    
C11   H23   1.095849 S    
O38   C13   1.403136 S    
O19   C23   1.400640 S    
C10   H22   1.105503 S    
P12   O44   1.739527 S    
C52   C56   1.447962 A    
C81   H111  1.109825 S    
C70   H76   1.069626 S    
P8    O47   1.603461 S    
C39   C51   1.395750 A    
Ba4   O48   2.853643 S    
Ba4   O47   2.959495 S    
Ba1   O45   2.849550 S    
O11   P16   1.746484 S    
C13   C17   1.514927 S    
C83   H116  1.109321 S    
C77   H99   1.095858 S    
C41   H71   1.071621 S    
C38   C50   1.395076 A    
C7    H11   1.108964 S    
C54   C60   1.441049 A    
C9    H19   1.109477 S    
C20   H40   1.106432 S    
O42   C6    1.408947 S    
C44   C58   1.410866 A    
C67   C71   1.399294 A    
C26   H58   1.105532 S    
O41   C5    1.408739 S    
H4    C32   1.113425 S    
C4    H6    1.105514 S    
C73   H86   1.108687 S    
C57   C61   1.441579 A    
P11   C68   1.854924 S    
C19   H39   1.108639 S    
O43   C7    1.410113 S    
C37   C45   1.388142 A    
O12   Ba4   2.819064 S    
C6    C10   1.514622 S    
C75   H93   1.108942 S    
P1    Ba1   3.449076 S    
C34   C66   1.393555 A    
C5    C9    1.515353 S    
P11   O35   1.548419 D    
C21   H45   1.107452 S    
P9    C66   1.855448 S    
C69   H75   1.071993 S    
P8    C63   1.886297 S    
C74   H89   1.105816 S    
C66   C70   1.402236 A    
C78   H102  1.108149 S    
P8    Ba4   3.451294 S    
O21   P14   1.736693 S    
C4    C32   1.525518 S    
C39   H83   1.082039 S    
C16   C20   1.512975 S    
O29   Ba1   2.818399 S    
C12   H24   1.102773 S    
C81   H110  1.100851 S    
C11   C77   1.511637 S    
C76   H94   1.106171 S    
O17   C21   1.401190 S    
C23   C27   1.509645 S    
C18   H42   1.103356 S    
P4    C52   1.894849 S    
C44   C48   1.401245 A    
C56   C58   1.441529 A    
C24   C28   1.517136 S    
C34   H78   1.082272 S    
