data_mof_unit_6621.cif
_audit_creation_date              2012-12-11T14:39:35-0500
_audit_creation_method            fapswitch 2.2
_symmetry_space_group_name_H-M    P1
_symmetry_Int_Tables_number       1
_space_group_crystal_system       monoclinic
_cell_length_a                    7.210276
_cell_length_b                    13.932676
_cell_length_c                    16.47957
_cell_angle_alpha                 90.0
_cell_angle_beta                  97.252945
_cell_angle_gamma                 90.0
_cell_volume                      1642.26524217

loop_
_atom_site_label
_atom_site_type_symbol
_atom_type_description
_atom_site_fract_x
_atom_site_fract_y
_atom_site_fract_z
_atom_type_partial_charge
O1    O     O_R   0.525340 0.338340 0.164530 -0.537276
O2    O     O_R   0.474660 0.661660 0.835470 -0.541926
O3    O     O_R   0.974660 0.838340 0.835470 -0.537276
O4    O     O_R   0.025340 0.161660 0.164530 -0.541926
O5    O     O_R   0.253520 0.352000 0.336710 -0.549940
O6    O     O_R   0.746480 0.648000 0.663290 -0.527289
O7    O     O_R   0.246480 0.852000 0.663290 -0.549939
O8    O     O_R   0.753520 0.148000 0.336710 -0.527289
O9    O     O_R   0.083330 0.168380 0.337300 -0.544569
O10   O     O_R   0.916670 0.831620 0.662700 -0.526622
O11   O     O_R   0.416670 0.668380 0.662700 -0.544569
O12   O     O_R   0.583330 0.331620 0.337300 -0.526621
C1    C     C_R   0.432597 0.371948 0.361332 0.778820
C2    C     C_R   0.568138 0.627406 0.639130 0.775925
C3    C     C_R   0.067403 0.871948 0.638668 0.778820
C4    C     C_R   0.931862 0.127406 0.360870 0.775924
O13   O     O_R   0.195840 0.349670 0.165140 -0.545493
O14   O     O_R   0.804160 0.650330 0.834860 -0.540928
O15   O     O_R   0.304160 0.849670 0.834860 -0.545492
O16   O     O_R   0.695840 0.150330 0.165140 -0.540928
C5    C     C_R   0.356828 0.371160 0.137016 0.773372
C6    C     C_R   0.643022 0.628597 0.862797 0.770790
C7    C     C_R   0.143172 0.871160 0.862984 0.773373
C8    C     C_R   0.856978 0.128597 0.137203 0.770789
O17   O     O_3   0.387830 0.193120 0.250910 -0.383075
O18   O     O_3   0.612170 0.806880 0.749090 -0.385022
O19   O     O_3   0.112170 0.693120 0.749090 -0.383074
O20   O     O_3   0.887830 0.306880 0.250910 -0.385022
V1    V     V_3+5 0.113010 0.264540 0.250910 1.372704
V2    V     V_3+5 0.886990 0.735460 0.749090 1.395067
V3    V     V_3+5 0.386990 0.764540 0.749090 1.372703
V4    V     V_3+5 0.613010 0.235460 0.250910 1.395069
H1    H     H_    0.888338 0.780452 0.274108 0.113328
H2    H     H_    0.060782 0.215962 0.727207 0.110708
H3    H     H_    0.611659 0.280452 0.725892 0.113328
H4    H     H_    0.439220 0.715962 0.272793 0.110708
C9    C     C_R   0.018378 0.200993 0.521528 -0.144755
C10   C     C_R   0.016630 0.798049 0.477376 -0.141734
C11   C     C_R   0.481623 0.700993 0.478472 -0.144755
C12   C     C_R   0.483368 0.298049 0.522624 -0.141734
C13   C     C_R   0.047049 0.241120 0.599093 -0.137830
C14   C     C_R   0.981859 0.757186 0.400297 -0.139221
C15   C     C_R   0.452953 0.741120 0.400907 -0.137829
C16   C     C_R   0.518139 0.257186 0.599703 -0.139221
C17   C     C_R   0.050640 0.183004 0.667308 -0.173463
C18   C     C_R   0.924205 0.814214 0.333211 -0.170859
C19   C     C_R   0.449362 0.683004 0.332692 -0.173463
C20   C     C_R   0.575793 0.314214 0.666789 -0.170859
C21   C     C_R   0.029292 0.083369 0.659056 0.261480
C22   C     C_R   0.903001 0.913615 0.341795 0.262791
C23   C     C_R   0.470709 0.583369 0.340944 0.261480
C24   C     C_R   0.596998 0.413615 0.658205 0.262791
C25   C     C_R   0.020580 0.039502 0.580195 0.031244
C26   C     C_R   0.954274 0.958717 0.419548 0.028799
C27   C     C_R   0.479421 0.539502 0.419805 0.031243
C28   C     C_R   0.545725 0.458717 0.580452 0.028799
C29   C     C_R   0.002941 0.100200 0.510278 0.002890
C30   C     C_R   0.001511 0.898507 0.488891 0.000739
C31   C     C_R   0.497060 0.600200 0.489722 0.002890
C32   C     C_R   0.498488 0.398507 0.511108 0.000739
C33   C     C_R   0.029439 0.938326 0.568708 -0.165032
C34   C     C_R   0.964140 0.060400 0.430638 -0.164851
C35   C     C_R   0.470561 0.438325 0.431292 -0.165031
C36   C     C_R   0.535860 0.560400 0.569362 -0.164851
H5    H     H_    0.008672 0.250533 0.470662 0.120174
H6    H     H_    0.056419 0.749442 0.527767 0.116518
H7    H     H_    0.491330 0.750533 0.529338 0.120174
H8    H     H_    0.443579 0.249442 0.472232 0.116518
H9    H     H_    0.059697 0.318184 0.606204 0.130751
H10   H     H_    0.994794 0.680338 0.392894 0.131421
H11   H     H_    0.440306 0.818184 0.393796 0.130751
H12   H     H_    0.505203 0.180338 0.607106 0.131421
H13   H     H_    0.138849 0.065441 0.057206 0.155420
H14   H     H_    0.862255 0.932506 0.944425 0.151727
H15   H     H_    0.361150 0.565441 0.942794 0.155420
H16   H     H_    0.637744 0.432506 0.055574 0.151727
C37   C     C_2   0.150607 0.940801 0.931575 -0.356335
C38   C     C_2   0.849809 0.058481 0.068987 -0.357623
C39   C     C_2   0.349393 0.440801 0.068425 -0.356335
C40   C     C_2   0.650191 0.558481 0.931013 -0.357623
C41   C     C_2   0.996647 0.964553 0.966369 -0.132859
C42   C     C_2   0.004210 0.033908 0.034843 -0.132720
C43   C     C_2   0.503353 0.464552 0.033630 -0.132859
C44   C     C_2   0.495790 0.533908 0.965156 -0.132721
H17   H     H_    0.715615 0.026889 0.045969 0.126396
H18   H     H_    0.284616 0.972786 0.954296 0.124756
H19   H     H_    0.784385 0.526889 0.954031 0.126396
H20   H     H_    0.215384 0.472786 0.045704 0.124756
N1    N     N_2   0.992407 0.030911 0.729095 -0.541060
H21   H     H_    0.074795 0.052281 0.781729 0.240651
C45   C     C_3   0.795934 0.030575 0.739680 -0.479045
H22   H     H_    0.773913 0.987773 0.794301 0.203767
H23   H     H_    0.711452 0.998466 0.685341 0.201443
H24   H     H_    0.746321 0.104883 0.748776 0.161140
N2    N     N_2   0.813374 0.964535 0.273217 -0.534496
H25   H     H_    0.867573 0.947926 0.219945 0.238531
C46   C     C_3   0.611665 0.954509 0.263391 -0.488678
H26   H     H_    0.548423 0.997686 0.210549 0.200972
H27   H     H_    0.554381 0.979909 0.319133 0.200394
H28   H     H_    0.571104 0.878396 0.251571 0.159979
N3    N     N_2   0.507593 0.530911 0.270904 -0.541059
H29   H     H_    0.425201 0.552279 0.218271 0.240651
C47   C     C_3   0.704065 0.530577 0.260318 -0.479046
H30   H     H_    0.726085 0.487773 0.205698 0.203768
H31   H     H_    0.788550 0.498471 0.314657 0.201441
H32   H     H_    0.753673 0.604885 0.251220 0.161140
N4    N     N_2   0.686625 0.464534 0.726783 -0.534496
H33   H     H_    0.632428 0.447926 0.780055 0.238532
C48   C     C_3   0.888335 0.454509 0.736608 -0.488678
H34   H     H_    0.951578 0.497687 0.789450 0.200972
H35   H     H_    0.945616 0.479910 0.680865 0.200394
H36   H     H_    0.928897 0.378396 0.748427 0.159980

loop_
_geom_bond_atom_site_label_1
_geom_bond_atom_site_label_2
_ccdc_geom_bond_type
O1    C5    A    
N3    H29   S    
C12   C32   A    
C27   C31   A    
O13   V1    S    
O3    C7    A    
N2    H25   S    
C40   C44   D    
O15   V3    S    
C46   H26   S    
C29   C34   A    
C31   C36   A    
C22   C26   A    
C32   C35   A    
O20   V1    S    
O9    C4    A    
C10   C14   A    
C40   H19   S    
O10   C3    A    
C48   H35   S    
O16   V4    S    
O4    C8    A    
O11   C2    A    
C22   N2    S    
O6    C2    A    
C14   H10   S    
H4    C19   S    
C14   C18   A    
O10   V2    S    
C10   C30   A    
C25   C33   A    
O16   C8    A    
C24   N4    S    
C9    H5    S    
O2    C6    A    
N4    H33   S    
C28   C36   A    
O14   V2    S    
C37   C41   D    
N1    C45   S    
O5    C1    A    
O4    V1    S    
O9    V1    S    
C30   C33   A    
O7    C3    A    
O11   V3    S    
O18   V3    S    
N3    C47   S    
O12   V4    S    
O19   V2    S    
H1    C18   S    
N4    C48   S    
C4    C34   S    
H3    C20   S    
H16   C43   S    
C39   H20   S    
C46   H27   S    
C41   C42   S    
O5    V1    S    
O7    V3    S    
O8    V4    S    
C10   H6    S    
C48   H36   S    
C45   H22   S    
C25   C29   A    
C19   C23   A    
C26   C34   A    
O1    V4    S    
O13   C5    A    
C28   C32   A    
C27   C35   A    
O2    V3    S    
O3    V2    S    
O15   C7    A    
C45   H23   S    
C38   C42   D    
C43   C44   S    
C1    C35   S    
C17   C21   A    
C11   C31   A    
C5    C39   S    
C3    C33   S    
C47   H31   S    
H2    C17   S    
C7    C37   S    
C2    C36   S    
C38   H17   S    
C8    C38   S    
O6    V2    S    
C37   H18   S    
H14   C41   S    
H13   C42   S    
C46   H28   S    
C13   H9    S    
C26   C30   A    
C15   H11   S    
O14   C6    A    
C11   H7    S    
C21   N1    S    
C11   C15   A    
N2    C46   S    
C23   N3    S    
C18   C22   A    
C6    C40   S    
C48   H34   S    
C45   H24   S    
C39   C43   D    
O17   V4    S    
C21   C25   A    
C16   H12   S    
C47   H32   S    
C23   C27   A    
C9    C13   A    
H15   C44   S    
C16   C20   A    
C12   C16   A    
O12   C1    A    
O8    C4    A    
C12   H8    S    
C47   H30   S    
C13   C17   A    
N1    H21   S    
C20   C24   A    
C15   C19   A    
C9    C29   A    
C24   C28   A    
