data_mof_unit_46367.cif
_audit_creation_date              2012-12-10T17:32:14-0500
_audit_creation_method            fapswitch 2.2
_symmetry_space_group_name_H-M    P1
_symmetry_Int_Tables_number       1
_space_group_crystal_system       triclinic
_cell_length_a                    15.450541
_cell_length_b                    15.458999
_cell_length_c                    15.61837
_cell_angle_alpha                 92.519543
_cell_angle_beta                  71.606938
_cell_angle_gamma                 111.478333
_cell_volume                      3283.21225932

loop_
_atom_site_label
_atom_site_type_symbol
_atom_type_description
_atom_site_fract_x
_atom_site_fract_y
_atom_site_fract_z
_atom_type_partial_charge
C1    C     C_R   0.463269 0.258269 0.463727 0.516766
C2    C     C_R   0.535163 0.501599 0.108333 -0.027695
C3    C     C_R   0.603690 0.666123 0.133033 -0.115049
C4    C     C_R   0.537300 0.742173 0.534514 0.551760
C5    C     C_R   0.444149 0.418728 0.831429 0.038006
C6    C     C_R   0.422538 0.033155 0.356263 0.263121
C7    C     C_R   0.451548 0.161751 0.450484 0.004649
C8    C     C_R   0.557088 0.866853 0.638438 -0.116883
C9    C     C_R   0.544206 0.948470 0.670646 -0.012312
C10   C     C_R   0.522892 0.002562 0.616697 -0.097006
C11   C     C_R   0.520714 0.979659 0.528386 -0.019740
C12   C     C_R   0.476401 0.306414 0.907703 -0.100881
C13   C     C_R   0.540683 0.900235 0.494206 -0.005022
C14   C     C_R   0.493793 0.030753 0.475054 -0.051349
C15   C     C_R   0.473406 0.994432 0.395017 0.027475
C16   C     C_R   0.756921 0.551239 0.462711 0.493772
C17   C     C_R   0.510730 0.926120 0.354805 0.300137
C18   C     C_R   0.551023 0.884689 0.402097 0.258602
C19   C     C_R   0.488268 0.117999 0.497962 -0.111314
C20   C     C_R   0.411707 0.116264 0.385267 -0.109705
C21   C     C_R   0.550310 0.839663 0.553076 0.035546
C22   C     C_R   0.016758 0.592506 0.325901 -0.113119
C23   C     C_R   0.516186 0.375094 0.959173 -0.147223
C24   C     C_R   0.861956 0.571580 0.441813 0.020860
C25   C     C_R   0.082563 0.419134 0.659126 -0.076833
C26   C     C_R   0.004710 0.449452 0.693307 -0.100361
C27   C     C_R   0.978311 0.495345 0.637115 0.221037
C28   C     C_R   0.242836 0.449892 0.537478 0.567925
C29   C     C_R   0.020008 0.498960 0.541283 0.006534
C30   C     C_R   0.101230 0.469416 0.505451 -0.002758
C31   C     C_R   0.986446 0.533109 0.479505 0.037535
C32   C     C_R   0.044236 0.552982 0.386871 -0.007102
C33   C     C_R   0.122989 0.523968 0.353448 -0.073129
C34   C     C_R   0.506190 0.462129 0.959599 -0.011811
C35   C     C_R   0.145613 0.475127 0.410052 0.244062
C36   C     C_R   0.892520 0.538123 0.504161 -0.075069
C37   C     C_R   0.926219 0.602922 0.352668 -0.009863
C38   C     C_R   0.137730 0.437739 0.565776 0.026679
C39   C     C_R   0.551578 0.550906 0.258882 0.535562
C40   C     C_R   0.450327 0.449035 0.741357 0.593426
C41   C     C_R   0.592006 0.691143 0.054435 -0.109943
C42   C     C_R   0.570769 0.572076 0.162901 0.021987
C43   C     C_R   0.438106 0.326399 0.845334 0.203831
C44   C     C_R   0.546192 0.974263 0.763209 0.036487
C45   C     C_R   0.472792 0.486199 0.892366 0.000246
C46   C     C_R   0.503961 0.905594 0.836345 -0.092732
C47   C     C_R   0.505461 0.930464 0.923200 -0.089344
C48   C     C_R   0.548592 0.023912 0.938262 -0.080201
C49   C     C_R   0.590545 0.092706 0.866438 -0.106011
C50   C     C_R   0.589528 0.068230 0.779382 -0.071402
C51   C     C_R   0.896544 0.638805 0.284369 0.043011
C52   C     C_R   0.898747 0.597144 0.202230 -0.078321
C53   C     C_R   0.870236 0.630723 0.138197 -0.097124
C54   C     C_R   0.840346 0.706577 0.155178 -0.097302
C55   C     C_R   0.838169 0.748508 0.236515 -0.094557
C56   C     C_R   0.533744 0.527684 0.022327 0.020277
C57   C     C_R   0.865498 0.714512 0.301245 -0.075176
C58   C     C_R   0.111827 0.379329 0.725013 0.032363
C59   C     C_R   0.149878 0.435219 0.787898 -0.082688
C60   C     C_R   0.178919 0.397747 0.848984 -0.092201
C61   C     C_R   0.170059 0.304466 0.847774 -0.069596
C62   C     C_R   0.131671 0.248321 0.785774 -0.068581
C63   C     C_R   0.102170 0.285382 0.724785 -0.056397
C64   C     C_R   0.477757 0.404443 0.149901 0.022246
C65   C     C_R   0.525166 0.348565 0.167759 -0.088723
C66   C     C_R   0.473346 0.253060 0.191138 -0.121576
C67   C     C_R   0.551772 0.622317 0.001978 0.003233
C68   C     C_R   0.373575 0.213470 0.199453 -0.106351
C69   C     C_R   0.324932 0.269488 0.186314 -0.074345
C70   C     C_R   0.376742 0.364643 0.161453 -0.038955
C71   C     C_R   0.520750 0.646259 0.934966 -0.072226
C72   C     C_R   0.473114 0.577992 0.886687 0.232066
Cl1   Cl    Cl    0.524748 0.902485 0.240181 -0.485955
Cl2   Cl    Cl    0.361475 0.977512 0.279216 -0.555972
Cl3   Cl    Cl    0.630279 0.828516 0.340100 -0.609994
Cl4   Cl    Cl    0.907962 0.561218 0.693761 -0.614277
Cl5   Cl    Cl    0.219848 0.411948 0.355468 -0.639516
Cl6   Cl    Cl    0.398490 0.236080 0.776964 -0.621589
Cl7   Cl    Cl    0.406813 0.610899 0.828926 -0.679665
H1    H     H_    0.629626 0.720328 0.175397 0.188636
H2    H     H_    0.609124 0.764100 0.037539 0.147389
H3    H     H_    0.556887 0.359652 0.996967 0.133053
H4    H     H_    0.480655 0.238513 0.912733 0.156504
H5    H     H_    0.374097 0.146893 0.355780 0.135946
H6    H     H_    0.468351 0.832911 0.826844 0.155391
H7    H     H_    0.472693 0.877224 0.978977 0.150947
H8    H     H_    0.549427 0.043018 0.005604 0.156125
H9    H     H_    0.624084 0.165101 0.878164 0.112421
H10   H     H_    0.623426 0.122648 0.724561 0.117994
H11   H     H_    0.921523 0.538132 0.188228 0.109120
H12   H     H_    0.517660 0.156017 0.548588 0.131086
H13   H     H_    0.871610 0.598116 0.075279 0.124764
H14   H     H_    0.819219 0.733058 0.105174 0.127488
H15   H     H_    0.815945 0.807782 0.249124 0.178033
H16   H     H_    0.863517 0.747732 0.363979 0.129064
H17   H     H_    0.157878 0.507819 0.788929 0.140046
H18   H     H_    0.208659 0.441068 0.897045 0.153906
H19   H     H_    0.193128 0.275774 0.894752 0.142780
H20   H     H_    0.124942 0.176119 0.784870 0.139720
H21   H     H_    0.072790 0.241368 0.676841 0.123872
H22   H     H_    0.603274 0.377712 0.157749 0.130427
H23   H     H_    0.568112 0.821926 0.681917 0.157036
H24   H     H_    0.511019 0.209454 0.201092 0.145598
H25   H     H_    0.333722 0.139331 0.216095 0.175041
H26   H     H_    0.247603 0.238814 0.193347 0.143933
H27   H     H_    0.339171 0.406766 0.147807 0.148599
H28   H     H_    0.503157 0.059505 0.647197 0.140197
H29   H     H_    0.161362 0.531442 0.281212 0.150183
H30   H     H_    0.063615 0.610676 0.255883 0.123586
H31   H     H_    0.525856 0.717283 0.925550 0.135808
H32   H     H_    0.837374 0.504756 0.567576 0.174836
H33   H     H_    0.969050 0.443827 0.765912 0.157542
O1    O     O_3   0.500000 0.500000 0.500000 -0.468355
O2    O     O_R   0.588830 0.499590 0.285390 -0.553432
O3    O     O_R   0.395900 0.395880 0.699370 -0.487148
O4    O     O_R   0.493280 0.582590 0.315890 -0.474585
O5    O     O_R   0.521980 0.521940 0.699340 -0.500891
O6    O     O_R   0.708210 0.582550 0.530770 -0.524523
O7    O     O_R   0.270260 0.395900 0.573760 -0.536546
O8    O     O_R   0.537060 0.322180 0.411040 -0.543474
O9    O     O_R   0.484470 0.699370 0.484430 -0.495366
O10   O     O_R   0.404710 0.279110 0.530840 -0.503994
O11   O     O_R   0.573760 0.699350 0.573690 -0.532430
O12   O     O_R   0.714470 0.499570 0.411000 -0.540381
O13   O     O_R   0.307050 0.521980 0.484470 -0.495030
Zn1   Zn    Zn3+2 0.574690 0.574670 0.574650 1.002113
Zn2   Zn    Zn3+2 0.583640 0.456100 0.403530 0.956485
Zn3   Zn    Zn3+2 0.447120 0.574690 0.447120 1.043494
Zn4   Zn    Zn3+2 0.394550 0.394550 0.574700 1.012733

loop_
_geom_bond_atom_site_label_1
_geom_bond_atom_site_label_2
_ccdc_geom_bond_type
C66   C68   A    
C3    C42   A    
C34   C56   A    
C18   Cl3   S    
C4    C21   S    
C23   H3    S    
C27   C29   A    
C52   H11   S    
C61   H19   S    
C65   H22   S    
O8    Zn2   S    
C41   C67   A    
O1    Zn3   S    
C53   C54   A    
C52   C53   A    
C43   Cl6   S    
C12   C23   A    
C26   C27   A    
C62   C63   A    
C22   C32   A    
C13   C18   A    
C72   Cl7   S    
C31   C36   A    
C37   C51   S    
C11   C14   A    
C40   O3    A    
C71   H31   S    
C30   C38   A    
C1    O10   A    
C54   H14   S    
C33   C35   A    
C6    C15   A    
C46   C47   A    
C47   C48   A    
C44   C46   A    
C8    C9    A    
O13   Zn3   S    
C6    Cl2   S    
C51   C57   A    
C64   C70   A    
O5    Zn1   S    
O10   Zn4   S    
C46   H6    S    
C39   O2    A    
C40   O5    A    
C5    C43   A    
C59   C60   A    
C16   C24   S    
C45   C72   A    
C17   Cl1   S    
C49   H9    S    
C10   H28   S    
C61   C62   A    
C33   H29   S    
C53   H13   S    
C55   H15   S    
C3    H1    S    
C14   C19   A    
C9    C10   A    
C2    C64   S    
C24   C37   A    
C39   C42   S    
C51   C52   A    
C47   H7    S    
O9    Zn3   S    
C60   H18   S    
C70   H27   S    
C69   H26   S    
C68   C69   A    
O11   Zn1   S    
O1    Zn1   S    
C63   H21   S    
C58   C59   A    
C22   C37   A    
C5    C45   A    
C35   Cl5   S    
C12   H4    S    
C60   C61   A    
C1    O8    A    
C29   C30   A    
C16   O6    A    
C25   C38   A    
C50   H10   S    
C31   C32   A    
C28   C38   S    
C23   C34   A    
C41   H2    S    
C36   H32   S    
C17   C18   A    
C48   H8    S    
C13   C21   A    
C34   C45   A    
C24   C36   A    
C7    C20   A    
O1    Zn4   S    
O12   Zn2   S    
C30   C35   A    
C48   C49   A    
C39   O4    A    
C7    C19   A    
C20   H5    S    
O4    Zn3   S    
C59   H17   S    
C27   Cl4   S    
C26   H33   S    
C28   O13   A    
C25   C58   S    
O3    Zn4   S    
C44   C50   A    
C58   C63   A    
C15   C17   A    
C54   C55   A    
C3    C41   A    
C9    C44   S    
C1    C7    S    
C66   H24   S    
C68   H25   S    
C28   O7    A    
C8    C21   A    
O1    Zn2   S    
C12   C43   A    
C56   C67   A    
C6    C20   A    
C22   H30   S    
C64   C65   A    
C55   C57   A    
C25   C26   A    
C71   C72   A    
C29   C31   A    
C2    C56   A    
C32   C33   A    
O2    Zn2   S    
C11   C13   A    
C2    C42   A    
O7    Zn4   S    
C4    O9    A    
C67   C71   A    
C65   C66   A    
C16   O12   A    
C69   C70   A    
C19   H12   S    
C10   C11   A    
C62   H20   S    
C4    O11   A    
C49   C50   A    
C57   H16   S    
C5    C40   S    
C14   C15   A    
O6    Zn1   S    
C8    H23   S    
