data_mof_unit_23469.cif
_audit_creation_date              2013-03-05T16:43:42-0500
_audit_creation_method            fapswitch 2.2
_symmetry_space_group_name_H-M    P1
_symmetry_Int_Tables_number       1
_space_group_crystal_system       triclinic
_cell_length_a                    15.751413
_cell_length_b                    10.683362
_cell_length_c                    9.855954
_cell_angle_alpha                 89.913233
_cell_angle_beta                  89.989933
_cell_angle_gamma                 90.094247
_cell_volume                      1658.53651942

loop_
_atom_site_label
_atom_site_type_symbol
_atom_site_description
_atom_site_fract_x
_atom_site_fract_y
_atom_site_fract_z
_atom_type_partial_charge
O1    O     O_R   0.500010 0.316790 0.614690 -0.624217
O2    O     O_R   0.500000 0.316760 0.385350 -0.606403
C1    C     C_R   0.502131 0.259962 0.500125 0.894078
O3    O     O_R   0.376780 0.500010 0.614650 -0.590561
O4    O     O_R   0.376770 0.499970 0.385310 -0.615032
C2    C     C_R   0.338028 0.499725 0.500011 0.944825
Zn1   Zn    Zn3+2 0.500010 0.500020 0.653130 0.991081
Zn2   Zn    Zn3+2 0.499990 0.499980 0.346870 0.993479
O5    O     O_R   0.500000 0.683240 0.614650 -0.616588
O6    O     O_R   0.499990 0.683210 0.385310 -0.630902
O7    O     O_R   0.623230 0.500030 0.614690 -0.621378
O8    O     O_R   0.623220 0.499990 0.385350 -0.603417
C3    C     C_R   0.502284 0.739988 0.499919 0.910457
C4    C     C_R   0.662019 0.500147 0.499997 0.877154
C5    C     C_3   0.971321 0.414476 0.589550 0.056563
C6    C     C_3   0.028580 0.382661 0.465998 -0.289142
H1    H     H_    0.052344 0.288593 0.437221 0.203900
C7    C     C_1   0.249426 0.498769 0.500189 -0.090932
C8    C     C_1   0.750706 0.500151 0.499867 -0.135246
C9    C     C_3   0.027068 0.528068 0.622793 0.350343
C10   C     C_3   0.083719 0.498057 0.501096 -0.007613
C11   C     C_3   0.971705 0.614849 0.534328 -0.299013
C12   C     C_3   0.916519 0.499454 0.499210 -0.004028
C13   C     C_3   0.028941 0.583029 0.410783 0.051616
C14   C     C_3   0.973217 0.469440 0.377524 0.347316
C15   C     C_1   0.174355 0.498106 0.500662 0.090920
C16   C     C_1   0.825821 0.499981 0.499505 0.064241
H2    H     H_    0.948008 0.708954 0.563095 0.189527
C17   C     C_R   0.512173 0.063678 0.623364 0.046322
C18   C     C_R   0.514542 0.128597 0.500917 -0.054989
C19   C     C_R   0.532343 0.064979 0.379781 -0.143891
H3    H     H_    0.540791 0.114170 0.284502 0.191109
C20   C     C_R   0.532383 0.935530 0.379647 -0.180536
H4    H     H_    0.540930 0.886738 0.284328 0.167949
C21   C     C_R   0.514430 0.871402 0.500588 -0.056864
C22   C     C_R   0.511616 0.936055 0.623066 -0.016310
C23   C     C_3   0.450646 0.929835 0.739995 0.162214
C24   C     C_3   0.451372 0.072242 0.739787 -0.470747
H5    H     H_    0.479021 0.887356 0.832647 0.112419
H6    H     H_    0.390094 0.116465 0.710855 0.231472
H7    H     H_    0.481858 0.112581 0.831611 0.201572
C25   C     C_R   0.458931 0.407616 0.071583 0.150217
N1    N     N_R   0.499430 0.499140 0.142800 -0.131818
C26   C     C_R   0.546654 0.584597 0.071837 -0.091014
H8    H     H_    0.582981 0.654429 0.126120 0.147393
C27   C     C_R   0.546686 0.584582 0.927805 -0.080973
H9    H     H_    0.583021 0.654409 0.873276 0.140073
N2    N     N_R   0.499430 0.499180 0.857150 -0.097791
C28   C     C_R   0.458581 0.407912 0.928782 0.151837
C29   C     C_3   0.365857 0.379138 0.922636 -0.518248
C30   C     C_3   0.366205 0.379147 0.077076 0.103365
H10   H     H_    0.328330 0.457430 0.878813 0.241471
H11   H     H_    0.352944 0.286413 0.876136 0.226195
H12   H     H_    0.327669 0.455445 0.122827 0.148868
N3    N     N_R   0.349141 0.255962 0.136341 0.250093
O9    O     O_R   0.391664 0.157691 0.098131 -0.400352
O10   O     O_R   0.292580 0.244898 0.231771 -0.352727
C31   C     C_3   0.938036 0.319897 0.692090 -0.733424
H13   H     H_    0.992187 0.273998 0.744086 0.262940
H14   H     H_    0.897923 0.368111 0.768351 0.269041
H15   H     H_    0.899510 0.247927 0.639157 0.227964
N4    N     N_R   0.944627 0.437753 0.241124 0.223298
O11   O     O_R   0.000083 0.412367 0.147419 -0.323402
O12   O     O_R   0.864125 0.434102 0.212214 -0.379702
C32   C     C_3   0.062348 0.677553 0.308267 -0.702581
H16   H     H_    0.008264 0.723489 0.256139 0.253321
H17   H     H_    0.100867 0.749502 0.361251 0.245142
H18   H     H_    0.102512 0.629279 0.232110 0.270237
N5    N     N_R   0.055832 0.559686 0.759140 0.229572
O13   O     O_R   0.000497 0.585140 0.852999 -0.332928
O14   O     O_R   0.136366 0.562970 0.787921 -0.353415
N6    N     N_R   0.367946 0.876449 0.703621 0.241531
O15   O     O_R   0.326693 0.915317 0.597086 -0.363874
O16   O     O_R   0.335676 0.787359 0.777593 -0.341055

loop_
_geom_bond_atom_site_label_1
_geom_bond_atom_site_label_2
_geom_bond_distance
_ccdc_geom_bond_type
C10   C15   1.427648 S    
C6    C10   1.546511 S    
C21   C22   1.392427 A    
C7    C15   1.182491 T    
Zn2   N1    2.011359 S    
N3    O9    1.302345 A    
Zn1   O7    1.977453 S    
C17   C22   1.363463 A    
C23   C24   1.521410 S    
C22   C23   1.501335 S    
C3    C21   1.416628 S    
O4    C2    1.284584 A    
O7    C4    1.284866 A    
C31   H14   1.109752 S    
C5    C6    1.553601 S    
N5    O14   1.300328 A    
O5    C3    1.282716 A    
N4    O12   1.300222 A    
C6    H1    1.110211 S    
C32   H17   1.109707 S    
C17   C24   1.497489 S    
C29   H10   1.111835 S    
C19   C20   1.382959 A    
C12   C16   1.428638 S    
C8    C16   1.183184 T    
C25   C30   1.492366 S    
C31   H15   1.109675 S    
C5    C12   1.537052 S    
C11   H2    1.110189 S    
O3    Zn1   1.977816 S    
C26   C27   1.419576 A    
C20   H4    1.083552 S    
C5    C9    1.532610 S    
C2    C7    1.395630 S    
C27   N2    1.367949 A    
C29   H11   1.110616 S    
C13   C14   1.532402 S    
C24   H7    1.111762 S    
N6    O16   1.300758 A    
C31   H13   1.109669 S    
O1    C1    1.283277 A    
C1    C18   1.417296 S    
N1    C26   1.368085 A    
C17   C18   1.391475 A    
C19   H3    1.083490 S    
Zn2   O8    1.977817 S    
C32   H18   1.109812 S    
N4    O11   1.300293 A    
C29   C30   1.522168 S    
C13   C32   1.520706 S    
O3    C2    1.284310 A    
N2    C28   1.363398 A    
O8    C4    1.284730 A    
C32   H16   1.109640 S    
N3    O10   1.300526 A    
C5    C31   1.520578 S    
C11   C13   1.553353 S    
C9    N5    1.458194 S    
C23   N6    1.465963 S    
C25   N1    1.362302 A    
C26   H8    1.081726 S    
C6    C14   1.542986 S    
Zn1   O5    1.993246 S    
C27   H9    1.081744 S    
O1    Zn1   1.994402 S    
C4    C8    1.396946 S    
O2    Zn2   1.993244 S    
C9    C11   1.542957 S    
N6    O15   1.302677 A    
O6    C3    1.283441 A    
O4    Zn2   1.977455 S    
C30   H12   1.113038 S    
Zn1   N2    2.010837 S    
O2    C1    1.283351 A    
C23   H5    1.113174 S    
C24   H6    1.112353 S    
C18   C19   1.403197 A    
C20   C21   1.402477 A    
C30   N3    1.463491 S    
C14   N4    1.457996 S    
C12   C14   1.529880 S    
N5    O13   1.300257 A    
C25   C28   1.407451 A    
C9    C10   1.529522 S    
Zn2   O6    1.994402 S    
C28   C29   1.493304 S    
C10   C13   1.536650 S    
C11   C12   1.546961 S    
