data_mof_unit_8492.cif
_audit_creation_date              2013-03-05T16:09:45-0500
_audit_creation_method            fapswitch 2.2
_symmetry_space_group_name_H-M    P1
_symmetry_Int_Tables_number       1
_space_group_crystal_system       triclinic
_cell_length_a                    12.893603
_cell_length_b                    10.718711
_cell_length_c                    9.830652
_cell_angle_alpha                 89.995084
_cell_angle_beta                  97.245858
_cell_angle_gamma                 90.112745
_cell_volume                      1347.77117384

loop_
_atom_site_label
_atom_site_type_symbol
_atom_site_description
_atom_site_fract_x
_atom_site_fract_y
_atom_site_fract_z
_atom_type_partial_charge
O1    O     O_R   0.499990 0.316750 0.614620 -0.630223
O2    O     O_R   0.500010 0.683250 0.385380 -0.630223
O3    O     O_R   0.499990 0.316780 0.385290 -0.624377
O4    O     O_R   0.500010 0.683220 0.614710 -0.624377
C1    C     C_R   0.499944 0.259845 0.499950 0.873670
C2    C     C_R   0.500056 0.740155 0.500050 0.873669
O5    O     O_R   0.346360 0.499970 0.595710 -0.618225
O6    O     O_R   0.653640 0.500030 0.404290 -0.618223
O7    O     O_R   0.346360 0.499990 0.366380 -0.622332
O8    O     O_R   0.653640 0.500010 0.633620 -0.622332
C3    C     C_R   0.298094 0.498914 0.473048 0.916116
C4    C     C_R   0.701906 0.501086 0.526952 0.916116
Zn1   Zn    Zn3+2 0.500000 0.499980 0.653120 0.970051
Zn2   Zn    Zn3+2 0.500000 0.500020 0.346880 0.970051
C5    C     C_R   0.814012 0.500673 0.543547 -0.143056
C6    C     C_R   0.185988 0.499325 0.456452 -0.143054
C7    C     C_R   0.021056 0.535354 0.317907 0.331241
C8    C     C_R   0.978943 0.464639 0.682090 0.331249
C9    C     C_R   0.129311 0.529788 0.330540 -0.226726
C10   C     C_R   0.870688 0.470205 0.669458 -0.226722
C11   C     C_R   0.136164 0.472332 0.570426 -0.197988
C12   C     C_R   0.863835 0.527666 0.429574 -0.197983
C13   C     C_R   0.029187 0.484493 0.564012 0.006689
C14   C     C_R   0.970813 0.515502 0.435986 0.006694
H1    H     H_    0.818200 0.557969 0.335550 0.202751
H2    H     H_    0.181800 0.442034 0.664452 0.202749
H3    H     H_    0.830995 0.451971 0.758272 0.212037
H4    H     H_    0.169005 0.548020 0.241726 0.212040
C15   C     C_R   0.480383 0.063850 0.375289 -0.174151
C16   C     C_R   0.519616 0.936150 0.624711 -0.174152
H5    H     H_    0.464453 0.112469 0.278265 0.160821
H6    H     H_    0.535547 0.887531 0.721735 0.160820
C17   C     C_R   0.480469 0.936044 0.375314 -0.177541
C18   C     C_R   0.519531 0.063956 0.624686 -0.177540
H7    H     H_    0.464615 0.887341 0.278301 0.164856
H8    H     H_    0.535385 0.112659 0.721699 0.164856
C19   C     C_R   0.500065 0.872584 0.500027 -0.018915
C20   C     C_R   0.499935 0.127416 0.499973 -0.018915
C21   C     C_R   0.569042 0.572568 0.083328 -0.035686
C22   C     C_R   0.430958 0.427432 0.916672 -0.035690
H9    H     H_    0.624199 0.630591 0.146997 0.138906
H10   H     H_    0.375801 0.369409 0.853003 0.138907
C23   C     C_R   0.569022 0.572513 0.939360 -0.048455
C24   C     C_R   0.430977 0.427487 0.060640 -0.048456
H11   H     H_    0.624154 0.630456 0.893780 0.140721
H12   H     H_    0.375845 0.369544 0.106220 0.140722
N1    N     N_R   0.499970 0.499970 0.857200 -0.093557
N2    N     N_R   0.500030 0.500030 0.142800 -0.093558
N3    N     N_R   0.964076 0.559546 0.185222 0.205738
O9    O     O_R   0.998215 0.643016 0.105533 -0.341214
O10   O     O_R   0.890676 0.483249 0.134138 -0.371165
N4    N     N_R   0.035924 0.440440 0.814773 0.205737
O11   O     O_R   0.001796 0.356950 0.894446 -0.341229
O12   O     O_R   0.109312 0.516746 0.865870 -0.371146

loop_
_geom_bond_atom_site_label_1
_geom_bond_atom_site_label_2
_geom_bond_distance
_ccdc_geom_bond_type
C15   C20   1.397038 A    
C22   N1    1.366211 A    
C16   H6    1.083719 S    
C13   C14   1.422305 A    
C6    C11   1.390158 A    
C10   H3    1.083843 S    
O7    C3    1.285146 A    
C3    C6    1.434048 S    
C8    C10   1.387023 A    
C4    C5    1.434047 S    
O6    C4    1.285363 A    
O7    Zn2   2.014149 S    
N3    O10   1.301458 A    
C22   H10   1.081832 S    
C2    C19   1.419471 S    
C8    N4    1.437825 S    
C15   H5    1.083718 S    
C1    C20   1.419471 S    
O5    C3    1.285362 A    
C9    H4    1.083842 S    
C23   H11   1.081840 S    
O2    C2    1.281696 A    
O3    Zn2   2.000034 S    
O8    C4    1.285146 A    
C6    C9    1.394808 A    
O1    C1    1.281695 A    
C17   H7    1.083672 S    
C11   H2    1.081478 S    
N4    O12   1.301452 A    
C18   H8    1.083672 S    
C11   C13   1.379231 A    
C5    C10   1.394807 A    
O2    Zn2   2.000154 S    
C12   C14   1.379233 A    
C7    C14   1.414740 A    
O1    Zn1   2.000154 S    
C16   C18   1.369912 A    
C8    C13   1.414738 A    
C15   C17   1.369912 A    
C22   C24   1.415274 A    
N4    O11   1.301240 A    
C21   H9    1.081832 S    
O4    C2    1.281802 A    
N3    O9    1.301248 A    
C7    N3    1.437830 S    
O4    Zn1   2.000034 S    
Zn1   N1    2.006288 S    
Zn2   N2    2.006288 S    
C21   C23   1.415274 A    
O5    Zn1   1.990165 S    
O6    Zn2   1.990164 S    
C7    C9    1.387026 A    
C18   C20   1.397143 A    
C23   N1    1.365886 A    
C12   H1    1.081478 S    
C5    C12   1.390159 A    
C17   C19   1.397143 A    
C24   N2    1.365885 A    
C16   C19   1.397038 A    
C24   H12   1.081840 S    
C21   N2    1.366211 A    
O3    C1    1.281801 A    
O8    Zn1   2.014148 S    
