data_mof_unit_54748.cif
_audit_creation_date              2013-03-05T15:43:02-0500
_audit_creation_method            fapswitch 2.2
_symmetry_space_group_name_H-M    P1
_symmetry_Int_Tables_number       1
_space_group_crystal_system       triclinic
_cell_length_a                    10.800775
_cell_length_b                    10.754024
_cell_length_c                    10.011171
_cell_angle_alpha                 91.62153
_cell_angle_beta                  104.641679
_cell_angle_gamma                 89.155363
_cell_volume                      1124.56853221

loop_
_atom_site_label
_atom_site_type_symbol
_atom_site_description
_atom_site_fract_x
_atom_site_fract_y
_atom_site_fract_z
_atom_type_partial_charge
O1    O     O_R   0.499980 0.319060 0.613030 -0.589761
O2    O     O_R   0.500020 0.319100 0.386910 -0.616657
C1    C     C_R   0.498648 0.263252 0.497476 0.964173
O3    O     O_R   0.317800 0.500000 0.570840 -0.580231
O4    O     O_R   0.317840 0.500040 0.344720 -0.559980
C2    C     C_R   0.259126 0.494854 0.441998 0.965247
Zn1   Zn    Zn3+2 0.499970 0.499970 0.650990 0.988534
Zn2   Zn    Zn3+2 0.500030 0.500030 0.349010 1.041994
O5    O     O_R   0.499980 0.680900 0.613090 -0.630096
O6    O     O_R   0.500020 0.680940 0.386970 -0.557503
O7    O     O_R   0.682160 0.499960 0.655280 -0.615839
O8    O     O_R   0.682200 0.500000 0.429160 -0.650131
C3    C     C_R   0.507749 0.738323 0.504325 0.818212
C4    C     C_R   0.742233 0.497225 0.558652 0.779162
H1    H     H_    0.877174 0.475678 0.380096 0.141562
C5    C     C_2   0.121927 0.485848 0.409215 -0.493278
C6    C     C_2   0.066671 0.430450 0.497508 0.406930
C7    C     C_2   0.880713 0.474867 0.592620 0.324909
C8    C     C_2   0.932569 0.457602 0.484700 -0.363917
H2    H     H_    0.066359 0.539698 0.323922 0.134314
C9    C     C_2   0.544860 0.934230 0.404834 0.406546
C10   C     C_2   0.536197 0.871104 0.517708 0.209861
C11   C     C_2   0.562563 0.068367 0.421625 -0.226140
C12   C     C_2   0.489289 0.133011 0.487443 -0.276552
H3    H     H_    0.629736 0.113800 0.374575 0.155905
H4    H     H_    0.417774 0.090726 0.529427 0.170318
C13   C     C_2   0.577306 0.567326 0.947470 -0.136907
N1    N     N_2   0.501330 0.501330 0.852460 -0.162527
H5    H     H_    0.639871 0.633173 0.917584 0.127903
H6    H     H_    0.458636 0.426138 0.883055 0.231390
C14   C     C_2   0.588538 0.551541 0.098826 -0.037635
N2    N     N_2   0.501370 0.501360 0.148130 -0.002845
H7    H     H_    0.676174 0.582739 0.170517 0.120073
N3    N     N_R   0.376341 0.505651 0.066031 0.294772
O9    O     O_R   0.300674 0.412923 0.066806 -0.373312
O10   O     O_R   0.326632 0.610958 0.016458 -0.429194
N4    N     N_R   0.134582 0.341405 0.594913 0.261722
O11   O     O_R   0.183158 0.374534 0.723305 -0.313154
O12   O     O_R   0.168305 0.235016 0.549344 -0.442891
O13   O     O_3   0.950704 0.446676 0.725474 -0.578579
C15   C     C_3   0.947448 0.543549 0.823575 0.146011
H8    H     H_    0.997071 0.507665 0.926491 0.203252
H9    H     H_    0.849738 0.568091 0.831384 0.127784
C16   C     C_3   0.018317 0.659801 0.799457 -0.375619
H10   H     H_    0.117157 0.633089 0.796199 0.289873
H11   H     H_    0.968989 0.700914 0.699198 0.193734
C17   C     C_3   0.022998 0.757231 0.914715 -0.904043
H12   H     H_    0.924514 0.783572 0.920171 0.255216
H13   H     H_    0.071719 0.842059 0.894357 0.275058
H14   H     H_    0.076430 0.720331 0.015721 0.282792
O14   O     O_3   0.536844 0.873526 0.277330 -0.636535
C18   C     C_3   0.472089 0.944875 0.163165 0.121755
H15   H     H_    0.483992 0.895852 0.067992 0.151863
H16   H     H_    0.516301 0.037456 0.162657 0.135765
C19   C     C_3   0.327721 0.955382 0.153014 -0.408918
H17   H     H_    0.281953 0.864368 0.117492 0.249474
H18   H     H_    0.310258 0.978944 0.255446 0.221302
C20   C     C_3   0.264705 0.056039 0.053151 -0.845568
H19   H     H_    0.302496 0.148807 0.094003 0.299741
H20   H     H_    0.159702 0.056167 0.041486 0.272367
H21   H     H_    0.283491 0.039381 0.950204 0.262754
O15   O     O_3   0.570228 0.933154 0.647377 -0.655435
C21   C     C_3   0.493868 0.907613 0.740125 0.121582
H22   H     H_    0.517967 0.978949 0.824919 0.139593
H23   H     H_    0.524783 0.819956 0.794812 0.177748
C22   C     C_3   0.347399 0.916747 0.677957 -0.420277
H24   H     H_    0.313880 0.012435 0.696443 0.245453
H25   H     H_    0.319408 0.898501 0.564797 0.206043
C23   C     C_3   0.275794 0.824643 0.742911 -0.875937
H26   H     H_    0.299415 0.727788 0.716352 0.299515
H27   H     H_    0.171451 0.839940 0.701825 0.262280
H28   H     H_    0.301081 0.837066 0.856853 0.274979

loop_
_geom_bond_atom_site_label_1
_geom_bond_atom_site_label_2
_geom_bond_distance
_ccdc_geom_bond_type
O4    Zn2   1.957377 S    
C22   H25   1.108743 S    
C11   C12   1.328631 D    
C14   H7    1.084388 S    
N4    O11   1.301149 A    
C10   O15   1.408019 S    
C2    C5    1.438598 S    
C15   H8    1.111285 S    
C4    C7    1.465414 S    
N3    O10   1.302392 A    
C14   N2    1.298551 D    
C16   C17   1.528205 S    
Zn2   O8    1.927966 S    
C5    H2    1.087822 S    
C21   H23   1.107857 S    
C18   H16   1.111233 S    
C19   H17   1.111082 S    
C19   H18   1.110413 S    
C22   H24   1.111895 S    
C21   C22   1.549453 S    
N4    O12   1.300753 A    
C6    N4    1.440988 S    
C9    C10   1.358404 D    
C18   H15   1.110755 S    
H1    C8    1.088002 S    
C15   H9    1.105369 S    
C1    C12   1.404671 S    
O15   C21   1.423395 S    
C23   H28   1.108409 S    
C20   H21   1.108887 S    
O3    Zn1   1.927966 S    
N1    H6    1.027971 S    
O13   C15   1.417585 S    
C6    C8    1.447525 S    
C18   C19   1.539423 S    
O8    C4    1.295588 A    
C3    C10   1.460361 S    
Zn1   O7    1.957376 S    
C17   H14   1.110836 S    
O2    C1    1.277628 A    
C23   H26   1.109710 S    
C9    C11   1.457330 S    
O4    C2    1.292284 A    
C15   C16   1.531620 S    
C22   C23   1.521623 S    
C13   H5    1.084382 S    
C20   H20   1.110344 S    
O14   C18   1.419113 S    
Zn2   N2    2.015208 S    
Zn1   O5    1.992892 S    
C9    O14   1.400590 S    
C11   H3    1.087752 S    
C16   H10   1.109637 S    
C17   H13   1.108845 S    
N3    O9    1.300022 A    
C19   C20   1.526429 S    
O7    C4    1.293357 A    
C23   H27   1.109214 S    
C7    O13   1.392876 S    
C7    C8    1.344230 D    
O5    C3    1.288322 A    
C16   H11   1.111123 S    
O1    C1    1.284989 A    
C20   H19   1.110699 S    
O1    Zn1   1.971701 S    
O3    C2    1.285366 A    
C13   C14   1.503510 S    
Zn2   O6    1.971701 S    
O2    Zn2   1.992891 S    
Zn1   N1    2.012929 S    
C17   H12   1.110998 S    
C5    C6    1.341401 D    
C12   H4    1.079528 S    
C21   H22   1.110947 S    
C13   N1    1.290802 D    
O6    C3    1.295753 A    
N2    N3    1.393009 S    
