data_mof_unit_8650.cif
_audit_creation_date              2012-12-11T20:52:56-0500
_audit_creation_method            fapswitch 2.2
_symmetry_space_group_name_H-M    P1
_symmetry_Int_Tables_number       1
_space_group_crystal_system       triclinic
_cell_length_a                    8.241595
_cell_length_b                    22.891163
_cell_length_c                    27.072894
_cell_angle_alpha                 96.503519
_cell_angle_beta                  92.393165
_cell_angle_gamma                 89.576478
_cell_volume                      5070.251943

loop_
_atom_site_label
_atom_site_type_symbol
_atom_type_description
_atom_site_fract_x
_atom_site_fract_y
_atom_site_fract_z
_atom_type_partial_charge
Ba1   Ba    Ba6+2 0.848110 0.472730 0.522970 1.693130
Ba2   Ba    Ba6+2 0.341700 0.527220 0.477020 1.677587
C1    C     C_3   0.686129 0.261625 0.673892 -0.280689
C2    C     C_R   0.002687 0.561685 0.186040 0.594805
C3    C     C_2   0.786765 0.548775 0.274223 -0.091667
C4    C     C_3   0.167156 0.311414 0.650131 0.789447
C5    C     C_3   0.762199 0.563796 0.329376 -0.085838
C6    C     C_1   0.981107 0.492806 0.343663 0.029261
C7    C     C_2   0.017376 0.486602 0.295868 -0.088578
C8    C     C_2   0.915049 0.515473 0.258317 0.228145
C9    C     C_R   0.035729 0.505088 0.104872 -0.079170
C10   C     C_R   0.994835 0.453938 0.126124 -0.035637
C11   C     C_R   0.991455 0.400090 0.095928 -0.057543
C12   C     C_3   0.615796 0.319184 0.659460 0.356222
C13   C     C_R   0.039925 0.559249 0.135271 -0.031382
C14   C     C_2   0.862106 0.526687 0.361854 -0.270235
C15   C     C_2   0.338794 0.483415 0.641636 -0.302810
C16   C     C_3   0.141419 0.288482 0.699820 0.280364
C17   C     C_R   0.109290 0.443914 0.971901 0.019873
C18   C     C_R   0.144249 0.551584 0.980533 0.019341
C19   C     C_R   0.144316 0.496322 0.950672 0.053944
C20   C     C_R   0.115164 0.389981 0.940713 -0.097813
C21   C     C_R   0.151335 0.387672 0.890737 -0.058285
C22   C     C_R   0.183458 0.438926 0.869160 -0.036874
C23   C     C_3   0.545301 0.610875 0.628597 0.323683
C24   C     C_R   0.179979 0.493402 0.898976 -0.080105
C25   C     C_R   0.212796 0.544885 0.877105 -0.048890
C26   C     C_R   0.247589 0.541243 0.825914 0.652689
C27   C     C_R   0.219069 0.436552 0.818273 0.613158
C28   C     C_3   0.157943 0.349136 0.414341 0.295815
C29   C     C_2   0.407816 0.451093 0.725508 -0.155008
C30   C     C_3   0.426165 0.439092 0.670026 -0.099192
C31   C     C_1   0.209210 0.511486 0.659649 -0.029008
C32   C     C_2   0.174062 0.514426 0.708285 0.382259
C33   C     C_2   0.281999 0.483820 0.743794 0.246978
C34   C     C_3   0.566719 0.622795 0.684891 -0.315122
C35   C     C_R   0.070261 0.446953 0.023226 0.019474
C36   C     C_R   0.072619 0.502108 0.053269 0.050828
C37   C     C_R   0.111382 0.554344 0.032318 0.019395
C38   C     C_R   0.028028 0.396570 0.045852 -0.098163
C39   C     C_R   0.081613 0.610046 0.114404 -0.060526
C40   C     C_3   0.156193 0.282890 0.400249 -0.351155
C41   C     C_R   0.176685 0.602403 0.957171 -0.095269
C42   C     C_R   0.210144 0.599014 0.906856 -0.053247
C43   C     C_R   0.116394 0.607781 0.064314 -0.099378
C44   C     C_R   0.362122 0.333853 0.517696 -0.304273
C45   C     C_3   0.003925 0.670233 0.354637 0.343451
C46   C     C_R   0.651551 0.946282 0.541632 -0.031375
C47   C     C_R   0.696437 0.886440 0.538659 0.608690
C48   C     C_R   0.700808 0.880787 0.449505 0.584559
C49   C     C_R   0.655366 0.940611 0.451150 -0.020867
C50   C     C_R   0.630765 0.973446 0.497566 -0.052539
C51   C     C_R   0.627269 0.979605 0.587677 -0.064189
C52   C     C_3   0.071126 0.657151 0.589936 0.304362
C53   C     C_R   0.583058 0.038802 0.590026 -0.075699
C54   C     C_R   0.561180 0.066486 0.546390 -0.025347
C55   C     C_R   0.585002 0.033688 0.499958 -0.051488
C56   C     C_3   0.957306 0.701673 0.309489 -0.326024
C57   C     C_R   0.633318 0.968341 0.407532 -0.074743
C58   C     C_R   0.587610 0.027491 0.409883 -0.073141
C59   C     C_R   0.562998 0.060849 0.455937 -0.024259
C60   C     C_R   0.516137 0.120633 0.458999 0.585628
C61   C     C_R   0.516326 0.126259 0.548197 0.590760
C62   C     C_2   0.915161 0.774175 0.477134 -0.028240
C63   C     C_3   0.966006 0.711685 0.484075 -0.001223
C64   C     C_3   0.118142 0.720450 0.610847 0.610117
C65   C     C_1   0.693635 0.693481 0.507004 0.030354
C66   C     C_2   0.649412 0.749338 0.507419 -0.080174
C67   C     C_3   0.511734 0.679115 0.346437 0.344188
C68   C     C_2   0.765497 0.792940 0.491114 0.227649
C69   C     C_R   0.302170 0.233516 0.530717 -0.058585
C70   C     C_R   0.259922 0.293216 0.535070 -0.010073
C71   C     C_R   0.499172 0.315192 0.491972 0.038394
C72   C     C_R   0.542887 0.255446 0.487378 -0.082825
C73   C     C_R   0.446445 0.214196 0.507726 0.212778
C74   C     C_2   0.819856 0.672342 0.482602 -0.282444
C75   C     C_3   0.656825 0.402518 0.373764 0.292336
C76   C     C_3   0.655480 0.388327 0.317485 -0.330633
C77   C     C_3   0.449946 0.729417 0.318542 -0.342713
C78   C     C_R   0.956612 0.457745 0.177041 0.594128
H1    H     H_    0.576572 0.312659 0.619339 0.029418
H2    H     H_    0.787763 0.246733 0.649971 0.155563
H3    H     H_    0.738989 0.351023 0.307236 0.134767
H4    H     H_    0.695464 0.427042 0.300077 0.082003
H5    H     H_    0.530680 0.376390 0.302932 0.135460
H6    H     H_    0.509172 0.329566 0.682682 -0.032781
H7    H     H_    0.590430 0.227370 0.669137 0.119714
H8    H     H_    0.414323 0.604365 0.618656 0.007742
H9    H     H_    0.613655 0.570035 0.616726 0.051472
H10   H     H_    0.500000 0.663288 0.698635 0.148611
H11   H     H_    0.518794 0.585252 0.702427 0.068060
H12   H     H_    0.232183 0.271078 0.367656 0.143492
H13   H     H_    0.697615 0.628373 0.695770 0.129773
H14   H     H_    0.729244 0.267064 0.713516 0.118263
H15   H     H_    0.256108 0.293444 0.723045 0.032636
H16   H     H_    0.056551 0.626600 0.341740 0.073603
H17   H     H_    0.892380 0.664791 0.375233 -0.080797
H18   H     H_    0.064413 0.705749 0.286644 0.149490
H19   H     H_    0.862261 0.676446 0.286114 0.106723
H20   H     H_    0.909104 0.746190 0.321671 0.126339
H21   H     H_    0.644358 0.676969 0.342069 -0.066048
H22   H     H_    0.486739 0.689048 0.386513 0.079237
H23   H     H_    0.205032 0.260093 0.431638 0.063045
H24   H     H_    0.515502 0.770447 0.332987 0.112440
H25   H     H_    0.318632 0.736657 0.323636 0.152008
H26   H     H_    0.192424 0.359248 0.656668 -0.046065
H27   H     H_    0.471375 0.719389 0.278230 0.114348
H28   H     H_    0.123247 0.461285 0.283702 0.105647
H29   H     H_    0.959778 0.359971 0.110959 0.123579
H30   H     H_    0.486553 0.428268 0.750208 0.108211
H31   H     H_    0.153777 0.345015 0.868855 0.112484
H32   H     H_    0.093736 0.348119 0.953698 0.068035
H33   H     H_    0.020196 0.353254 0.025848 0.069695
H34   H     H_    0.029805 0.267728 0.390804 0.128675
H35   H     H_    0.712310 0.570815 0.247915 0.087444
H36   H     H_    0.087203 0.652331 0.136887 0.119664
H37   H     H_    0.175847 0.646105 0.976538 0.070195
H38   H     H_    0.273183 0.287486 0.633553 -0.558147
H39   H     H_    0.233912 0.639492 0.891232 0.124093
H40   H     H_    0.148279 0.649144 0.052088 0.069864
H41   H     H_    0.848368 0.535263 0.401693 0.079625
H42   H     H_    0.380087 0.488958 0.604889 0.075083
H43   H     H_    0.571697 0.047064 0.375396 0.124929
H44   H     H_    0.651077 0.944316 0.371325 0.121043
H45   H     H_    0.944254 0.656579 0.574917 -0.079963
H46   H     H_    0.565730 0.062844 0.626255 0.119634
H47   H     H_    0.222933 0.202206 0.544693 0.094201
H48   H     H_    0.642516 0.959995 0.622167 0.129472
H49   H     H_    0.530940 0.763863 0.520029 0.103938
H50   H     H_    0.003653 0.805094 0.466891 0.090982
H51   H     H_    0.650709 0.241034 0.467899 0.110700
H52   H     H_    0.328434 0.379857 0.520949 0.073874
H53   H     H_    0.811071 0.631604 0.457892 0.053172
H54   H     H_    0.109381 0.240991 0.693337 0.011851
H55   H     H_    0.284384 0.363528 0.423074 0.006791
H56   H     H_    0.151406 0.640568 0.559981 0.051040
H57   H     H_    0.083315 0.359741 0.447398 0.058703
H58   H     H_    0.235290 0.745774 0.556393 0.324051
H59   H     H_    0.239369 0.714232 0.673293 0.297104
H60   H     H_    0.997619 0.572074 0.705186 0.324968
H61   H     H_    0.002998 0.302402 0.755593 0.310146
H62   H     H_    0.019398 0.739079 0.634879 0.064365
H63   H     H_    0.782092 0.412774 0.387723 0.003718
H64   H     H_    0.577776 0.441198 0.383139 0.087718
N1    N     N_R   0.959076 0.511399 0.206321 -0.424943
N2    N     N_R   0.248832 0.487413 0.796808 -0.412573
N3    N     N_R   0.720609 0.854512 0.492988 -0.432130
N4    N     N_R   0.493922 0.152718 0.504824 -0.427659
O1    O     O_2   0.919820 0.530450 0.618560 -0.443884
O2    O     O_2   0.298257 0.702064 0.463855 -0.493426
O3    O     O_3   0.119933 0.703662 0.384360 -0.596735
O4    O     O_3   0.151800 0.530410 0.558380 -0.491659
O5    O     O_3   0.542410 0.431140 0.474010 -0.492150
O6    O     O_2   0.406930 0.639920 0.526240 -0.475398
O7    O     O_3   0.603801 0.659030 0.606825 -0.602157
O8    O     O_2   0.454444 0.512100 0.325321 -0.484361
O9    O     O_3   0.435274 0.626343 0.326603 -0.570778
O10   O     O_2   0.919466 0.413380 0.195099 -0.593059
O11   O     O_2   0.222924 0.388963 0.792971 -0.594320
O12   O     O_3   0.600589 0.353616 0.394467 -0.629222
O13   O     O_2   0.010222 0.608691 0.212333 -0.613777
O14   O     O_2   0.278580 0.585975 0.807464 -0.573582
O15   O     O_2   0.715349 0.862769 0.576776 -0.564185
O16   O     O_3   0.654050 0.426350 0.586890 -0.472871
O17   O     O_2   0.721434 0.851936 0.409422 -0.607418
O18   O     O_2   0.493327 0.143958 0.420858 -0.594576
O19   O     O_2   0.498337 0.154974 0.588482 -0.605529
O20   O     O_2   0.750464 0.479518 0.675925 -0.441264
O21   O     O_3   0.081335 0.623274 0.629646 -0.674803
O22   O     O_3   0.732142 0.364282 0.668582 -0.523365
O23   O     O_3   0.026843 0.301264 0.619315 -0.586746
O24   O     O_2   0.782760 0.360070 0.473730 -0.458857
O25   O     O_3   0.056430 0.397060 0.562000 -0.475537
O26   O     O_2   0.923443 0.293671 0.527037 -0.488069
O27   O     O_3   0.131948 0.756421 0.572747 -0.740248
O28   O     O_3   0.265799 0.720879 0.638926 -0.703858
O29   O     O_3   0.042080 0.545030 0.728270 -0.682139
O30   O     O_3   0.016925 0.320269 0.724309 -0.677038
O31   O     O_2   0.269870 0.469530 0.381410 -0.451684
O32   O     O_3   0.037890 0.469550 0.441610 -0.496275
O33   O     O_3   0.535640 0.573600 0.413100 -0.475560
O34   O     O_3   0.095167 0.376067 0.373848 -0.627941
O35   O     O_3   0.647280 0.568810 0.525990 -0.476500
O36   O     O_3   0.133260 0.602900 0.438000 -0.480100
P1    P     P_3+3 0.092730 0.547450 0.611370 0.988608
P2    P     P_3+3 0.606840 0.368620 0.459370 0.997459
P3    P     P_3+3 0.066988 0.320395 0.560389 0.995308
P4    P     P_3+3 0.096970 0.452510 0.388620 0.993005
P5    P     P_3+3 0.129148 0.679992 0.443519 0.969485
P6    P     P_3+3 0.641382 0.428757 0.651377 1.011213
P7    P     P_3+3 0.592556 0.642132 0.542034 0.991418
P8    P     P_3+3 0.546201 0.568044 0.348035 0.963428

loop_
_geom_bond_atom_site_label_1
_geom_bond_atom_site_label_2
_ccdc_geom_bond_type
C48   N3    Am   
C53   C54   A    
O1    P1    D    
C23   O7    S    
C71   C72   A    
C56   H18   S    
O12   P2    S    
C19   C24   A    
C64   O28   S    
C40   H23   S    
C71   P2    S    
Ba1   O35   S    
C26   O14   D    
C27   O11   D    
Ba1   P2    S    
C6    P4    S    
C7    H28   S    
Ba1   O25   S    
C24   C25   A    
C63   C74   S    
Ba2   O32   S    
C17   C19   A    
C22   C24   A    
Ba1   Ba2   S    
C35   C38   A    
C44   H52   S    
C36   C37   A    
O33   P8    S    
C65   P7    S    
O5    P2    S    
O20   P6    D    
C54   C55   A    
C47   N3    Am   
Ba1   O4    S    
O2    P5    D    
C32   C33   S    
C22   C27   A    
C11   C38   A    
C11   H29   S    
O32   P4    S    
C9    C13   A    
C76   H3    S    
C40   H34   S    
C29   C30   S    
Ba1   O16   S    
O24   P2    D    
C6    C7    D    
C67   O9    S    
C21   C22   A    
Ba1   O1    S    
C62   C68   D    
C17   C35   A    
C7    C8    S    
C44   C70   A    
C12   O22   S    
C37   C43   A    
C61   O19   D    
C57   C58   A    
Ba2   O6    S    
C28   H57   S    
C60   N4    Am   
C72   H51   S    
C3    H35   S    
C16   H15   S    
C28   O34   S    
C52   O21   S    
C69   H47   S    
H59   O28   S    
C59   C60   A    
C15   C31   D    
C48   O17   D    
O16   P6    S    
C34   H13   S    
C3    C8    D    
H60   O29   S    
C4    O23   S    
C51   C53   A    
Ba2   O4    S    
C46   C51   A    
C4    C16   S    
C52   H45   S    
O36   P5    S    
C72   C73   A    
C1    H7    S    
C65   C66   D    
C17   C20   A    
C56   H20   S    
C13   C39   A    
C27   N2    Am   
C3    C5    S    
C18   C37   A    
C67   H22   S    
O34   P4    S    
O31   P4    D    
C75   O12   S    
C42   H39   S    
C75   C76   S    
C76   H5    S    
C23   H8    S    
C49   C50   A    
C58   C59   A    
C33   N2    S    
C9    C36   A    
C41   C42   A    
C75   H63   S    
C70   P3    S    
C35   C36   A    
C51   H48   S    
O26   P3    D    
C78   O10   D    
C38   H33   S    
C53   H46   S    
O3    P5    S    
C45   H16   S    
C52   H56   S    
C1    H2    S    
C48   C49   A    
C4    H26   S    
C54   C61   A    
C30   P6    S    
Ba2   O36   S    
C77   H24   S    
C18   C19   A    
Ba1   O5    S    
C12   H6    S    
C1    C12   S    
O7    P7    S    
C41   H37   S    
C64   H62   S    
O8    P8    D    
C43   H40   S    
C66   C68   S    
C78   N1    Am   
C60   O18   D    
C63   P5    S    
Ba2   O5    S    
C20   H32   S    
C74   H53   S    
C29   C33   D    
C64   O27   S    
C67   C77   S    
C49   C57   A    
Ba2   O31   S    
C39   H36   S    
C61   N4    Am   
C25   C26   A    
C18   C41   A    
C34   H11   S    
C8    N1    S    
C34   H10   S    
C57   H44   S    
O9    P8    S    
C14   H41   S    
O25   P3    S    
C77   H27   S    
C23   H9    S    
C5    C14   S    
C56   H19   S    
C62   H50   S    
O4    P1    S    
O35   P7    S    
C9    C10   A    
C55   C59   A    
C52   C64   S    
Ba1   P1    S    
C73   N4    S    
C21   H31   S    
O22   P6    S    
Ba1   O24   S    
C26   N2    Am   
C45   H17   S    
O23   P3    S    
C62   C63   S    
C2    C13   A    
C75   H64   S    
O21   P1    S    
H61   O30   S    
C45   C56   S    
C69   C73   A    
C46   C47   A    
C2    N1    Am   
C10   C78   A    
Ba1   O32   S    
C29   H30   S    
C31   C32   D    
C16   H54   S    
C1    H14   S    
C40   H12   S    
Ba2   O35   S    
C2    O13   D    
C66   H49   S    
C5    P8    S    
Ba2   P4    S    
C47   O15   D    
C50   C55   A    
C45   O3    S    
C23   C34   S    
C76   H4    S    
C15   H42   S    
C46   C50   A    
C58   H43   S    
C69   C70   A    
C10   C11   A    
C16   O30   S    
C77   H25   S    
C6    C14   D    
C28   H55   S    
H58   O27   S    
C15   C30   S    
C39   C43   A    
C20   C21   A    
C28   C40   S    
C32   O29   S    
C31   P1    S    
C68   N3    S    
C12   H1    S    
C25   C42   A    
Ba2   O33   S    
C44   C71   A    
C65   C74   D    
C4    H38   S    
C67   H21   S    
O6    P7    D    
