data_mof_unit_53367.cif
_audit_creation_date              2012-12-11T15:48:48-0500
_audit_creation_method            fapswitch 2.2
_symmetry_space_group_name_H-M    P1
_symmetry_Int_Tables_number       1
_space_group_crystal_system       triclinic
_cell_length_a                    10.88114
_cell_length_b                    11.015911
_cell_length_c                    18.804578
_cell_angle_alpha                 90.425053
_cell_angle_beta                  89.975446
_cell_angle_gamma                 60.41041
_cell_volume                      1959.98848022

loop_
_atom_site_label
_atom_site_type_symbol
_atom_type_description
_atom_site_fract_x
_atom_site_fract_y
_atom_site_fract_z
_atom_type_partial_charge
Br1   Br    Br    0.429630 0.104497 0.669010 -0.610686
Br2   Br    Br    0.421524 0.370254 0.139525 -0.550961
C1    C     C_R   0.239444 0.645748 0.610403 0.528174
C2    C     C_R   0.573375 0.138803 0.710103 0.094493
C3    C     C_R   0.572592 0.147801 0.783253 -0.151501
C4    C     C_R   0.629954 0.590106 0.608995 0.550133
C5    C     C_3   0.942110 0.057482 0.782509 -0.207888
C6    C     C_3   0.936303 0.062403 0.701984 -0.040551
C7    C     C_R   0.673260 0.157202 0.670673 0.011267
C8    C     C_R   0.180840 0.667892 0.835186 0.011967
C9    C     C_R   0.149080 0.580737 0.794199 0.010101
C10   C     C_R   0.156718 0.579542 0.720323 -0.029206
C11   C     C_R   0.219506 0.760008 0.726354 -0.171055
C12   C     C_3   0.638919 0.555922 0.812099 -0.237995
C13   C     C_R   0.219245 0.756035 0.800261 -0.183351
C14   C     C_3   0.222114 0.425553 0.796954 -0.262994
C15   C     C_3   0.227891 0.425420 0.716720 -0.229227
C16   C     C_R   0.630268 0.223934 0.601394 0.554299
C17   C     C_R   0.194505 0.667026 0.685010 -0.000726
C18   C     C_R   0.660380 0.677969 0.170703 0.021449
C19   C     C_R   0.745615 0.550324 0.202987 0.018297
C20   C     C_R   0.746054 0.536936 0.275202 0.015994
C21   C     C_R   0.589435 0.783997 0.289109 -0.170062
C22   C     C_R   0.586490 0.796979 0.214683 -0.172082
C23   C     C_3   0.691198 0.663027 0.815984 0.042371
C24   C     C_3   0.753740 0.413126 0.189337 -0.261337
C25   C     C_3   0.752589 0.398370 0.269245 -0.240225
C26   C     C_R   0.663519 0.651128 0.319532 0.020216
C27   C     C_R   0.690761 0.063775 0.186704 0.036048
C28   C     C_R   0.221835 0.649303 0.401552 0.542379
C29   C     C_R   0.560345 0.114667 0.219825 0.010523
C30   C     C_R   0.543193 0.152595 0.289946 -0.009022
C31   C     C_R   0.790780 0.079545 0.300318 -0.164622
C32   C     C_R   0.809046 0.035036 0.228966 -0.158906
C33   C     C_3   0.416764 0.229856 0.200042 0.040782
C34   C     C_3   0.652669 0.619121 0.683531 0.031680
C35   C     C_3   0.397272 0.271623 0.277900 -0.220265
C36   C     C_R   0.654282 0.148283 0.329449 0.019948
C37   C     C_R   0.146632 0.668656 0.182442 0.066029
C38   C     C_R   0.227957 0.720753 0.212555 0.047777
C39   C     C_R   0.239715 0.721418 0.284413 0.039042
C40   C     C_R   0.643409 0.621933 0.392420 0.551597
C41   C     C_R   0.117066 0.591320 0.298756 -0.181155
C42   C     C_R   0.099217 0.594661 0.225158 -0.136455
C43   C     C_3   0.226341 0.857310 0.205753 -0.279097
C44   C     C_3   0.231207 0.860753 0.286103 -0.268717
C45   C     C_3   0.810562 0.573846 0.696524 -0.227970
C46   C     C_R   0.178971 0.664586 0.328867 0.012967
C47   C     C_R   0.702556 0.099168 0.894858 0.561797
C48   C     C_R   0.720885 0.685915 0.889650 0.543227
C49   C     C_R   0.119151 0.705944 0.906130 0.549860
C50   C     C_R   0.702925 0.039146 0.110535 0.582529
C51   C     C_R   0.695612 0.691532 0.097836 0.539803
C52   C     C_R   0.618280 0.225690 0.395971 0.539549
C53   C     C_R   0.090336 0.710894 0.112882 0.566358
C54   C     C_3   0.579036 0.800727 0.781411 -0.225525
C55   C     C_3   0.565652 0.775853 0.702228 -0.209869
C56   C     C_3   0.608967 0.536309 0.733912 -0.252947
C57   C     C_3   0.830701 0.607306 0.772740 -0.230394
C58   C     C_R   0.683981 0.148896 0.821236 -0.026066
C59   C     C_R   0.788352 0.157309 0.781995 -0.045745
C60   C     C_R   0.781482 0.164752 0.707528 -0.020840
Cr1   Cr    Cr6+3 0.392960 0.397920 0.502240 1.042816
Cr2   Cr    Cr6+3 0.398340 0.708480 0.501250 1.034299
Cr3   Cr    Cr6+3 0.708670 0.393570 0.496460 1.003126
Cr4   Cr    Cr6+3 0.937650 0.938540 0.007610 1.010953
Cr5   Cr    Cr6+3 0.625330 0.937370 0.994520 1.019618
Cr6   Cr    Cr6+3 0.937940 0.625230 0.001190 1.029370
H1    H     H_    0.610843 0.881792 0.786949 0.157802
H2    H     H_    0.474857 0.840143 0.808291 0.135240
H3    H     H_    0.238379 0.829849 0.829804 0.137991
H4    H     H_    0.154064 0.385369 0.818279 0.142707
H5    H     H_    0.327054 0.382023 0.822730 0.146525
H6    H     H_    0.336446 0.382894 0.695593 0.205726
H7    H     H_    0.160936 0.387857 0.690735 0.171642
H8    H     H_    0.529109 0.875677 0.322149 0.124486
H9    H     H_    0.526541 0.899129 0.191455 0.126096
H10   H     H_    0.855641 0.336393 0.164179 0.147217
H11   H     H_    0.657813 0.423872 0.162818 0.197497
H12   H     H_    0.669012 0.424813 0.719652 0.130812
H13   H     H_    0.654656 0.401799 0.289062 0.162137
H14   H     H_    0.452701 0.819335 0.688824 0.171790
H15   H     H_    0.853270 0.312262 0.290226 0.141591
H16   H     H_    0.879980 0.068707 0.330709 0.115999
H17   H     H_    0.912895 0.987142 0.205675 0.130703
H18   H     H_    0.345690 0.190510 0.181572 0.128406
H19   H     H_    0.390535 0.373990 0.288822 0.181318
H20   H     H_    0.315276 0.255721 0.304693 0.116652
H21   H     H_    0.079689 0.535925 0.331755 0.130551
H22   H     H_    0.039900 0.548597 0.202666 0.151489
H23   H     H_    0.915920 0.510125 0.796465 0.143306
H24   H     H_    0.128531 0.945267 0.184248 0.148511
H25   H     H_    0.609125 0.830035 0.669992 0.186290
H26   H     H_    0.324047 0.843444 0.179839 0.149497
H27   H     H_    0.327496 0.856044 0.307688 0.162166
H28   H     H_    0.131295 0.942917 0.310540 0.128175
H29   H     H_    0.865159 0.687101 0.772933 0.124870
H30   H     H_    0.846541 0.628325 0.659323 0.138927
H31   H     H_    0.720300 0.454081 0.834046 0.137889
H32   H     H_    0.540969 0.592762 0.844414 0.123194
H33   H     H_    0.495516 0.569522 0.727216 0.121979
H34   H     H_    0.878403 0.459851 0.687075 0.134455
H35   H     H_    0.990899 0.142000 0.617570 0.255068
H36   H     H_    0.988057 0.219317 0.695521 0.235910
H37   H     H_    0.489491 0.138631 0.810027 0.173509
H38   H     H_    0.962510 0.956004 0.804067 0.150086
H39   H     H_    0.003328 0.102838 0.807303 0.151078
H40   H     H_    0.959114 0.962511 0.675796 0.157396
H41   H     H_    0.244632 0.833333 0.701816 0.176285
N1    N     N_3   0.017388 0.122989 0.671338 -0.605214
O1    O     O_R   0.507380 0.255700 0.581440 -0.462123
O2    O     O_R   0.837170 0.593410 0.915250 -0.524135
O3    O     O_R   0.065200 0.635530 0.931570 -0.488364
O4    O     O_R   0.280320 0.527350 0.578930 -0.500278
O5    O     O_R   0.068260 0.828890 0.091840 -0.548285
O6    O     O_R   0.798870 0.057410 0.079340 -0.496194
O7    O     O_R   0.584930 0.080350 0.076780 -0.469142
O8    O     O_R   0.626960 0.809650 0.067060 -0.530161
O9    O     O_R   0.816040 0.596610 0.076510 -0.513069
O10   O     O_R   0.045610 0.638500 0.081060 -0.490449
O11   O     O_3   0.833640 0.833710 0.001100 -0.287278
O12   O     O_R   0.524480 0.695810 0.424040 -0.497862
O13   O     O_R   0.260510 0.739590 0.584590 -0.522889
O14   O     O_R   0.532300 0.695080 0.573820 -0.491411
O15   O     O_R   0.744840 0.503500 0.576370 -0.523438
O16   O     O_R   0.699120 0.276560 0.571960 -0.527837
O17   O     O_R   0.498940 0.256500 0.419860 -0.511452
O18   O     O_R   0.272500 0.528080 0.429150 -0.506470
O19   O     O_R   0.252060 0.740380 0.423010 -0.517583
O20   O     O_R   0.736390 0.504290 0.414790 -0.515469
O21   O     O_R   0.691300 0.277290 0.422170 -0.513809
O22   O     O_3   0.499990 0.499990 0.499980 -0.276113
O23   O     O_R   0.089400 0.825690 0.930570 -0.529723
O24   O     O_R   0.818460 0.054440 0.929850 -0.492859
O25   O     O_R   0.606060 0.077150 0.915510 -0.522903
O26   O     O_R   0.646550 0.806680 0.917570 -0.511849

loop_
_geom_bond_atom_site_label_1
_geom_bond_atom_site_label_2
_ccdc_geom_bond_type
Br2   C33   S    
C47   O24   A    
C35   H20   S    
C14   H4    S    
C23   C54   S    
C4    O14   A    
C21   H8    S    
C19   C24   S    
Cr3   O20   S    
C12   H31   S    
C3    H37   S    
C43   C44   S    
C52   O21   A    
C24   C25   S    
C24   H10   S    
C45   H30   S    
Cr4   O6    S    
H35   N1    S    
C28   C46   S    
C33   C35   S    
C34   C56   S    
C8    C13   A    
Cr6   O9    S    
C33   H18   S    
C8    C49   S    
Cr5   O11   S    
C54   C55   S    
C34   C45   S    
Cr6   O2    S    
C43   H24   S    
C23   C48   S    
C5    C59   S    
C11   H41   S    
Cr4   O24   S    
Cr1   O4    S    
C37   C53   S    
C44   H27   S    
C18   C22   A    
C4    C34   S    
C14   C15   S    
C10   C15   S    
C21   C22   A    
C1    C17   S    
C30   C36   A    
C41   C46   A    
Cr1   O18   S    
C56   H12   S    
Cr6   O3    S    
C50   O7    A    
C47   O25   A    
C45   H34   S    
C55   H25   S    
C19   C20   A    
C43   H26   S    
C6    H40   S    
Cr3   O21   S    
C1    O13   A    
C53   O10   A    
C50   O6    A    
C38   C43   S    
C12   C56   S    
C28   O18   A    
C5    H38   S    
Cr4   O5    S    
C11   C17   A    
C7    C60   A    
Cr2   O22   S    
C25   H13   S    
C16   O1    A    
C34   C55   S    
C37   C38   A    
C51   O8    A    
C2    C3    A    
Cr2   O14   S    
C27   C32   A    
C14   H5    S    
C58   C59   A    
C32   H17   S    
Cr3   O15   S    
Cr5   O25   S    
C41   C42   A    
C6    N1    S    
Cr4   O23   S    
Cr5   O7    S    
C9    C14   S    
C7    C16   S    
C29   C30   A    
C36   C52   S    
C39   C44   S    
C48   O2    A    
C31   C32   A    
Cr4   O11   S    
C40   O20   A    
C56   H33   S    
C57   H23   S    
C30   C35   S    
Cr2   O19   S    
C47   C58   S    
C38   C39   A    
Cr5   O8    S    
C54   H2    S    
C20   C25   S    
C11   C13   A    
C15   H6    S    
C57   H29   S    
C5    H39   S    
C21   C26   A    
Cr2   O13   S    
Cr3   O22   S    
C42   H22   S    
C40   O12   A    
C3    C58   A    
C49   O3    A    
C35   H19   S    
C31   C36   A    
C4    O15   A    
C18   C51   S    
C1    O4    A    
Cr6   O11   S    
C9    C10   A    
C51   O9    A    
C12   H32   S    
C37   C42   A    
C28   O19   A    
C13   H3    S    
C52   O17   A    
C24   H11   S    
Br1   C2    S    
Cr3   O16   S    
C25   H15   S    
Cr5   O26   S    
C27   C29   A    
C48   O26   A    
C16   O16   A    
H36   N1    S    
C49   O23   A    
C53   O5    A    
Cr2   O12   S    
C10   C17   A    
C26   C40   S    
C39   C46   A    
Cr1   O22   S    
C29   C33   S    
C41   H21   S    
C12   C23   S    
Cr1   O1    S    
C59   C60   A    
C31   H16   S    
Cr1   O17   S    
C5    C6    S    
C8    C9    A    
C45   C57   S    
C22   H9    S    
C44   H28   S    
C18   C19   A    
C54   H1    S    
C15   H7    S    
C55   H14   S    
C20   C26   A    
C23   C57   S    
C2    C7    A    
Cr6   O10   S    
C6    C60   S    
C27   C50   S    
