data_mof_unit_41397.cif
_audit_creation_date              2012-12-11T16:56:18-0500
_audit_creation_method            fapswitch 2.2
_symmetry_space_group_name_H-M    P1
_symmetry_Int_Tables_number       1
_space_group_crystal_system       triclinic
_cell_length_a                    6.959505
_cell_length_b                    14.537928
_cell_length_c                    16.195114
_cell_angle_alpha                 90.442122
_cell_angle_beta                  89.99334
_cell_angle_gamma                 90.036319
_cell_volume                      1638.52040575

loop_
_atom_site_label
_atom_site_type_symbol
_atom_type_description
_atom_site_fract_x
_atom_site_fract_y
_atom_site_fract_z
_atom_type_partial_charge
O1    O     O_R   0.505830 0.583360 0.413880 -0.545795
O2    O     O_R   0.175830 0.595460 0.585520 -0.544038
O3    O     O_R   0.005520 0.416640 0.586120 -0.540531
C1    C     C_R   0.344674 0.617402 0.614455 0.692847
O4    O     O_R   0.176120 0.594390 0.414490 -0.534412
O5    O     O_R   0.005810 0.415570 0.413870 -0.536968
C2    C     C_R   0.345030 0.616101 0.385790 0.697064
O6    O     O_R   0.505540 0.584430 0.586130 -0.537200
O7    O     O_3   0.339200 0.441330 0.500000 -0.368227
V1    V     V_3+5 0.064350 0.510880 0.500000 1.394968
O8    O     O_R   0.676100 0.404540 0.414480 -0.542008
C3    C     C_R   0.845161 0.382323 0.385909 0.685750
O9    O     O_R   0.675810 0.405610 0.585510 -0.538912
C4    C     C_R   0.844987 0.383762 0.613677 0.746170
V2    V     V_3+5 0.564340 0.489120 0.500000 1.390133
O10   O     O_3   0.839360 0.558670 0.500000 -0.375119
C5    C     C_2   0.721050 0.208984 0.786144 -0.132477
C6    C     C_2   0.885708 0.181794 0.822605 -0.314659
H1    H     H_    0.585543 0.180330 0.807097 0.136598
H2    H     H_    0.022892 0.209758 0.803754 0.127711
C7    C     C_2   0.708622 0.277476 0.718187 -0.137609
C8    C     C_2   0.861498 0.315555 0.680529 -0.312752
H3    H     H_    0.565060 0.296493 0.698349 0.135005
H4    H     H_    0.006187 0.297220 0.698522 0.129424
C9    C     C_R   0.727742 0.181265 0.242882 0.096838
C10   C     C_R   0.882463 0.180557 0.187485 -0.111414
C11   C     C_R   0.033984 0.242542 0.203115 -0.180583
H5    H     H_    0.156592 0.244489 0.162261 0.134710
C12   C     C_R   0.022562 0.307162 0.268214 -0.172223
H6    H     H_    0.137355 0.356676 0.275734 0.132804
C13   C     C_R   0.858993 0.311927 0.319469 -0.108402
C14   C     C_R   0.716020 0.245460 0.307085 0.102509
C15   C     C_3   0.505483 0.257918 0.294995 -0.408774
C16   C     C_3   0.518089 0.187566 0.225376 -0.398381
H7    H     H_    0.469962 0.328268 0.273404 0.167040
H8    H     H_    0.420763 0.233534 0.348747 0.175637
H9    H     H_    0.489000 0.216864 0.163427 0.172098
H10   H     H_    0.441434 0.122316 0.239029 0.166332
C17   C     C_R   0.507683 0.681614 0.741387 0.105950
C18   C     C_R   0.353078 0.682130 0.685871 -0.113293
C19   C     C_R   0.201435 0.743487 0.703072 -0.181077
H11   H     H_    0.078741 0.746357 0.662344 0.132249
C20   C     C_R   0.212706 0.806340 0.769714 -0.176075
H12   H     H_    0.097777 0.855492 0.778295 0.127752
C21   C     C_R   0.376282 0.810084 0.821133 -0.112359
C22   C     C_R   0.519328 0.744082 0.807073 0.103784
C23   C     C_3   0.729892 0.756881 0.795379 -0.410951
C24   C     C_3   0.717376 0.688486 0.724168 -0.399191
H13   H     H_    0.814365 0.730992 0.848598 0.177314
H14   H     H_    0.765600 0.827829 0.775413 0.166437
H15   H     H_    0.793907 0.622883 0.736363 0.170463
H16   H     H_    0.746611 0.719522 0.662919 0.168378
C25   C     C_R   0.506612 0.680367 0.259268 0.051255
C26   C     C_R   0.353421 0.681150 0.315586 -0.126688
C27   C     C_R   0.202787 0.743570 0.300658 -0.123766
H17   H     H_    0.081162 0.746571 0.342033 0.126552
C28   C     C_R   0.213597 0.807189 0.235530 -0.177159
H18   H     H_    0.099185 0.856810 0.228519 0.121201
C29   C     C_R   0.376301 0.811040 0.183740 -0.105940
C30   C     C_R   0.518560 0.744393 0.195582 0.052415
C31   C     C_3   0.729824 0.756523 0.205996 -0.381920
C32   C     C_3   0.717985 0.686455 0.275211 0.037537
H19   H     H_    0.766500 0.826830 0.228324 0.135107
H20   H     H_    0.811427 0.732874 0.150750 0.185004
H21   H     H_    0.753282 0.714457 0.337480 0.125610
O11   O     O_R   0.229930 0.912420 0.917160 -0.539350
O12   O     O_R   0.559420 0.902500 0.088780 -0.539645
O13   O     O_R   0.729660 0.081330 0.089380 -0.537278
C33   C     C_R   0.390315 0.880823 0.117518 0.699481
O14   O     O_R   0.559650 0.901420 0.917750 -0.539419
O15   O     O_R   0.729880 0.080250 0.917130 -0.537264
C34   C     C_R   0.390545 0.879579 0.888705 0.697152
O16   O     O_R   0.229700 0.913500 0.089410 -0.539051
O17   O     O_3   0.396250 0.055540 0.003280 -0.371750
V3    V     V_3+5 0.671130 0.986010 0.003260 1.397436
O18   O     O_R   0.059600 0.091310 0.917720 -0.545235
C35   C     C_R   0.890932 0.113200 0.889554 0.741146
O19   O     O_R   0.059370 0.092380 0.088750 -0.544574
C36   C     C_R   0.890583 0.114591 0.117310 0.693022
V4    V     V_3+5 0.171120 0.007820 0.003230 1.389524
O20   O     O_3   0.896130 0.938240 0.003240 -0.369445
N1    N     N_3   0.819814 0.600949 0.255397 -0.642633
H22   H     H_    0.765725 0.572022 0.200744 0.228732
H23   H     H_    0.791804 0.554199 0.302528 0.237412

loop_
_geom_bond_atom_site_label_1
_geom_bond_atom_site_label_2
_ccdc_geom_bond_type
C27   H17   S    
C11   C12   A    
C16   H9    S    
C19   H11   S    
C1    O6    A    
C23   H13   S    
C21   C22   A    
O13   V3    S    
C10   C11   A    
O5    C3    A    
C15   H7    S    
O19   V4    S    
C28   C29   A    
V2    O10   S    
C15   H8    S    
C31   H19   S    
O1    C2    A    
C22   C23   S    
O8    V2    S    
C24   H15   S    
O11   C34   A    
C13   C14   A    
C33   O16   A    
O1    V2    S    
O7    V1    S    
C9    C16   S    
C9    C14   A    
C32   N1    S    
C29   C30   A    
O17   V4    S    
C7    C8    D    
C21   C34   S    
C19   C20   A    
C25   C30   A    
C5    C6    D    
C23   H14   S    
C7    H3    S    
O17   V3    S    
C1    C18   S    
O18   C35   A    
C17   C18   A    
O4    C2    A    
O19   C36   A    
V3    O20   S    
C9    C10   A    
C25   C26   A    
C5    C7    S    
C30   C31   S    
O12   C33   A    
C31   H20   S    
O2    C1    A    
C20   H12   S    
C12   H6    S    
C25   C32   S    
C23   C24   S    
C15   C16   S    
C20   C21   A    
O3    C4    A    
C29   C33   S    
C17   C22   A    
C18   C19   A    
O6    V2    S    
N1    H23   S    
O9    V2    S    
C3    C13   S    
C8    H4    S    
O12   V3    S    
O2    V1    S    
O15   C35   A    
C26   C27   A    
C32   H21   S    
C16   H10   S    
O18   V4    S    
V4    O20   S    
O5    V1    S    
O8    C3    A    
O11   V4    S    
C10   C36   S    
C14   C15   S    
C4    C8    S    
C27   C28   A    
O7    V2    S    
O4    V1    S    
C12   C13   A    
O3    V1    S    
V1    O10   S    
O15   V3    S    
C28   H18   S    
O13   C36   A    
C6    C35   S    
C5    H1    S    
O16   V4    S    
C6    H2    S    
C31   C32   S    
C24   H16   S    
N1    H22   S    
O14   V3    S    
O14   C34   A    
C2    C26   S    
O9    C4    A    
C17   C24   S    
C11   H5    S    
