data_mof_unit_55230.cif
_audit_creation_date              2012-12-10T16:57:14-0500
_audit_creation_method            fapswitch 2.2
_symmetry_space_group_name_H-M    P1
_symmetry_Int_Tables_number       1
_space_group_crystal_system       triclinic
_cell_length_a                    15.87809
_cell_length_b                    10.895932
_cell_length_c                    9.747792
_cell_angle_alpha                 89.000721
_cell_angle_beta                  89.201777
_cell_angle_gamma                 91.589691
_cell_volume                      1685.35147464

loop_
_atom_site_label
_atom_site_type_symbol
_atom_type_description
_atom_site_fract_x
_atom_site_fract_y
_atom_site_fract_z
_atom_type_partial_charge
C1    C     C_R   0.494720 0.265226 0.501236 0.776345
C2    C     C_3   0.947821 0.443872 0.626019 -0.137684
C3    C     C_3   0.917078 0.514393 0.494901 0.099238
C4    C     C_3   0.954166 0.649696 0.490525 0.180328
C5    C     C_3   0.053089 0.651101 0.510542 -0.226670
C6    C     C_1   0.824503 0.513941 0.493584 0.027190
C7    C     C_1   0.175942 0.506250 0.503029 -0.062481
C8    C     C_1   0.251197 0.501143 0.503924 -0.194157
C9    C     C_2   0.489378 0.933817 0.392760 -0.213729
C10   C     C_2   0.520479 0.866611 0.495772 0.301246
C11   C     C_2   0.497056 0.067713 0.392812 -0.173108
C12   C     C_R   0.340489 0.498903 0.501163 0.826726
C13   C     C_2   0.476698 0.133296 0.504035 -0.090838
C14   C     C_2   0.456405 0.420850 0.925008 0.617038
C15   C     C_2   0.470952 0.409104 0.078913 0.059030
C16   C     C_R   0.505015 0.734427 0.498795 0.713981
C17   C     C_R   0.659555 0.502566 0.498858 0.814001
C18   C     C_3   0.046351 0.438213 0.623224 0.168564
C19   C     C_3   0.049495 0.449635 0.363883 -0.228053
C20   C     C_3   0.950506 0.449906 0.362823 -0.275126
C21   C     C_1   0.749024 0.509342 0.495698 -0.163016
C22   C     C_3   0.084094 0.514517 0.496836 0.119466
Cu1   Cu    Cu3+1 0.500020 0.500020 0.638630 1.017332
Cu2   Cu    Cu3+1 0.499980 0.499980 0.361370 0.965424
H1    H     H_    0.925708 0.347304 0.614771 0.092699
H2    H     H_    0.941631 0.689994 0.387607 0.130198
H3    H     H_    0.457261 0.890920 0.307519 0.124195
H4    H     H_    0.523440 0.112223 0.300673 0.148201
H5    H     H_    0.455673 0.321488 0.128919 0.033239
H6    H     H_    0.062536 0.339858 0.609787 0.076019
H7    H     H_    0.068113 0.352727 0.375071 0.128679
H8    H     H_    0.931036 0.508883 0.275803 0.138371
H9    H     H_    0.066006 0.674552 0.618587 0.170552
N1    N     N_2   0.499090 0.498660 0.846910 0.001695
N2    N     N_2   0.499070 0.498630 0.153040 -0.002068
O1    O     O_R   0.500010 0.321960 0.617040 -0.553076
O2    O     O_R   0.499990 0.321920 0.382900 -0.605317
O3    O     O_R   0.379450 0.500030 0.617120 -0.534006
O4    O     O_R   0.379420 0.499980 0.382980 -0.572782
O5    O     O_R   0.500010 0.678080 0.617100 -0.584072
O6    O     O_R   0.499990 0.678040 0.382960 -0.605242
O7    O     O_R   0.620580 0.500020 0.617020 -0.579822
O8    O     O_R   0.620550 0.499970 0.382880 -0.579084
O9    O     O_3   0.081502 0.476847 0.747470 -0.750420
H10   H     H_    0.133075 0.429238 0.762779 0.336767
C23   C     C_R   0.904851 0.482808 0.760637 0.230241
C24   C     C_R   0.931788 0.585476 0.836427 0.023958
C25   C     C_R   0.884684 0.624938 0.948692 -0.194742
C26   C     C_R   0.810256 0.562500 0.988139 -0.125982
C27   C     C_R   0.783787 0.458455 0.917539 -0.098249
C28   C     C_R   0.830720 0.418498 0.805392 -0.192561
H11   H     H_    0.988124 0.637661 0.808770 0.141508
H12   H     H_    0.905531 0.705100 0.004267 0.121410
H13   H     H_    0.773480 0.594065 0.074284 0.139913
H14   H     H_    0.726400 0.409191 0.948991 0.157298
H15   H     H_    0.807358 0.339279 0.750475 0.127220
O10   O     O_3   0.569743 0.922185 0.594515 -0.731637
H16   H     H_    0.591355 0.858101 0.657135 0.326002
C29   C     C_R   0.426582 0.078817 0.622141 0.173695
C30   C     C_R   0.456924 0.084594 0.756821 0.002568
C31   C     C_R   0.409834 0.031881 0.866141 -0.164425
C32   C     C_R   0.331999 0.973691 0.842232 -0.106605
C33   C     C_R   0.301056 0.968110 0.708917 -0.128068
C34   C     C_R   0.347941 0.020595 0.599364 -0.177752
H17   H     H_    0.517570 0.127972 0.776952 0.137911
H18   H     H_    0.433744 0.036119 0.969463 0.115577
H19   H     H_    0.295682 0.932936 0.926996 0.121987
H20   H     H_    0.240738 0.923100 0.690364 0.137279
H21   H     H_    0.323093 0.015849 0.496688 0.136225
O11   O     O_3   0.396869 0.345829 0.864304 -0.760155
H22   H     H_    0.370603 0.291517 0.936430 0.269311
O12   O     O_3   0.572087 0.540976 0.898734 -0.648986
H23   H     H_    0.595283 0.600727 0.829715 0.367953
O13   O     O_3   0.489123 0.610754 0.096911 -0.609588
H24   H     H_    0.525413 0.666973 0.149808 0.365719
C35   C     C_R   0.091419 0.493056 0.228152 0.147049
C36   C     C_R   0.161551 0.429807 0.178143 -0.160246
C37   C     C_R   0.206054 0.472185 0.061265 -0.122380
C38   C     C_R   0.181131 0.577573 0.991455 -0.066723
C39   C     C_R   0.110572 0.639450 0.036791 -0.116902
C40   C     C_R   0.065630 0.597564 0.153610 -0.123621
H25   H     H_    0.183575 0.349307 0.231992 0.113526
H26   H     H_    0.260550 0.423967 0.025790 0.139012
H27   H     H_    0.216260 0.610963 0.901754 0.144490
H28   H     H_    0.091573 0.721629 0.982937 0.114518
H29   H     H_    0.014093 0.651839 0.188552 0.103595
C41   C     C_R   0.907852 0.323929 0.335493 0.153723
C42   C     C_R   0.838460 0.318642 0.246875 -0.130273
C43   C     C_R   0.796655 0.207359 0.219950 -0.133200
C44   C     C_R   0.822978 0.098927 0.281710 -0.096345
C45   C     C_R   0.890832 0.101908 0.370978 -0.125598
C46   C     C_R   0.932968 0.213107 0.398083 -0.164533
H30   H     H_    0.815197 0.401552 0.200902 0.124292
H31   H     H_    0.743342 0.205502 0.151919 0.125654
H32   H     H_    0.790392 0.012739 0.261291 0.131962
H33   H     H_    0.910466 0.017836 0.420000 0.141954
H34   H     H_    0.984276 0.211029 0.469221 0.091214
C47   C     C_R   0.099369 0.758976 0.431185 0.081904
C48   C     C_R   0.074125 0.880298 0.455975 -0.172208
C49   C     C_R   0.115813 0.982067 0.394190 -0.127376
C50   C     C_R   0.184280 0.966226 0.306474 -0.133584
C51   C     C_R   0.211843 0.848578 0.281741 -0.159750
C52   C     C_R   0.170739 0.746553 0.343901 -0.092163
H35   H     H_    0.022792 0.898707 0.524883 0.122214
H36   H     H_    0.095457 0.073734 0.415499 0.117458
H37   H     H_    0.216508 0.045151 0.258849 0.116814
H38   H     H_    0.265562 0.836069 0.214264 0.133691
H39   H     H_    0.195935 0.659675 0.318634 0.158557
O14   O     O_3   0.909304 0.721734 0.584330 -0.736827
H40   H     H_    0.948258 0.769651 0.642027 0.307305

loop_
_geom_bond_atom_site_label_1
_geom_bond_atom_site_label_2
_ccdc_geom_bond_type
C41   C42   A    
N2    O13   S    
C50   C51   A    
C2    C18   S    
C19   C20   S    
C4    O14   S    
C3    C6    S    
C19   H7    S    
O10   H16   S    
C7    C8    T    
C36   C37   A    
C2    C23   S    
C29   C34   A    
C39   H28   S    
Cu1   O7    S    
C32   H19   S    
C36   H25   S    
C19   C35   S    
C38   H27   S    
C26   H13   S    
C47   C48   A    
C20   C41   S    
Cu2   O4    S    
C28   H15   S    
C23   C24   A    
C43   H31   S    
C17   O7    A    
C45   H33   S    
C33   H20   S    
C31   H18   S    
C5    C22   S    
C24   C25   A    
C5    H9    S    
Cu1   O5    S    
Cu1   Cu2   S    
C52   H39   S    
C18   H6    S    
C9    C10   D    
C40   H29   S    
C1    O2    A    
C48   H35   S    
C29   C30   A    
C41   C46   A    
Cu2   O6    S    
C14   O11   S    
C31   C32   A    
C37   H26   S    
C15   N2    D    
C46   H34   S    
C15   H5    S    
C25   H12   S    
Cu2   N2    S    
O13   H24   S    
C51   H38   S    
C19   C22   S    
C35   C36   A    
Cu2   O2    S    
C45   C46   A    
C37   C38   A    
C39   C40   A    
C6    C21   T    
C23   C28   A    
C17   C21   S    
C38   C39   A    
C30   C31   A    
C17   O8    A    
C32   C33   A    
C18   O9    S    
C48   C49   A    
C8    C12   S    
Cu1   N1    S    
C10   O10   S    
C27   C28   A    
C49   H36   S    
C3    C20   S    
C34   H21   S    
C5    C47   S    
C9    C11   S    
O11   H22   S    
C16   O5    A    
C25   C26   A    
C30   H17   S    
C26   C27   A    
C1    C13   S    
C3    C4    S    
C7    C22   S    
N1    O12   S    
O9    H10   S    
C9    H3    S    
C20   H8    S    
C50   H37   S    
C42   H30   S    
C18   C22   S    
O12   H23   S    
C44   H32   S    
C35   C40   A    
C14   N1    D    
C4    H2    S    
C24   H11   S    
C13   C29   S    
Cu1   O3    S    
C27   H14   S    
C12   O4    A    
C2    C3    S    
C10   C16   S    
O14   H40   S    
C11   C13   D    
C44   C45   A    
C11   H4    S    
C49   C50   A    
C2    H1    S    
C12   O3    A    
C51   C52   A    
C33   C34   A    
C4    C5    S    
C42   C43   A    
Cu1   O1    S    
Cu2   O8    S    
C14   C15   S    
C43   C44   A    
C16   O6    A    
C47   C52   A    
C1    O1    A    
