data_mof_unit_61031.cif
_audit_creation_date              2013-03-05T16:36:56-0500
_audit_creation_method            fapswitch 2.2
_symmetry_space_group_name_H-M    P1
_symmetry_Int_Tables_number       1
_space_group_crystal_system       triclinic
_cell_length_a                    18.692663
_cell_length_b                    18.532066
_cell_length_c                    14.933008
_cell_angle_alpha                 89.817096
_cell_angle_beta                  91.205036
_cell_angle_gamma                 90.493988
_cell_volume                      5171.63828018

loop_
_atom_site_label
_atom_site_type_symbol
_atom_site_description
_atom_site_fract_x
_atom_site_fract_y
_atom_site_fract_z
_atom_type_partial_charge
O1    O     O_R   0.398180 0.560840 0.499980 -0.579695
O2    O     O_R   0.601820 0.439160 0.500020 -0.573383
O3    O     O_R   0.601820 0.560840 0.500020 -0.573912
O4    O     O_R   0.398180 0.439160 0.499980 -0.568381
C1    C     C_R   0.364242 0.499878 0.504324 1.019722
C2    C     C_R   0.635267 0.500770 0.493974 1.005774
O5    O     O_R   0.499980 0.560820 0.367840 -0.584988
O6    O     O_R   0.500020 0.439180 0.632160 -0.578299
O7    O     O_R   0.500020 0.560820 0.632160 -0.580362
O8    O     O_R   0.499980 0.439180 0.367840 -0.574878
C3    C     C_R   0.500608 0.499956 0.327086 0.996442
C4    C     C_R   0.499715 0.499851 0.672813 1.007930
Zn1   Zn    Zn3+2 0.500000 0.581210 0.500000 1.141269
Zn2   Zn    Zn3+2 0.500000 0.418790 0.500000 1.142805
C5    C     C_R   0.567944 0.500496 0.812867 0.368170
C6    C     C_R   0.439583 0.520596 0.184982 0.370820
C7    C     C_R   0.501792 0.499802 0.768077 -0.213851
C8    C     C_R   0.501379 0.499997 0.231555 -0.199439
C9    C     C_R   0.437624 0.503125 0.813008 0.350447
C10   C     C_R   0.563951 0.480307 0.188908 0.363353
C11   C     C_R   0.439697 0.518290 0.904575 -0.074285
C12   C     C_R   0.568311 0.489571 0.095678 -0.068507
C13   C     C_R   0.505027 0.507956 0.952885 -0.033123
C14   C     C_R   0.505117 0.508982 0.046792 -0.036986
C15   C     C_R   0.569515 0.495009 0.906842 -0.082525
C16   C     C_R   0.441220 0.527470 0.091527 -0.077501
C17   C     C_R   0.379370 0.545100 0.948300 0.225341
C18   C     C_R   0.632772 0.478290 0.049469 0.238258
C19   C     C_R   0.381174 0.552361 0.041348 0.225889
C20   C     C_R   0.632913 0.479208 0.955949 0.219367
C21   C     C_R   0.761398 0.455341 0.495060 0.199591
C22   C     C_R   0.250385 0.566776 0.529714 0.224218
C23   C     C_R   0.242620 0.439338 0.491788 0.208968
C24   C     C_R   0.728751 0.557188 0.398560 0.214224
C25   C     C_R   0.832380 0.462291 0.467890 0.356048
C26   C     C_R   0.176750 0.571886 0.513655 0.357852
C27   C     C_R   0.169631 0.448326 0.469960 0.358810
C28   C     C_R   0.798404 0.560021 0.366558 0.411266
C29   C     C_R   0.850992 0.515388 0.404623 -0.101971
C30   C     C_R   0.141805 0.518760 0.461052 -0.106081
C31   C     C_R   0.709709 0.504580 0.463602 -0.357821
C32   C     C_R   0.285363 0.501424 0.509207 -0.347065
C33   C     C_R   0.960328 0.592417 0.421325 0.344021
C34   C     C_R   0.042615 0.482696 0.349275 0.351049
C35   C     C_R   0.034704 0.597250 0.421433 0.353828
C36   C     C_R   0.967793 0.479046 0.340952 0.378241
C37   C     C_R   0.073935 0.533860 0.408473 -0.151854
C38   C     C_R   0.926816 0.529575 0.387208 -0.162078
C39   C     C_R   0.536703 0.726575 0.565914 0.294186
C40   C     C_R   0.471408 0.273072 0.428071 0.286132
C41   C     C_R   0.463358 0.726278 0.434044 0.287110
C42   C     C_R   0.527734 0.272928 0.572178 0.284110
C43   C     C_R   0.536573 0.803032 0.568069 0.170929
C44   C     C_R   0.470438 0.196561 0.426827 0.169631
C45   C     C_R   0.463124 0.802724 0.432151 0.172219
C46   C     C_R   0.528715 0.196456 0.573064 0.170291
C47   C     C_R   0.499737 0.841751 0.500179 -0.077590
C48   C     C_R   0.499691 0.157701 0.499790 -0.079485
N1    N     N_R   0.500000 0.689440 0.500000 -0.221185
N2    N     N_R   0.500000 0.310560 0.500000 -0.219198
C49   C     C_R   0.437727 0.961107 0.523340 0.352269
C50   C     C_R   0.561715 0.038517 0.476933 0.356258
C51   C     C_R   0.561644 0.962291 0.476581 0.354240
C52   C     C_R   0.437580 0.037336 0.522604 0.357197
C53   C     C_R   0.499638 0.076583 0.499693 -0.126935
C54   C     C_R   0.499716 0.922953 0.500100 -0.124676
Cl1   Cl    Cl    0.645868 0.514267 0.748511 -0.371497
Cl2   Cl    Cl    0.358569 0.523282 0.245600 -0.405523
Cl3   Cl    Cl    0.360224 0.913241 0.555668 -0.286983
Cl4   Cl    Cl    0.639683 0.086659 0.447008 -0.296564
Cl5   Cl    Cl    0.639154 0.915924 0.444318 -0.289510
Cl6   Cl    Cl    0.359575 0.083994 0.552336 -0.290441
Cl7   Cl    Cl    0.356729 0.480642 0.754715 -0.411699
Cl8   Cl    Cl    0.630947 0.435403 0.254268 -0.460931
N3    N     N_R   0.321214 0.576661 0.898073 0.263690
O9    O     O_R   0.332733 0.632355 0.846937 -0.220973
O10   O     O_R   0.257110 0.549078 0.901885 -0.184819
N4    N     N_R   0.700065 0.470175 0.096056 0.266581
O11   O     O_R   0.730085 0.525784 0.134776 -0.222516
O12   O     O_R   0.735605 0.410379 0.089769 -0.194324
N5    N     N_R   0.326535 0.594185 0.082273 0.263559
O13   O     O_R   0.260457 0.571528 0.081742 -0.191483
O14   O     O_R   0.342939 0.655642 0.119625 -0.202869
N6    N     N_R   0.696926 0.457821 0.912324 0.269408
O15   O     O_R   0.699684 0.394877 0.874218 -0.191041
O16   O     O_R   0.754805 0.497052 0.919916 -0.188865
N7    N     N_R   0.743184 0.400446 0.558155 0.270561
O17   O     O_R   0.732126 0.334844 0.530063 -0.220544
O18   O     O_R   0.754781 0.411874 0.643122 -0.181126
N8    N     N_R   0.287590 0.626520 0.571507 0.272478
O19   O     O_R   0.329583 0.616174 0.640801 -0.270353
O20   O     O_R   0.273960 0.692270 0.545930 -0.209097
N9    N     N_R   0.271218 0.367952 0.501599 0.273020
O21   O     O_R   0.303658 0.349490 0.576053 -0.263967
O22   O     O_R   0.255433 0.318377 0.442733 -0.187584
N10   N     N_R   0.678206 0.609373 0.366037 0.252870
O23   O     O_R   0.651072 0.603480 0.285502 -0.296176
O24   O     O_R   0.672329 0.670281 0.408224 -0.259059
Cl9   Cl    Cl    0.898416 0.406342 0.517791 -0.314679
Cl10  Cl    Cl    0.128334 0.624041 0.590583 -0.288072
Cl11  Cl    Cl    0.110969 0.373114 0.478982 -0.286674
Cl12  Cl    Cl    0.820145 0.622116 0.280769 -0.274939
Cl13  Cl    Cl    0.911567 0.662851 0.470251 -0.294236
Cl14  Cl    Cl    0.096086 0.429483 0.279370 -0.278044
Cl15  Cl    Cl    0.075299 0.683258 0.409962 -0.258067
Cl16  Cl    Cl    0.925720 0.409935 0.277450 -0.262220
N11   N     N_R   0.574199 0.687914 0.634900 0.258993
O25   O     O_R   0.552041 0.691106 0.716801 -0.280388
O26   O     O_R   0.638391 0.664830 0.620414 -0.240659
N12   N     N_R   0.444067 0.310909 0.351378 0.259675
O27   O     O_R   0.472578 0.301114 0.273642 -0.270227
O28   O     O_R   0.384454 0.346094 0.355935 -0.269384
N13   N     N_R   0.427034 0.687398 0.364095 0.262599
O29   O     O_R   0.450767 0.691473 0.282938 -0.265072
O30   O     O_R   0.362321 0.663754 0.376523 -0.259299
N14   N     N_R   0.553170 0.310494 0.649998 0.256340
O31   O     O_R   0.522196 0.300084 0.726250 -0.274561
O32   O     O_R   0.613814 0.345088 0.648495 -0.242372
N15   N     N_R   0.574058 0.840860 0.639018 0.262533
O33   O     O_R   0.543002 0.892542 0.681879 -0.259373
O34   O     O_R   0.639431 0.823752 0.661225 -0.188590
N16   N     N_R   0.438466 0.158856 0.351826 0.264191
O35   O     O_R   0.375279 0.176698 0.321477 -0.189929
O36   O     O_R   0.472363 0.106805 0.313272 -0.256814
N17   N     N_R   0.425710 0.840210 0.361091 0.263440
O37   O     O_R   0.456774 0.892680 0.318290 -0.258712
O38   O     O_R   0.360487 0.821817 0.338501 -0.181502
N18   N     N_R   0.560076 0.158730 0.648332 0.264067
O39   O     O_R   0.622780 0.177801 0.680000 -0.187422
O40   O     O_R   0.525881 0.105773 0.686230 -0.257047

loop_
_geom_bond_atom_site_label_1
_geom_bond_atom_site_label_2
_geom_bond_distance
_ccdc_geom_bond_type
C30   C37   1.505716 S    
N7    O17   1.300776 A    
C3    C8    1.426942 S    
N9    O21   1.301424 A    
C17   C19   1.396092 A    
C47   C54   1.504846 S    
C1    C32   1.478307 S    
O3    C2    1.285822 A    
N18   O39   1.301159 A    
N5    O13   1.301042 A    
C34   Cl14  1.768801 S    
C39   N11   1.428085 S    
O5    C3    1.283614 A    
C40   C44   1.418042 A    
O1    C1    1.293016 A    
C23   C32   1.416767 A    
C22   C26   1.396165 A    
C9    C11   1.396507 A    
N6    O16   1.301460 A    
C27   C30   1.414110 A    
C28   C29   1.400386 A    
C17   N3    1.435364 S    
C5    C15   1.406399 A    
C40   N12   1.428605 S    
N14   O31   1.301308 A    
C50   Cl4   1.766966 S    
O7    Zn1   2.008203 S    
N12   O27   1.301359 A    
C42   N2    1.376513 A    
C49   C54   1.412689 A    
C22   N8    1.439399 S    
C45   N17   1.438811 S    
C34   C36   1.402595 A    
C2    C31   1.473643 S    
N10   O24   1.301006 A    
C4    C7    1.422292 S    
C13   C14   1.402478 A    
C6    Cl2   1.781700 S    
C46   C48   1.407412 A    
C18   N4    1.433404 S    
C33   C38   1.409258 A    
C8    C10   1.395337 A    
O3    Zn1   1.943546 S    
C34   C37   1.413239 A    
C35   C37   1.406243 A    
C11   C17   1.409790 A    
C51   C54   1.412710 A    
N9    O22   1.301306 A    
C12   C18   1.418444 A    
O4    Zn2   1.943548 S    
N11   O26   1.299979 A    
O2    C2    1.300796 A    
C24   C31   1.422352 A    
C25   Cl9   1.769885 S    
N5    O14   1.301187 A    
C35   Cl15  1.768778 S    
C33   Cl13  1.767186 S    
C42   N14   1.427379 S    
C6    C16   1.401905 A    
C36   C38   1.406935 A    
C21   N7    1.428286 S    
C9    Cl7   1.775954 S    
N6    O15   1.301391 A    
O8    Zn2   2.008203 S    
C43   C47   1.411133 A    
N4    O11   1.300554 A    
C23   C27   1.407246 A    
C23   N9    1.437018 S    
C49   C52   1.412727 A    
C25   C29   1.408500 A    
N3    O9    1.301085 A    
C19   N5    1.435375 S    
C50   C51   1.412648 A    
C33   C35   1.392355 A    
C48   C53   1.503287 S    
N8    O20   1.301464 A    
C26   C30   1.409009 A    
O6    C4    1.279591 A    
C5    Cl1   1.778003 S    
N10   O23   1.299890 A    
N4    O12   1.301579 A    
C10   Cl8   1.781815 S    
C26   Cl10  1.771670 S    
C41   N13   1.427509 S    
N3    O10   1.300961 A    
N15   O34   1.301035 A    
C44   N16   1.438565 S    
C51   Cl5   1.767240 S    
C11   C13   1.419339 A    
N17   O37   1.301193 A    
C12   C14   1.423753 A    
O1    Zn1   1.937163 S    
C10   C12   1.406183 A    
N11   O25   1.301161 A    
N16   O36   1.301106 A    
N13   O29   1.301054 A    
C44   C48   1.407648 A    
C49   Cl3   1.767271 S    
C15   C20   1.412790 A    
C5    C7    1.393416 A    
O6    Zn2   2.010572 S    
C21   C31   1.407228 A    
C50   C53   1.411341 A    
C24   C28   1.396839 A    
C14   C16   1.425596 A    
C24   N10   1.434321 S    
O4    C1    1.298974 A    
N18   O40   1.301100 A    
N15   O33   1.301201 A    
C43   N15   1.438738 S    
Zn1   N1    2.005724 S    
Zn2   N2    2.005724 S    
C39   N1    1.371463 A    
C40   N2    1.377043 A    
C52   C53   1.411472 A    
C45   C47   1.410813 A    
C28   Cl12  1.770592 S    
C27   Cl11  1.772570 S    
N8    O19   1.300321 A    
C39   C43   1.417408 A    
C36   Cl16  1.765541 S    
C21   C25   1.400387 A    
C18   C20   1.396642 A    
C7    C9    1.388563 A    
N14   O32   1.298080 A    
C41   C45   1.416929 A    
C46   N18   1.438787 S    
C20   N6    1.433842 S    
O2    Zn2   1.937161 S    
O7    C4    1.280962 A    
N12   O28   1.299047 A    
O8    C3    1.278574 A    
O5    Zn1   2.010572 S    
C13   C15   1.422776 A    
C41   N1    1.371377 A    
C16   C19   1.416144 A    
C6    C8    1.391344 A    
N17   O38   1.301043 A    
N7    O18   1.300417 A    
C22   C32   1.418626 A    
N16   O35   1.301167 A    
C42   C46   1.417468 A    
C52   Cl6   1.767008 S    
C29   C38   1.467750 S    
N13   O30   1.299804 A    
