data_mof_unit_14122.cif
_audit_creation_date              2013-03-05T15:43:09-0500
_audit_creation_method            fapswitch 2.2
_symmetry_space_group_name_H-M    P1
_symmetry_Int_Tables_number       1
_space_group_crystal_system       triclinic
_cell_length_a                    6.949745
_cell_length_b                    14.035381
_cell_length_c                    17.960744
_cell_angle_alpha                 113.310027
_cell_angle_beta                  95.125898
_cell_angle_gamma                 90.676964
_cell_volume                      1600.36827697

loop_
_atom_site_label
_atom_site_type_symbol
_atom_site_description
_atom_site_fract_x
_atom_site_fract_y
_atom_site_fract_z
_atom_type_partial_charge
O1    O     O_R   0.484560 0.544530 0.414330 -0.533433
O2    O     O_R   0.197040 0.638810 0.585080 -0.566895
O3    O     O_R   0.026800 0.455470 0.585670 -0.571177
C1    C     C_R   0.373989 0.683374 0.603576 0.765621
O4    O     O_R   0.155000 0.556150 0.414940 -0.513093
O5    O     O_R   0.984450 0.372220 0.414320 -0.558840
C2    C     C_R   0.320724 0.567993 0.388361 0.832991
O6    O     O_R   0.526900 0.627780 0.585680 -0.552802
O7    O     O_3   0.339170 0.439750 0.499990 -0.298273
V1    V     V_3+5 0.064350 0.511180 0.500000 1.149062
O8    O     O_R   0.654880 0.361190 0.414920 -0.562735
C3    C     C_R   0.816911 0.324589 0.386346 0.860289
O9    O     O_R   0.696930 0.443850 0.585060 -0.559883
C4    C     C_R   0.870682 0.412915 0.597687 0.789553
V2    V     V_3+5 0.564340 0.488820 0.500000 1.141647
O10   O     O_3   0.839390 0.560250 0.500010 -0.251568
C5    C     C_R   0.041293 0.853352 0.817971 -0.122723
C6    C     C_R   0.902964 0.368218 0.660445 -0.068040
C7    C     C_R   0.921720 0.804252 0.675624 -0.053646
C8    C     C_R   0.972181 0.777462 0.741673 -0.061858
C9    C     C_R   0.057640 0.957484 0.826819 -0.132167
C10   C     C_R   0.013172 0.986189 0.759171 0.053054
C11   C     C_R   0.941558 0.907453 0.683499 0.044194
C12   C     C_R   0.030272 0.090833 0.765015 0.030431
C13   C     C_R   0.963167 0.117135 0.697477 0.039552
C14   C     C_R   0.895105 0.035017 0.623455 -0.097795
C15   C     C_R   0.887003 0.932319 0.616541 -0.110391
C16   C     C_R   0.116124 0.169758 0.836448 -0.125157
C17   C     C_R   0.117388 0.271876 0.846160 -0.082106
C18   C     C_R   0.031172 0.301625 0.785570 0.054148
C19   C     C_R   0.964272 0.224772 0.707493 0.057182
C20   C     C_R   0.018589 0.407631 0.800872 -0.085846
C21   C     C_R   0.957733 0.439139 0.738761 -0.121414
C22   C     C_R   0.903551 0.260183 0.644122 -0.130601
H1    H     H_    0.832053 0.871757 0.558503 0.063751
H2    H     H_    0.860923 0.206297 0.582345 0.035578
H3    H     H_    0.954497 0.521439 0.751404 0.060434
H4    H     H_    0.193927 0.326895 0.901844 0.138508
H5    H     H_    0.865408 0.743961 0.617974 0.120317
H6    H     H_    0.954850 0.696979 0.733341 0.100405
H7    H     H_    0.097787 0.014351 0.887665 0.102022
H8    H     H_    0.844551 0.048312 0.570025 0.066979
H9    H     H_    0.188916 0.154816 0.885962 0.109118
H10   H     H_    0.114083 0.223921 0.308547 0.117151
H11   H     H_    0.834175 0.034820 0.193540 0.116327
C23   C     C_2   0.135616 0.037521 0.183882 -0.219424
C24   C     C_2   0.972628 0.077971 0.216882 -0.092422
H12   H     H_    0.674563 0.177794 0.294542 0.064615
C25   C     C_2   0.812705 0.221122 0.318311 -0.220261
C26   C     C_2   0.975649 0.180746 0.285230 -0.082437
H13   H     H_    0.273767 0.080838 0.207664 0.073113
C27   C     C_R   0.410453 0.796113 0.667531 -0.141078
C28   C     C_R   0.537671 0.475342 0.817461 -0.134356
C29   C     C_R   0.518976 0.912734 0.809200 -0.071119
C30   C     C_R   0.465758 0.813050 0.749305 -0.067738
C31   C     C_R   0.409071 0.886672 0.648456 -0.113891
C32   C     C_R   0.469722 0.989670 0.709623 0.057036
C33   C     C_R   0.536832 0.997530 0.788452 0.036690
C34   C     C_R   0.466132 0.086422 0.698221 0.038038
C35   C     C_R   0.533633 0.183589 0.764996 0.026062
C36   C     C_R   0.623450 0.180709 0.836229 -0.108497
C37   C     C_R   0.625577 0.090465 0.847414 -0.074645
C38   C     C_R   0.394728 0.090959 0.624196 -0.097776
C39   C     C_R   0.382842 0.186157 0.616797 -0.111038
C40   C     C_R   0.437319 0.280315 0.683309 0.047903
C41   C     C_R   0.513524 0.281415 0.758958 0.059616
C42   C     C_R   0.412968 0.373944 0.674923 -0.062119
C43   C     C_R   0.462064 0.468669 0.740203 -0.073670
C44   C     C_R   0.560330 0.380542 0.826306 -0.133226
H14   H     H_    0.700577 0.094909 0.904280 0.094906
H15   H     H_    0.607634 0.387270 0.886999 0.087867
H16   H     H_    0.438284 0.535352 0.727718 0.104547
H17   H     H_    0.324759 0.186383 0.558823 0.060702
H18   H     H_    0.365029 0.875195 0.586215 0.040876
H19   H     H_    0.697457 0.247091 0.884795 0.104251
H20   H     H_    0.344211 0.021842 0.571579 0.066074
H21   H     H_    0.353746 0.374017 0.617210 0.118670
H22   H     H_    0.368638 0.714303 0.221792 0.093281
C45   C     C_2   0.326670 0.605004 0.320893 -0.246855
C46   C     C_2   0.492382 0.636595 0.299103 -0.022604
C47   C     C_2   0.628394 0.647135 0.176913 0.021746
C48   C     C_2   0.486861 0.667284 0.228316 -0.142381
H23   H     H_    0.190886 0.602492 0.285428 0.139624
O11   O     O_R   0.421600 0.630430 0.917010 -0.587674
O12   O     O_R   0.793840 0.702190 0.087630 -0.530968
O13   O     O_R   0.964010 0.886170 0.088190 -0.571505
C49   C     C_R   0.629657 0.691965 0.114826 0.828394
O14   O     O_R   0.751460 0.619510 0.917500 -0.531755
O15   O     O_R   0.921330 0.802900 0.916840 -0.555934
C50   C     C_R   0.573662 0.580114 0.889270 0.888295
O16   O     O_R   0.464290 0.713700 0.088350 -0.565644
O17   O     O_3   0.609200 0.818520 0.002630 -0.282487
V3    V     V_3+5 0.884140 0.747190 0.002530 1.177973
O18   O     O_R   0.251150 0.814630 0.917340 -0.558244
C51   C     C_R   0.074789 0.823554 0.889112 0.819816
O19   O     O_R   0.293530 0.897310 0.087470 -0.547599
C52   C     C_R   0.131458 0.933972 0.115940 0.851631
V4    V     V_3+5 0.384070 0.769710 0.002370 1.161205
O20   O     O_3   0.109180 0.698190 0.002460 -0.266983
C53   C     C_2   0.064998 0.491495 0.880933 0.515739
H24   H     H_    0.103026 0.565579 0.880777 0.063642
O21   O     O_2   0.042412 0.482547 0.944559 -0.554521
C54   C     C_2   0.549149 0.931656 0.896276 0.504127
H25   H     H_    0.664750 0.897080 0.916552 0.089290
O22   O     O_2   0.454472 0.993769 0.946009 -0.590786
C55   C     C_2   0.465896 0.726238 0.773686 0.504063
H26   H     H_    0.330112 0.685346 0.770196 -0.065832
O23   O     O_2   0.617922 0.701309 0.798262 -0.614709
C56   C     C_2   0.677177 0.662275 0.352605 0.596860
H27   H     H_    0.726623 0.742982 0.386069 -0.107346
O24   O     O_2   0.779966 0.593915 0.355824 -0.506364
I1    I     I_    0.836109 0.533710 0.167549 -0.370635

loop_
_geom_bond_atom_site_label_1
_geom_bond_atom_site_label_2
_geom_bond_distance
_ccdc_geom_bond_type
C33   C37   1.405106 A    
C18   C20   1.407332 A    
C13   C19   1.448823 A    
C49   O16   1.290514 A    
C4    C6    1.494058 S    
O2    C1    1.325992 A    
C7    C8    1.397664 A    
C42   H21   1.080962 S    
C1    O6    1.312867 A    
C28   C44   1.410038 A    
C3    C25   1.480254 S    
O17   V4    1.699450 S    
C36   H19   1.076480 S    
C14   C15   1.396937 A    
C1    C27   1.545151 S    
C16   C17   1.373432 A    
C56   O24   1.219394 D    
O5    C3    1.290858 A    
C18   C19   1.421516 A    
C8    H6    1.082900 S    
C32   C34   1.451396 A    
C41   C44   1.446301 A    
C38   H20   1.079144 S    
O18   V4    2.026539 S    
V2    O10   2.147918 S    
V4    O20   2.147988 S    
C5    C8    1.399370 A    
C31   C32   1.456150 A    
C37   H14   1.082785 S    
C23   C24   1.351119 D    
C44   H15   1.076592 S    
O13   C52   1.290763 A    
O17   V3    2.167418 S    
C29   C30   1.406082 A    
O12   V3    2.013694 S    
C40   C42   1.391237 A    
O19   V4    1.992890 S    
C46   C56   1.482267 S    
C39   H17   1.083834 S    
O1    V2    2.023945 S    
C11   C15   1.402013 A    
O7    V1    2.167510 S    
V3    O20   1.715828 S    
C27   C30   1.407854 A    
O12   C49   1.308558 A    
C35   C41   1.426934 A    
C34   C35   1.451982 A    
O9    C4    1.318891 A    
C36   C37   1.358740 A    
O11   C50   1.302701 A    
C28   C43   1.405706 A    
C47   C48   1.364578 D    
C24   C26   1.476967 S    
H11   C24   1.087024 S    
C31   H18   1.079123 S    
C30   C55   1.448647 S    
C42   C43   1.393855 A    
C29   C54   1.473709 S    
C17   H4    1.078659 S    
C12   C13   1.443133 A    
C46   C48   1.492806 S    
O4    C2    1.318538 A    
C15   H1    1.083946 S    
C13   C14   1.407734 A    
C23   H13   1.086878 S    
C21   H3    1.086413 S    
C38   C39   1.396754 A    
C35   C36   1.388144 A    
O15   C51   1.292803 A    
C7    C11   1.402400 A    
C17   C18   1.402377 A    
O13   V3    1.981627 S    
H22   C48   1.086788 S    
C47   I1    2.128923 S    
C43   H16   1.056731 S    
O19   C52   1.305112 A    
C53   O21   1.221263 D    
C19   C22   1.444783 A    
C54   O22   1.221943 D    
C6    C22   1.426087 A    
C47   C49   1.482027 S    
O3    C4    1.307307 A    
C7    H5    1.080594 S    
C9    H7    1.076633 S    
H12   C25   1.086870 S    
C23   C52   1.480302 S    
O14   C50   1.318972 A    
C25   C26   1.351092 D    
O6    V2    1.986947 S    
O8    V2    1.992985 S    
O9    V2    2.026523 S    
C10   C12   1.433148 A    
O2    V1    1.984227 S    
C28   C50   1.523510 S    
C14   H8    1.078063 S    
C2    C45   1.498853 S    
C29   C33   1.387974 A    
H10   C26   1.087011 S    
O14   V3    1.984283 S    
O1    C2    1.287621 A    
C5    C51   1.494592 S    
C12   C16   1.397122 A    
O5    V1    1.981610 S    
O8    C3    1.305225 A    
C16   H9    1.077263 S    
C34   C38   1.402800 A    
O11   V4    1.987851 S    
C20   C21   1.389053 A    
O7    V2    1.702217 S    
O4    V1    2.013698 S    
O3    V1    2.016474 S    
V1    O10   1.715806 S    
C56   H27   1.085146 S    
C39   C40   1.405292 A    
C45   H23   1.082373 S    
C32   C33   1.411184 A    
C55   O23   1.217034 D    
C53   H24   1.070978 S    
C22   H2    1.078303 S    
O16   V4    2.032446 S    
O15   V3    2.016326 S    
O18   C51   1.310661 A    
C6    C21   1.378956 A    
C5    C9    1.408296 A    
C45   C46   1.371818 D    
C20   C53   1.458024 S    
C40   C41   1.407643 A    
C55   H26   1.082580 S    
C54   H25   1.053739 S    
C10   C11   1.411956 A    
C9    C10   1.434326 A    
C27   C31   1.441278 A    
