data_mof_unit_25800.cif
_audit_creation_date              2012-12-10T20:30:09-0500
_audit_creation_method            fapswitch 2.2
_symmetry_space_group_name_H-M    P1
_symmetry_Int_Tables_number       1
_space_group_crystal_system       triclinic
_cell_length_a                    9.913495
_cell_length_b                    10.673825
_cell_length_c                    13.137829
_cell_angle_alpha                 89.321331
_cell_angle_beta                  69.84742
_cell_angle_gamma                 89.86569
_cell_volume                      1304.9755983

loop_
_atom_site_label
_atom_site_type_symbol
_atom_type_description
_atom_site_fract_x
_atom_site_fract_y
_atom_site_fract_z
_atom_type_partial_charge
C1    C     C_R   0.500769 0.739586 0.498330 0.876777
C2    C     C_R   0.435693 0.502445 0.982827 0.073307
C3    C     C_R   0.449974 0.449012 0.881691 0.023485
C4    C     C_R   0.541902 0.475235 0.029652 0.080921
C5    C     C_R   0.652407 0.387526 0.980136 0.146526
C6    C     C_R   0.651146 0.322354 0.889648 -0.324485
C7    C     C_R   0.547808 0.348656 0.843020 -0.017981
C8    C     C_R   0.539244 0.529631 0.126338 -0.255805
C9    C     C_R   0.743810 0.406390 0.127766 -0.204698
C10   C     C_R   0.366214 0.498507 0.822741 -0.118183
C11   C     C_R   0.378143 0.936126 0.556285 0.115245
C12   C     C_R   0.419675 0.495850 0.704340 0.866855
C13   C     C_R   0.502342 0.871547 0.498968 -0.092488
C14   C     C_R   0.631973 0.935542 0.448946 -0.236912
C15   C     C_R   0.632531 0.064890 0.448069 -0.222023
C16   C     C_R   0.502819 0.128620 0.495273 -0.078460
C17   C     C_R   0.378107 0.063920 0.553868 0.155508
C18   C     C_3   0.230559 0.070448 0.547763 -0.476825
C19   C     C_3   0.230532 0.928413 0.550874 -0.497901
C20   C     C_R   0.886928 0.488670 0.594394 0.220451
C21   C     C_R   0.971083 0.503517 0.405464 -0.176788
C22   C     C_R   0.114506 0.504616 0.405452 -0.132643
C23   C     C_R   0.501988 0.260642 0.495578 0.895644
C24   C     C_R   0.028785 0.483978 0.594127 0.176289
C25   C     C_3   0.995542 0.559704 0.694159 -0.539031
C26   C     C_3   0.842837 0.571331 0.692547 -0.157954
C27   C     C_R   0.580160 0.501089 0.295990 0.859096
C28   C     C_R   0.756507 0.358467 0.026924 -0.190686
C29   C     C_R   0.629835 0.486600 0.179517 -0.053371
C30   C     C_R   0.247431 0.574465 0.874351 -0.197214
C31   C     C_R   0.218815 0.610363 0.980766 -0.145678
C32   C     C_R   0.314060 0.578731 0.033690 -0.184820
H1    H     H_    0.815117 0.372949 0.168756 0.148453
H2    H     H_    0.732055 0.114592 0.407055 0.162854
H3    H     H_    0.151830 0.112374 0.621519 0.201969
H4    H     H_    0.229270 0.110227 0.469469 0.212661
H5    H     H_    0.153095 0.888238 0.626926 0.202349
H6    H     H_    0.228504 0.885855 0.474546 0.215971
H7    H     H_    0.952087 0.508177 0.329244 0.151421
H8    H     H_    0.201833 0.510667 0.328788 0.156228
H9    H     H_    0.001208 0.501775 0.763455 0.187519
H10   H     H_    0.058486 0.648017 0.681516 0.208951
H11   H     H_    0.764635 0.523940 0.763775 0.174667
H12   H     H_    0.727452 0.247121 0.857782 0.154538
H13   H     H_    0.841197 0.291783 0.989399 0.136126
H14   H     H_    0.460408 0.598719 0.167259 0.133328
H15   H     H_    0.181376 0.611945 0.830602 0.147851
H16   H     H_    0.287599 0.613685 0.114781 0.118637
H17   H     H_    0.126888 0.669081 0.020389 0.139096
H18   H     H_    0.730921 0.886026 0.407593 0.167001
N1    N     N_R   0.856940 0.500860 0.500710 -0.111207
N2    N     N_R   0.142580 0.500820 0.500710 -0.102283
O1    O     O_R   0.385310 0.683210 0.499990 -0.618079
O2    O     O_R   0.614650 0.683240 0.500000 -0.630338
O3    O     O_R   0.328390 0.499940 0.653610 -0.609412
O4    O     O_R   0.557730 0.499980 0.653620 -0.615772
O5    O     O_R   0.385350 0.316760 0.500000 -0.614307
O6    O     O_R   0.614690 0.316790 0.500010 -0.607085
O7    O     O_R   0.442270 0.500020 0.346380 -0.619965
O8    O     O_R   0.671610 0.500060 0.346390 -0.627568
Zn1   Zn    Zn3+2 0.346870 0.499980 0.499990 0.934250
Zn2   Zn    Zn3+2 0.653130 0.500020 0.500010 0.932771
C33   C     C_3   0.795551 0.707184 0.680079 -0.321741
C34   C     C_3   0.886595 0.778786 0.576794 -0.319485
C35   C     C_3   0.861350 0.919797 0.590369 -0.901262
H19   H     H_    0.919422 0.969095 0.512715 0.255791
H20   H     H_    0.744967 0.941195 0.614693 0.286476
H21   H     H_    0.901522 0.955308 0.653768 0.258715
H22   H     H_    0.002622 0.760308 0.556754 0.218551
H23   H     H_    0.857676 0.748113 0.506738 0.244016
H24   H     H_    0.682051 0.706122 0.683648 0.219182
H25   H     H_    0.797209 0.758953 0.752619 0.195702
C36   C     C_1   0.528507 0.256064 0.770581 0.179489
N3    N     N_1   0.512873 0.178491 0.715165 -0.232208

loop_
_geom_bond_atom_site_label_1
_geom_bond_atom_site_label_2
_ccdc_geom_bond_type
O6    Zn2   S    
C23   O6    A    
C24   N2    A    
C27   C29   S    
C36   N3    T    
C4    C8    A    
C7    C36   S    
C11   C19   S    
C8    C29   A    
O8    Zn2   S    
C20   N1    A    
C3    C7    A    
N2    Zn1   S    
C5    C6    A    
C15   C16   A    
C2    C32   A    
C18   C19   S    
C1    O1    A    
C19   H5    S    
O1    Zn1   S    
C20   C24   A    
C16   C17   A    
C35   H20   S    
C34   H23   S    
C18   H3    S    
C15   H2    S    
C9    C29   A    
C6    H12   S    
C13   C14   A    
C9    H1    S    
C32   H16   S    
N1    Zn2   S    
C31   H17   S    
C26   H11   S    
C28   H13   S    
O7    Zn1   S    
C30   H15   S    
C24   C25   S    
C25   H9    S    
O2    Zn2   S    
C25   C26   S    
C2    C4    A    
C26   C33   S    
C19   H6    S    
C5    C28   A    
C10   C30   A    
C31   C32   A    
C21   H7    S    
C30   C31   A    
C35   H21   S    
C22   H8    S    
C17   C18   S    
C34   H22   S    
C12   O4    A    
C10   C12   S    
C1    O2    A    
C33   H24   S    
C16   C23   S    
O4    Zn2   S    
C1    C13   S    
C21   N1    A    
C22   N2    A    
C23   O5    A    
C11   C17   A    
C4    C5    A    
C25   H10   S    
O5    Zn1   S    
C6    C7    A    
C27   O8    A    
C34   C35   S    
C2    C3    A    
C3    C10   A    
C27   O7    A    
C11   C13   A    
C14   H18   S    
C20   C26   S    
O3    Zn1   S    
C8    H14   S    
C12   O3    A    
C33   C34   S    
C33   H25   S    
C35   H19   S    
C14   C15   A    
C21   C22   A    
C18   H4    S    
C9    C28   A    
