data_mof_unit_21416.cif
_audit_creation_date              2012-12-11T17:12:47-0500
_audit_creation_method            fapswitch 2.2
_symmetry_space_group_name_H-M    P1
_symmetry_Int_Tables_number       1
_space_group_crystal_system       triclinic
_cell_length_a                    17.206347
_cell_length_b                    6.879171
_cell_length_c                    14.433918
_cell_angle_alpha                 90.000049
_cell_angle_beta                  110.08766
_cell_angle_gamma                 90.00002
_cell_volume                      1604.54690078

loop_
_atom_site_label
_atom_site_type_symbol
_atom_type_description
_atom_site_fract_x
_atom_site_fract_y
_atom_site_fract_z
_atom_type_partial_charge
O1    O     O_R   0.314130 0.635770 0.168990 -0.549114
O2    O     O_R   0.685870 0.364230 0.831010 -0.549114
O3    O     O_R   0.185870 0.135770 0.331010 -0.549114
O4    O     O_R   0.814130 0.864230 0.668990 -0.549114
O5    O     O_R   0.146800 0.302460 0.139760 -0.543166
O6    O     O_R   0.853200 0.697540 0.860240 -0.543165
O7    O     O_R   0.353200 0.802460 0.360240 -0.543165
O8    O     O_R   0.646800 0.197540 0.639760 -0.543165
C1    C     C_R   0.113987 0.475868 0.112771 0.735780
C2    C     C_R   0.886013 0.524131 0.887229 0.735780
C3    C     C_R   0.386013 0.975869 0.387229 0.735779
C4    C     C_R   0.613987 0.024131 0.612771 0.735779
O9    O     O_R   0.311100 0.305780 0.157130 -0.513467
O10   O     O_R   0.688900 0.694220 0.842870 -0.513467
O11   O     O_R   0.188900 0.805780 0.342870 -0.513468
O12   O     O_R   0.811100 0.194220 0.657130 -0.513467
O13   O     O_R   0.351340 0.139640 0.348510 -0.534051
O14   O     O_R   0.648660 0.860360 0.651490 -0.534051
O15   O     O_R   0.148660 0.639640 0.151490 -0.534051
O16   O     O_R   0.851340 0.360360 0.848510 -0.534050
C5    C     C_R   0.333203 0.476384 0.136026 0.757198
C6    C     C_R   0.666797 0.523616 0.863974 0.757198
C7    C     C_R   0.166797 0.976384 0.363974 0.757200
C8    C     C_R   0.833203 0.023616 0.636026 0.757200
C9    C     C_1   0.533567 0.008868 0.533043 -0.161929
C10   C     C_1   0.466433 0.991132 0.466957 -0.161928
C11   C     C_1   0.966433 0.508868 0.966957 -0.161927
C12   C     C_1   0.033567 0.491132 0.033043 -0.161927
O17   O     O_3   0.263010 0.470920 0.312770 -0.372546
O18   O     O_3   0.736990 0.529080 0.687230 -0.372546
O19   O     O_3   0.236990 0.970920 0.187230 -0.372546
O20   O     O_3   0.763010 0.029080 0.812770 -0.372546
V1    V     V_3+5 0.247590 0.194450 0.238360 1.508721
V2    V     V_3+5 0.752410 0.805550 0.761640 1.508721
V3    V     V_3+5 0.252410 0.694450 0.261640 1.508720
V4    V     V_3+5 0.747590 0.305550 0.738360 1.508720
C13   C     C_R   0.115786 0.998917 0.427811 -0.173166
C14   C     C_R   0.884214 0.001083 0.572189 -0.173167
C15   C     C_R   0.384214 0.498918 0.072189 -0.173168
C16   C     C_R   0.615786 0.501082 0.927811 -0.173168
C17   C     C_R   0.930856 0.785431 0.467449 -0.096101
C18   C     C_R   0.069144 0.214569 0.532551 -0.096101
C19   C     C_R   0.569142 0.285428 0.032549 -0.096101
C20   C     C_R   0.430858 0.714572 0.967451 -0.096101
C21   C     C_R   0.876000 0.829231 0.516532 -0.240220
C22   C     C_R   0.124000 0.170769 0.483468 -0.240219
C23   C     C_R   0.623999 0.329228 0.983466 -0.240216
C24   C     C_R   0.376001 0.670772 0.016534 -0.240216
C25   C     C_R   0.947711 0.132450 0.575749 0.569084
C26   C     C_R   0.052288 0.867550 0.424251 0.569084
C27   C     C_R   0.552290 0.632452 0.924253 0.569083
C28   C     C_R   0.447710 0.367548 0.075747 0.569083
C29   C     C_R   0.004067 0.087854 0.527076 -0.041428
C30   C     C_R   0.995933 0.912146 0.472924 -0.041428
C31   C     C_R   0.495934 0.587855 0.972925 -0.041429
C32   C     C_R   0.504066 0.412145 0.027075 -0.041429
H1    H     H_    0.172344 0.274660 0.487303 0.166053
H2    H     H_    0.827656 0.725340 0.512697 0.166053
H3    H     H_    0.327659 0.774664 0.012700 0.166056
H4    H     H_    0.672341 0.225336 0.987300 0.166056
H5    H     H_    0.922815 0.650568 0.426445 0.190361
H6    H     H_    0.077185 0.349432 0.573555 0.190361
H7    H     H_    0.577182 0.150563 0.073551 0.190362
H8    H     H_    0.422818 0.849437 0.926449 0.190362
F1    F     F_    0.042699 0.702553 0.369600 -0.702013
F2    F     F_    0.957300 0.297447 0.630400 -0.702013
F3    F     F_    0.457298 0.202549 0.130396 -0.702013
F4    F     F_    0.542702 0.797451 0.869604 -0.702013

loop_
_geom_bond_atom_site_label_1
_geom_bond_atom_site_label_2
_ccdc_geom_bond_type
C2    C11   S    
O10   V2    S    
C16   C23   A    
C8    C14   S    
C31   C32   A    
O19   V1    S    
O2    C6    A    
C17   H5    S    
C16   C27   A    
O17   V3    S    
O3    C7    A    
C5    C15   S    
O18   V4    S    
C4    C9    S    
O8    C4    A    
C6    C16   S    
O10   C6    A    
O11   C7    A    
C15   C28   A    
C9    C10   T    
O9    C5    A    
C20   C24   A    
O12   C8    A    
C14   C25   A    
O15   V3    S    
C29   C30   A    
C20   H8    S    
O1    C5    A    
C13   C26   A    
O14   V2    S    
C20   C31   A    
O7    V3    S    
O5    C1    A    
C26   C30   A    
C28   F3    S    
C28   C32   A    
C25   C29   A    
O20   V4    S    
O19   V3    S    
O11   V3    S    
O7    C3    A    
C27   C31   A    
C27   F4    S    
C18   C29   A    
C18   C22   A    
O4    C8    A    
C26   F1    S    
O4    V2    S    
C17   C30   A    
O6    C2    A    
O18   V2    S    
C19   H7    S    
C21   H2    S    
O16   V4    S    
O5    V1    S    
O17   V1    S    
C19   C32   A    
C23   H4    S    
O2    V4    S    
O1    V3    S    
C24   H3    S    
O9    V1    S    
O8    V4    S    
C4    O14   A    
C11   C12   T    
C18   H6    S    
O3    V1    S    
C3    O13   A    
C14   C21   A    
C17   C21   A    
C3    C10   S    
O13   V1    S    
C13   C22   A    
C7    C13   S    
C19   C23   A    
C22   H1    S    
C1    O15   A    
O12   V4    S    
O6    V2    S    
C1    C12   S    
C2    O16   A    
C25   F2    S    
C15   C24   A    
O20   V2    S    
