data_mof_unit_16992.cif
_audit_creation_date              2012-10-26T21:11:02-0400
_audit_creation_method            fapswitch 2.2
_symmetry_space_group_name_H-M    P1
_symmetry_Int_Tables_number       1
_space_group_crystal_system       triclinic
_cell_length_a                    10.927087
_cell_length_b                    10.917245
_cell_length_c                    13.113478
_cell_angle_alpha                 90.732746
_cell_angle_beta                  90.662573
_cell_angle_gamma                 90.115866
_cell_volume                      1564.11892566

loop_
_atom_site_label
_atom_site_type_symbol
_atom_type_description
_atom_site_fract_x
_atom_site_fract_y
_atom_site_fract_z
_atom_type_partial_charge
C1    C     C_R   0.496578 0.259470 0.499018 0.549173
C2    C     C_R   0.649131 0.844935 0.729280 0.145165
C3    C     C_R   0.467368 0.113953 0.303765 0.045130
C4    C     C_R   0.532637 0.886047 0.696235 0.045130
C5    C     C_R   0.566071 0.116915 0.236170 -0.098444
C6    C     C_R   0.433937 0.883096 0.763834 -0.098449
C7    C     C_R   0.549695 0.159966 0.137099 -0.115651
C8    C     C_R   0.450314 0.840048 0.862905 -0.115652
C9    C     C_R   0.434498 0.199265 0.104330 -0.150060
C10   C     C_R   0.565509 0.800740 0.895671 -0.150060
C11   C     C_R   0.491892 0.932291 0.409368 -0.161197
C12   C     C_R   0.503422 0.740530 0.500982 0.549171
C13   C     C_R   0.508111 0.067709 0.590632 -0.161197
C14   C     C_R   0.504437 0.872965 0.502691 -0.005215
C15   C     C_R   0.495565 0.127034 0.497309 -0.005214
C16   C     C_R   0.259581 0.498542 0.499208 0.588278
C17   C     C_R   0.740419 0.501459 0.500792 0.588278
C18   C     C_R   0.514364 0.941278 0.594582 -0.040282
C19   C     C_R   0.485640 0.058722 0.405418 -0.040284
C20   C     C_1   0.500190 0.500164 0.173563 0.148021
C21   C     C_1   0.499810 0.499836 0.826437 0.148021
C22   C     C_1   0.500201 0.500147 0.050687 -0.042994
C23   C     C_R   0.872927 0.502140 0.502194 0.034806
C24   C     C_1   0.499799 0.499853 0.949313 -0.042994
C25   C     C_R   0.236393 0.782373 0.259509 -0.147694
C26   C     C_R   0.763610 0.217620 0.740487 -0.147696
C27   C     C_R   0.177989 0.728246 0.341715 -0.131276
C28   C     C_R   0.822012 0.271751 0.658281 -0.131278
C29   C     C_R   0.124473 0.611842 0.330512 0.039125
C30   C     C_R   0.875527 0.388155 0.669487 0.039126
C31   C     C_R   0.130281 0.549472 0.235694 0.261613
C32   C     C_R   0.869719 0.450523 0.764306 0.261613
C33   C     C_R   0.189135 0.604990 0.152942 0.130162
C34   C     C_R   0.127073 0.497859 0.497806 0.034805
C35   C     C_R   0.810866 0.395002 0.847057 0.130161
C36   C     C_R   0.242203 0.721002 0.165695 -0.082122
C37   C     C_R   0.757800 0.278988 0.834303 -0.082123
C38   C     C_R   0.934062 0.560119 0.422263 0.094952
C39   C     C_R   0.065938 0.439881 0.577736 0.094952
C40   C     C_R   0.938361 0.444135 0.581522 -0.004414
C41   C     C_R   0.061639 0.555864 0.418477 -0.004415
C42   C     C_R   0.335681 0.197200 0.170902 -0.048876
C43   C     C_R   0.664323 0.802795 0.829095 -0.048875
C44   C     C_R   0.350872 0.155058 0.270717 0.145161
Cl1   Cl    Cl    0.064496 0.402363 0.220524 -0.659736
Cl2   Cl    Cl    0.935503 0.597632 0.779478 -0.659737
Cu1   Cu    Cu3+1 0.499990 0.499990 0.592680 1.027005
Cu2   Cu    Cu3+1 0.500010 0.500010 0.407320 1.027003
H1    H     H_    0.287702 0.764020 0.102507 0.130725
H2    H     H_    0.723223 0.127593 0.731815 0.118278
H3    H     H_    0.174208 0.776968 0.414089 0.115474
H4    H     H_    0.825794 0.223030 0.585907 0.115475
H5    H     H_    0.421737 0.231468 0.027221 0.117748
H6    H     H_    0.578272 0.768539 0.972780 0.117748
H7    H     H_    0.246790 0.227466 0.144387 0.182170
H8    H     H_    0.753212 0.772522 0.855608 0.182175
H9    H     H_    0.237559 0.460525 0.064400 0.251623
H10   H     H_    0.105842 0.529982 0.028823 0.270277
H11   H     H_    0.762438 0.539462 0.935602 0.251622
H12   H     H_    0.712302 0.235968 0.897489 0.130724
H13   H     H_    0.894159 0.470009 0.971177 0.270277
H14   H     H_    0.896737 0.718707 0.348489 0.222565
H15   H     H_    0.880134 0.589860 0.275417 0.273741
H16   H     H_    0.103263 0.281293 0.651511 0.222564
H17   H     H_    0.119866 0.410139 0.724583 0.273742
H18   H     H_    0.234821 0.063783 0.362250 0.216314
H19   H     H_    0.265058 0.209883 0.399326 0.249019
H20   H     H_    0.765192 0.936203 0.637751 0.216315
H21   H     H_    0.734935 0.790110 0.600666 0.249016
H22   H     H_    0.655485 0.084722 0.260079 0.124305
H23   H     H_    0.344526 0.915296 0.739928 0.124303
H24   H     H_    0.626131 0.161813 0.085367 0.129117
H25   H     H_    0.373882 0.838210 0.914641 0.129113
H26   H     H_    0.485180 0.879877 0.338704 0.134407
H27   H     H_    0.514823 0.120123 0.661296 0.134407
H28   H     H_    0.276781 0.872399 0.268179 0.118279
N1    N     N_1   0.500030 0.500030 0.268070 -0.163984
N2    N     N_1   0.499970 0.499970 0.731930 -0.163984
N3    N     N_3   0.195202 0.545498 0.055216 -0.610726
N4    N     N_3   0.804799 0.454491 0.944784 -0.610727
N5    N     N_3   0.865561 0.628085 0.347677 -0.600454
N6    N     N_3   0.134439 0.371915 0.652323 -0.600454
N7    N     N_3   0.246881 0.153033 0.336248 -0.582205
N8    N     N_3   0.753120 0.846952 0.663747 -0.582203
O1    O     O_R   0.499980 0.319630 0.578260 -0.504528
O2    O     O_R   0.500020 0.680370 0.421740 -0.504528
O3    O     O_R   0.500000 0.319650 0.421740 -0.491751
O4    O     O_R   0.500000 0.680350 0.578260 -0.491751
O5    O     O_R   0.319630 0.500000 0.578260 -0.460765
O6    O     O_R   0.680370 0.500000 0.421740 -0.460766
O7    O     O_R   0.319650 0.500020 0.421740 -0.496808
O8    O     O_R   0.680350 0.499980 0.578260 -0.496808

loop_
_geom_bond_atom_site_label_1
_geom_bond_atom_site_label_2
_ccdc_geom_bond_type
C1    O3    A    
H19   N7    S    
C27   C29   A    
Cu1   O8    S    
H9    N3    S    
C2    N8    S    
C44   N7    S    
C15   C19   A    
C17   O8    A    
C11   C19   A    
C9    C42   A    
C17   C23   S    
C13   C18   A    
H15   N5    S    
Cu1   O1    S    
C35   C37   A    
C26   H2    S    
C11   C14   A    
H13   N4    S    
C23   C40   A    
C35   N4    S    
C33   C36   A    
C14   C18   A    
C16   C34   S    
H18   N7    S    
C13   H27   S    
Cu2   O7    S    
C21   N2    T    
C31   C33   A    
C3    C19   S    
C1    C15   S    
C4    C18   S    
C16   O5    A    
Cu2   O6    S    
Cu1   O5    S    
C34   C41   A    
C42   C44   A    
C27   H3    S    
C1    O1    A    
C6    H23   S    
C3    C44   A    
C12   O4    A    
C34   C39   A    
H20   N8    S    
C32   C35   A    
C38   C41   A    
C4    C6    A    
C39   C40   A    
C5    C7    A    
C33   N3    S    
C6    C8    A    
Cu2   N1    S    
C2    C4    A    
C5    H22   S    
C42   H7    S    
Cu1   Cu2   S    
C2    C43   A    
Cu2   O3    S    
C30   C40   S    
H16   N6    S    
H10   N3    S    
C20   N1    T    
H14   N5    S    
C20   C22   S    
C13   C15   A    
C38   N5    S    
Cu2   O2    S    
C9    H5    S    
C7    H24   S    
C7    C9    A    
C29   C41   S    
C10   C43   A    
C32   Cl2   S    
C17   O6    A    
C39   N6    S    
C12   C14   S    
C3    C5    A    
C11   H26   S    
H11   N4    S    
C26   C37   A    
C25   C27   A    
C23   C38   A    
C26   C28   A    
C12   O2    A    
C25   H28   S    
Cu1   O4    S    
C28   C30   A    
C29   C31   A    
H21   N8    S    
C30   C32   A    
C28   H4    S    
H17   N6    S    
C8    H25   S    
C22   C24   T    
C10   H6    S    
C37   H12   S    
C25   C36   A    
C43   H8    S    
C16   O7    A    
C8    C10   A    
C31   Cl1   S    
C21   C24   S    
Cu1   N2    S    
C36   H1    S    
