data_mof_unit_18959.cif
_audit_creation_date              2013-03-05T15:45:32-0500
_audit_creation_method            fapswitch 2.2
_symmetry_space_group_name_H-M    P1
_symmetry_Int_Tables_number       1
_space_group_crystal_system       triclinic
_cell_length_a                    10.793499
_cell_length_b                    11.025192
_cell_length_c                    18.805792
_cell_angle_alpha                 90.916798
_cell_angle_beta                  90.395351
_cell_angle_gamma                 61.272758
_cell_volume                      1962.19932898

loop_
_atom_site_label
_atom_site_type_symbol
_atom_site_description
_atom_site_fract_x
_atom_site_fract_y
_atom_site_fract_z
_atom_type_partial_charge
O1    O     O_R   0.507430 0.255570 0.581420 -0.479645
O2    O     O_R   0.280190 0.527390 0.578910 -0.543124
C1    C     C_R   0.235153 0.646025 0.608927 0.557656
O3    O     O_R   0.260310 0.739740 0.584580 -0.412668
O4    O     O_R   0.532250 0.695150 0.573830 -0.432754
C2    C     C_R   0.657001 0.626116 0.598503 0.559123
O5    O     O_R   0.744930 0.503430 0.576380 -0.515726
O6    O     O_R   0.699250 0.276390 0.571950 -0.422007
C3    C     C_R   0.601430 0.281486 0.611158 0.549732
O7    O     O_R   0.499020 0.256400 0.419850 -0.422784
O8    O     O_R   0.272400 0.528160 0.429140 -0.484562
C4    C     C_R   0.218192 0.649713 0.402197 0.551346
O9    O     O_R   0.251910 0.740570 0.423020 -0.508470
O10   O     O_R   0.524460 0.695920 0.424060 -0.511820
C5    C     C_R   0.640840 0.618732 0.390814 0.557522
O11   O     O_R   0.736530 0.504260 0.414810 -0.433716
O12   O     O_R   0.691460 0.277160 0.422180 -0.493512
C6    C     C_R   0.611827 0.236812 0.392023 0.582114
Cr1   Cr    Cr6+3 0.392930 0.397900 0.502230 1.109878
Cr2   Cr    Cr6+3 0.398240 0.708600 0.501260 1.145215
Cr3   Cr    Cr6+3 0.708800 0.393470 0.496460 1.142812
O13   O     O_3   0.499990 0.499990 0.499980 -0.335878
C7    C     C_3   0.616127 0.834056 0.773482 0.300374
H1    H     H_    0.659924 0.906178 0.780708 0.075967
C8    C     C_3   0.593098 0.818490 0.692671 0.710468
H2    H     H_    0.902637 0.709774 0.768509 0.076910
H3    H     H_    0.868747 0.678765 0.652136 0.144364
C9    C     C_3   0.860622 0.635892 0.763796 0.137759
C10   C     C_3   0.663214 0.588266 0.798701 0.093621
C11   C     C_3   0.721447 0.692216 0.807038 -0.041821
H4    H     H_    0.750700 0.483998 0.810529 0.243583
C12   C     C_3   0.677122 0.662266 0.672123 -0.041991
C13   C     C_3   0.835510 0.616422 0.685092 -0.227894
C14   C     C_3   0.620660 0.586246 0.720759 -0.262473
H5    H     H_    0.503952 0.634422 0.715184 0.196356
H6    H     H_    0.658930 0.479505 0.702557 0.106734
H7    H     H_    0.904774 0.508148 0.667738 0.251761
C15   C     C_R   0.761528 0.224011 0.722588 0.148484
C16   C     C_R   0.767484 0.199762 0.796668 0.112198
C17   C     C_R   0.666178 0.170482 0.828242 -0.021959
C18   C     C_R   0.545124 0.183335 0.787862 0.143160
C19   C     C_R   0.538127 0.218561 0.718613 -0.138641
H8    H     H_    0.446018 0.232005 0.689837 0.211724
C20   C     C_R   0.641403 0.234886 0.684225 -0.047034
C21   C     C_R   0.225058 0.546777 0.724185 -0.150683
H9    H     H_    0.275954 0.444685 0.700851 0.150583
C22   C     C_R   0.212062 0.561767 0.797867 0.229399
C23   C     C_R   0.145649 0.693135 0.828470 0.018941
C24   C     C_R   0.092260 0.809450 0.785579 -0.128828
H10   H     H_    0.030931 0.911136 0.808412 0.185407
C25   C     C_R   0.110803 0.795881 0.712824 0.186207
C26   C     C_R   0.180497 0.663800 0.681366 -0.037248
C27   C     C_R   0.743350 0.531420 0.271971 0.356644
C28   C     C_R   0.736947 0.543052 0.199312 -0.085295
H11   H     H_    0.809360 0.453486 0.168153 0.180164
C29   C     C_R   0.652386 0.670995 0.167770 -0.032246
C30   C     C_R   0.559361 0.784108 0.210178 -0.134597
H12   H     H_    0.494130 0.884642 0.187122 0.195535
C31   C     C_R   0.556761 0.769466 0.283804 -0.175075
H13   H     H_    0.483272 0.856603 0.315953 0.183267
C32   C     C_R   0.651726 0.643809 0.315472 0.020364
C33   C     C_R   0.507534 0.222719 0.276662 0.357166
C34   C     C_R   0.509939 0.222876 0.202900 0.206311
C35   C     C_R   0.637606 0.191506 0.168576 -0.053358
C36   C     C_R   0.748325 0.192496 0.207147 -0.129257
H14   H     H_    0.841984 0.180850 0.180466 0.239080
C37   C     C_R   0.745070 0.194800 0.280645 -0.141043
H15   H     H_    0.835360 0.187047 0.309795 0.235586
C38   C     C_R   0.626438 0.206607 0.316079 -0.034500
C39   C     C_R   0.084325 0.812408 0.308459 -0.082152
H16   H     H_    0.087571 0.895839 0.338201 0.179436
C40   C     C_R   0.048256 0.833367 0.237696 0.355816
C41   C     C_R   0.050488 0.726166 0.195585 0.011785
C42   C     C_R   0.078626 0.600909 0.227535 -0.151621
H17   H     H_    0.076263 0.518053 0.196891 0.209298
C43   C     C_R   0.121701 0.577823 0.298424 -0.112713
H18   H     H_    0.154603 0.477096 0.320803 0.235937
C44   C     C_R   0.132796 0.681338 0.337713 -0.045006
O14   O     O_R   0.089490 0.825610 0.930610 -0.476634
O15   O     O_R   0.818370 0.054540 0.929880 -0.481055
C45   C     C_R   0.697920 0.104610 0.897295 0.575573
O16   O     O_R   0.605870 0.077310 0.915530 -0.453189
O17   O     O_R   0.646440 0.806700 0.917570 -0.420716
C46   C     C_R   0.751925 0.707708 0.883104 0.545753
O18   O     O_R   0.837200 0.593290 0.915250 -0.387846
O19   O     O_R   0.065330 0.635370 0.931590 -0.444992
C47   C     C_R   0.107567 0.713654 0.903050 0.598270
O20   O     O_R   0.068300 0.828790 0.091860 -0.410557
O21   O     O_R   0.798730 0.057480 0.079370 -0.500402
C48   C     C_R   0.671744 0.115716 0.101215 0.573755
O22   O     O_R   0.584680 0.080480 0.076790 -0.457332
O23   O     O_R   0.626790 0.809640 0.067050 -0.488981
C49   C     C_R   0.694285 0.690621 0.097028 0.552572
O24   O     O_R   0.816010 0.596460 0.076500 -0.514512
O25   O     O_R   0.045680 0.638310 0.081070 -0.478797
C50   C     C_R   0.027080 0.746213 0.118923 0.564525
Cr4   Cr    Cr6+3 0.937620 0.938540 0.007640 1.151066
Cr5   Cr    Cr6+3 0.625150 0.937450 0.994520 1.187379
Cr6   Cr    Cr6+3 0.937990 0.625080 0.001190 1.183871
O26   O     O_3   0.833590 0.833690 0.001120 -0.386568
F1    F     F_    0.960443 0.510355 0.789503 -0.543223
N1    N     N_R   0.868514 0.249900 0.690267 0.100086
O27   O     O_R   0.926276 0.310619 0.726466 -0.232803
O28   O     O_R   0.921978 0.200410 0.628116 -0.201976
N2    N     N_R   0.873675 0.207560 0.840749 0.107498
O29   O     O_R   0.007525 0.133203 0.826392 -0.186267
O30   O     O_R   0.836511 0.284610 0.898069 -0.257760
N3    N     N_R   0.431482 0.152970 0.809714 0.147872
O31   O     O_R   0.381427 0.169399 0.873894 -0.141455
O32   O     O_R   0.356922 0.131877 0.761049 -0.157738
N4    N     N_R   0.265092 0.444894 0.842464 0.092422
O33   O     O_R   0.368688 0.424171 0.885129 -0.276842
O34   O     O_R   0.178410 0.400329 0.860873 -0.128397
F2    F     F_    0.488138 0.888961 0.808617 -0.474516
N5    N     N_R   0.066395 0.917089 0.672038 0.104467
O35   O     O_R   0.984303 0.937364 0.617411 -0.292062
O36   O     O_R   0.136998 0.984707 0.678291 -0.123084
F3    F     F_    0.841498 0.408998 0.298905 -0.620506
F4    F     F_    0.386423 0.244631 0.309291 -0.587651
N6    N     N_R   0.383533 0.254659 0.163269 0.106424
O37   O     O_R   0.351756 0.332155 0.107379 -0.282278
O38   O     O_R   0.296018 0.213013 0.184710 -0.255385
F5    F     F_    0.449956 0.871151 0.679114 -0.473202
F6    F     F_    0.024280 0.954753 0.209394 -0.630542
F7    F     F_    0.639991 0.893964 0.653365 -0.620248
N7    N     N_R   0.547776 0.615156 0.848463 0.102813
O39   O     O_R   0.573840 0.539137 0.904555 -0.249109
O40   O     O_R   0.417956 0.707615 0.835632 -0.231408

loop_
_geom_bond_atom_site_label_1
_geom_bond_atom_site_label_2
_geom_bond_distance
_ccdc_geom_bond_type
C2    C12   1.477903 S    
O20   C50   1.301219 A    
C49   O24   1.279050 A    
C18   N3    1.480405 S    
O15   Cr4   1.970341 S    
C39   C44   1.399758 A    
C41   C42   1.407549 A    
O25   C50   1.306753 A    
C35   C48   1.454425 S    
C24   C25   1.379456 A    
O14   C47   1.256853 A    
C45   O16   1.220981 A    
C30   H12   1.083162 S    
O23   Cr5   1.970688 S    
O4    Cr2   1.936421 S    
C21   H9    1.074437 S    
H3    C13   1.113090 S    
N2    O30   1.301388 A    
O8    Cr1   1.971481 S    
N7    O39   1.300723 A    
C42   C43   1.395246 A    
O17   C46   1.304075 A    
C43   C44   1.402125 A    
C15   C16   1.417945 A    
O25   Cr6   1.939286 S    
C30   C31   1.398574 A    
N5    O35   1.301851 A    
C29   C30   1.405332 A    
C14   H5    1.112076 S    
C18   C19   1.356130 A    
C8    F7    1.387331 S    
C27   C32   1.408342 A    
C9    F1    1.375115 S    
C22   C23   1.387017 A    
O6    C3    1.270416 A    
N5    O36   1.300924 A    
O17   Cr5   1.960705 S    
C4    C44   1.459754 S    
C7    H1    1.109592 S    
C39   H16   1.083700 S    
N3    O31   1.299756 A    
O20   Cr4   2.086142 S    
O9    Cr2   2.057442 S    
C6    C38   1.453572 S    
C31   H13   1.083125 S    
Cr3   O13   1.979488 S    
C40   F6    1.352504 S    
O16   Cr5   2.094806 S    
C19   C20   1.378303 A    
N6    O38   1.301453 A    
O6    Cr3   1.969985 S    
C21   C22   1.392860 A    
C29   C49   1.460403 S    
C28   C29   1.398707 A    
C31   C32   1.406247 A    
O1    Cr1   2.095885 S    
C42   H17   1.082852 S    
C25   C26   1.400704 A    
C7    C11   1.564858 S    
O10   Cr2   1.954742 S    
Cr1   O13   1.963787 S    
O1    C3    1.299813 A    
C46   O18   1.305585 A    
C16   C17   1.416629 A    
O19   C47   1.279560 A    
O15   C45   1.296296 A    
C21   C26   1.405619 A    
C36   C37   1.382399 A    
O5    Cr3   2.066103 S    
C10   C14   1.536033 S    
C25   N5    1.419801 S    
C37   H15   1.082408 S    
C33   C38   1.414246 A    
O21   Cr4   1.966759 S    
C37   C38   1.396174 A    
C12   C14   1.560025 S    
C15   C20   1.434009 A    
C10   C11   1.555145 S    
O18   Cr6   2.059725 S    
Cr6   O26   2.017014 S    
O7    Cr1   2.091651 S    
C1    C26   1.460684 S    
C33   C34   1.387623 A    
O12   C6    1.269265 A    
C5    C32   1.464180 S    
C23   C47   1.447634 S    
N4    O34   1.299396 A    
C43   H18   1.081807 S    
N1    O28   1.297331 A    
O19   Cr6   1.947977 S    
C8    F5    1.387848 S    
C33   F4    1.358836 S    
C17   C18   1.454539 A    
Cr2   O13   2.016689 S    
C9    C13   1.533116 S    
C36   H14   1.081820 S    
Cr5   O26   1.977954 S    
C19   H8    1.075503 S    
C1    O3    1.279640 A    
Cr4   O26   1.963018 S    
N6    O37   1.301692 A    
C13   H7    1.106101 S    
C16   N2    1.444869 S    
C28   H11   1.084081 S    
C23   C24   1.394107 A    
C3    C20   1.462728 S    
N7    O40   1.300341 A    
N4    O33   1.301592 A    
O2    Cr1   1.971479 S    
C27   F3    1.356667 S    
C17   C45   1.454655 S    
O14   Cr4   2.085384 S    
C40   C41   1.402714 A    
O8    C4    1.288000 A    
O11   Cr3   2.087376 S    
C27   C28   1.372614 A    
C2    O5    1.287184 A    
N2    O29   1.300748 A    
H2    C9    1.108719 S    
C35   C36   1.398110 A    
C9    C11   1.551592 S    
O2    C1    1.278562 A    
C15   N1    1.454799 S    
C12   C13   1.550840 S    
C7    F2    1.381067 S    
C34   N6    1.440300 S    
C48   O22   1.258673 A    
O4    C2    1.274825 A    
O24   Cr6   2.068372 S    
O7    C6    1.247161 A    
C22   N4    1.417864 S    
O23   C49   1.292093 A    
N3    O32   1.304684 A    
C14   H6    1.092946 S    
C7    C8    1.558291 S    
O22   Cr5   2.083341 S    
C11   C46   1.491098 S    
N1    O27   1.296549 A    
O12   Cr3   1.949490 S    
C34   C35   1.407864 A    
O3    Cr2   2.076791 S    
C4    O9    1.274813 A    
C10   H4    1.106555 S    
C24   H10   1.074516 S    
O10   C5    1.288107 A    
C39   C40   1.375520 A    
C41   C50   1.463778 S    
O21   C48   1.270035 A    
C10   N7    1.472484 S    
C5    O11   1.273568 A    
C8    C12   1.555769 S    
