data_mof_unit_31193.cif
_audit_creation_date              2012-12-10T17:22:01-0500
_audit_creation_method            fapswitch 2.2
_symmetry_space_group_name_H-M    P1
_symmetry_Int_Tables_number       1
_space_group_crystal_system       triclinic
_cell_length_a                    10.147321
_cell_length_b                    10.783109
_cell_length_c                    15.755034
_cell_angle_alpha                 89.925559
_cell_angle_beta                  81.222935
_cell_angle_gamma                 95.34108
_cell_volume                      1696.115065

loop_
_atom_site_label
_atom_site_type_symbol
_atom_type_description
_atom_site_fract_x
_atom_site_fract_y
_atom_site_fract_z
_atom_type_partial_charge
C1    C     C_R   0.556408 0.732961 0.497208 0.852167
C2    C     C_2   0.489883 0.934268 0.536336 -0.195671
C3    C     C_2   0.411909 0.135026 0.523074 -0.394181
C4    C     C_R   0.500113 0.500022 0.661591 0.897690
C5    C     C_2   0.510437 0.067683 0.536841 -0.125665
C6    C     C_2   0.925670 0.513262 0.506104 -0.122555
C7    C     C_2   0.072875 0.500697 0.487819 -0.031011
C8    C     C_R   0.443823 0.267229 0.508669 0.940376
C9    C     C_R   0.499912 0.500187 0.338384 0.912446
C10   C     C_3   0.386329 0.580134 0.961190 0.054543
C11   C     C_3   0.636790 0.556225 0.935862 -0.479597
C12   C     C_3   0.383919 0.578466 0.060656 -0.021635
C13   C     C_3   0.643514 0.555130 0.034920 0.438460
C14   C     C_1   0.499804 0.500831 0.249617 -0.189575
C15   C     C_3   0.497687 0.500420 0.917488 0.123902
C16   C     C_3   0.141682 0.599945 0.105189 -0.833238
C17   C     C_3   0.800018 0.924126 0.556799 -0.791081
C18   C     C_3   0.143206 0.716812 0.631658 -0.723422
C19   C     C_3   0.288349 0.770694 0.920628 -0.809334
C20   C     C_3   0.812680 0.738159 0.044729 -0.799869
C21   C     C_3   0.860423 0.446126 0.000187 -0.826724
C22   C     C_1   0.348097 0.297564 0.933409 0.164072
C23   C     C_3   0.500065 0.501684 0.082505 0.113606
C24   C     C_3   0.471301 0.365549 0.052870 -0.446016
C25   C     C_3   0.472924 0.364131 0.954406 -0.172440
C26   C     C_1   0.500001 0.501302 0.174365 -0.098045
C27   C     C_1   0.499139 0.499927 0.825613 -0.036214
C28   C     C_1   0.500091 0.499871 0.750325 -0.174579
C29   C     C_2   0.590053 0.865243 0.507312 0.038279
H1    H     H_    0.400161 0.674909 0.084265 0.138520
H2    H     H_    0.713454 0.503814 0.897965 0.189305
H3    H     H_    0.659181 0.652393 0.908835 0.168738
H4    H     H_    0.556644 0.310703 0.924966 0.147285
H5    H     H_    0.374000 0.323002 0.088059 0.190566
H6    H     H_    0.252733 0.486067 0.164086 0.245395
H7    H     H_    0.051111 0.552732 0.145052 0.240086
H8    H     H_    0.117597 0.611208 0.039584 0.255370
H9    H     H_    0.164840 0.692478 0.133166 0.242327
H10   H     H_    0.776424 0.879012 0.432301 0.234715
H11   H     H_    0.900968 0.973164 0.535928 0.235593
H12   H     H_    0.289716 0.534911 0.945845 0.180954
H13   H     H_    0.811855 0.828556 0.579231 0.242263
H14   H     H_    0.748389 0.976113 0.610885 0.246390
H15   H     H_    0.119083 0.529317 0.662702 0.241973
H16   H     H_    0.082810 0.745336 0.692012 0.209897
H17   H     H_    0.126078 0.778109 0.578422 0.229708
H18   H     H_    0.250420 0.727899 0.639565 0.254121
H19   H     H_    0.483384 0.764172 0.944728 0.219140
H20   H     H_    0.316798 0.854929 0.878891 0.250188
H21   H     H_    0.244719 0.800682 0.985371 0.244075
H22   H     H_    0.212877 0.709907 0.891886 0.240168
H23   H     H_    0.547657 0.305985 0.069703 0.188297
H24   H     H_    0.609037 0.745107 0.053319 0.195976
H25   H     H_    0.818611 0.835185 0.068416 0.237240
H26   H     H_    0.847799 0.740926 0.974422 0.233733
H27   H     H_    0.879382 0.686485 0.078348 0.263349
H28   H     H_    0.757690 0.480323 0.121877 0.239400
H29   H     H_    0.933825 0.409213 0.036905 0.250202
H30   H     H_    0.909636 0.530297 0.963780 0.246114
H31   H     H_    0.832842 0.372190 0.955418 0.244825
H32   H     H_    0.610544 0.110842 0.540411 0.214214
H33   H     H_    0.387136 0.893076 0.552135 0.163219
H34   H     H_    0.311275 0.092599 0.520013 0.152872
H35   H     H_    0.111450 0.449965 0.431393 0.120673
H36   H     H_    0.886777 0.579153 0.553299 0.191730
H37   H     H_    0.881944 0.387750 0.420380 0.162134
N1    N     N_2   0.842720 0.448890 0.465540 -0.208390
N2    N     N_2   0.157250 0.551040 0.534500 -0.024341
N3    N     N_2   0.252779 0.524577 0.104184 -0.291813
N4    N     N_2   0.725167 0.918530 0.485519 -0.300575
N5    N     N_2   0.102707 0.588574 0.614775 -0.250795
N6    N     N_2   0.406337 0.707170 0.925818 -0.306883
N7    N     N_2   0.675594 0.682527 0.063735 -0.313785
N8    N     N_2   0.742265 0.474084 0.058708 -0.285987
N9    N     N_1   0.250397 0.245583 0.916981 -0.216080
O1    O     O_R   0.431050 0.692470 0.506940 -0.619605
O2    O     O_R   0.651130 0.659650 0.484820 -0.608448
O3    O     O_R   0.389910 0.516410 0.633920 -0.614138
O4    O     O_R   0.609990 0.483590 0.611800 -0.613637
O5    O     O_R   0.348870 0.340350 0.515180 -0.616994
O6    O     O_R   0.568950 0.307530 0.493060 -0.607005
O7    O     O_R   0.390010 0.516410 0.388200 -0.618030
O8    O     O_R   0.610090 0.483590 0.366080 -0.604875
Zn1   Zn    Zn3+2 0.353060 0.521920 0.514770 0.944776
Zn2   Zn    Zn3+2 0.646940 0.478080 0.485230 0.941163

loop_
_geom_bond_atom_site_label_1
_geom_bond_atom_site_label_2
_ccdc_geom_bond_type
C24   H23   S    
C12   N3    S    
C1    O2    A    
C20   H27   S    
C18   H18   S    
O1    Zn1   S    
C12   C23   S    
C2    C29   D    
C21   H30   S    
C10   C15   S    
C15   C25   S    
C13   C23   S    
H15   N5    S    
C23   C26   S    
C17   H13   S    
C7    N2    D    
C11   C15   S    
C6    H36   S    
C22   C25   S    
C23   C24   S    
O5    Zn1   S    
C9    O7    A    
H37   N1    S    
O2    Zn2   S    
C17   N4    S    
C10   H12   S    
C19   N6    S    
C22   N9    T    
H19   N6    S    
C20   H26   S    
C18   H17   S    
C4    C28   S    
N1    Zn2   S    
C8    O6    A    
N2    Zn1   S    
C24   C25   S    
C4    O4    A    
C20   H25   S    
C3    C8    S    
C21   N8    S    
C24   H5    S    
C17   H11   S    
H28   N8    S    
C9    C14   S    
C17   H14   S    
C4    O3    A    
C19   H22   S    
C19   H20   S    
C15   C27   S    
C1    C29   S    
C5    H32   S    
C14   C26   T    
C10   C12   S    
C21   H31   S    
C6    N1    D    
O8    Zn2   S    
C13   N7    S    
C11   H3    S    
O7    Zn1   S    
C2    C5    S    
C18   H16   S    
O4    Zn2   S    
C29   N4    S    
C18   N5    S    
C12   H1    S    
C1    O1    A    
H24   N7    S    
C16   N3    S    
C3    C5    D    
C9    O8    A    
C6    C7    S    
C3    H34   S    
C16   H8    S    
C21   H29   S    
C16   H7    S    
C11   C13   S    
C19   H21   S    
N2    N5    S    
H10   N4    S    
C20   N7    S    
C7    H35   S    
C11   H2    S    
O3    Zn1   S    
C13   N8    S    
H6    N3    S    
C25   H4    S    
C27   C28   T    
C8    O5    A    
O6    Zn2   S    
C2    H33   S    
C16   H9    S    
C10   N6    S    
