data_mof_unit_19342.cif
_audit_creation_date              2012-12-11T21:14:56-0500
_audit_creation_method            fapswitch 2.2
_symmetry_space_group_name_H-M    P1
_symmetry_Int_Tables_number       1
_space_group_crystal_system       triclinic
_cell_length_a                    8.225963
_cell_length_b                    18.751571
_cell_length_c                    27.03861
_cell_angle_alpha                 99.277323
_cell_angle_beta                  92.692128
_cell_angle_gamma                 88.261587
_cell_volume                      4110.5047004

loop_
_atom_site_label
_atom_site_type_symbol
_atom_type_description
_atom_site_fract_x
_atom_site_fract_y
_atom_site_fract_z
_atom_type_partial_charge
Ba1   Ba    Ba6+2 0.160810 0.465630 0.521640 1.644492
Ba2   Ba    Ba6+2 0.649380 0.534380 0.478400 1.653692
C1    C     C_3   0.428988 0.280811 0.699224 -0.356555
C2    C     C_3   0.436955 0.304982 0.648364 0.338676
C3    C     C_3   0.466361 0.314339 0.394072 0.305940
C4    C     C_3   0.467940 0.233238 0.376429 -0.374854
C5    C     C_3   0.836066 0.732812 0.374555 0.358809
C6    C     C_3   0.802434 0.804995 0.356709 -0.327880
C7    C     C_3   0.364172 0.698433 0.351271 0.343149
C8    C     C_3   0.370457 0.724663 0.301098 -0.349013
C9    C     C_R   0.990617 0.047984 0.475910 0.003123
C10   C     C_R   0.076213 0.095423 0.451752 -0.049780
C11   C     C_R   0.224435 0.072342 0.430122 -0.118432
C12   C     C_3   0.964966 0.271064 0.627387 0.365167
C13   C     C_R   0.287062 0.002654 0.431977 0.583070
C14   C     C_R   0.200348 0.953991 0.454691 -0.053164
C15   C     C_R   0.051702 0.976733 0.476848 -0.048477
C16   C     C_R   0.258723 0.882917 0.454924 -0.066173
C17   C     C_R   0.168900 0.832809 0.475550 -0.042034
C18   C     C_R   0.021852 0.856176 0.499198 0.013110
C19   C     C_R   0.964319 0.928420 0.499933 0.049033
C20   C     C_R   0.220109 0.759620 0.472616 -0.004583
C21   C     C_R   0.122731 0.710881 0.490986 -0.297797
C22   C     C_R   0.984177 0.733718 0.517613 0.035815
C23   C     C_3   0.998496 0.199020 0.645231 -0.361850
C24   C     C_R   0.932933 0.807671 0.522465 -0.073362
C25   C     C_R   0.843467 0.071504 0.498615 0.056400
C26   C     C_R   0.784903 0.143561 0.498981 0.002528
C27   C     C_R   0.874136 0.192110 0.475911 -0.045954
C28   C     C_R   0.014332 0.165588 0.450117 -0.011261
C29   C     C_R   0.794444 0.834547 0.548987 -0.011601
C30   C     C_R   0.732420 0.904844 0.547495 -0.038161
C31   C     C_R   0.817667 0.952075 0.522923 -0.048553
C32   C     C_R   0.756641 0.023308 0.521869 0.036546
C33   C     C_R   0.584580 0.928514 0.569553 0.583218
C34   C     C_3   0.840165 0.620526 0.631151 0.302090
C35   C     C_R   0.522732 0.998191 0.567396 -0.127160
C36   C     C_R   0.608513 0.046205 0.544156 -0.037211
C37   C     C_R   0.637252 0.166796 0.522413 -0.034726
C38   C     C_R   0.548792 0.116872 0.543592 -0.081124
C39   C     C_R   0.584134 0.239619 0.524553 -0.005972
C40   C     C_R   0.678946 0.288007 0.504871 -0.300687
C41   C     C_R   0.821446 0.265728 0.480198 0.033879
C42   C     C_R   0.313614 0.460483 0.176660 0.594862
C43   C     C_R   0.186791 0.576788 0.174509 0.579873
C44   C     C_2   0.058602 0.557585 0.273206 -0.087950
C45   C     C_3   0.841117 0.637238 0.688010 -0.354684
C46   C     C_3   0.050316 0.581483 0.329045 -0.050397
C47   C     C_1   0.284048 0.499768 0.337720 0.004045
C48   C     C_2   0.323162 0.501660 0.290882 -0.095434
C49   C     C_2   0.199033 0.526950 0.254361 0.190330
C50   C     C_R   0.309729 0.512323 0.099273 -0.081330
C51   C     C_R   0.359246 0.456865 0.126543 -0.033671
C52   C     C_R   0.454232 0.398882 0.103312 -0.058470
C53   C     C_R   0.219024 0.571667 0.123240 -0.024942
C54   C     C_2   0.159595 0.536989 0.359113 -0.286181
C55   C     C_2   0.647326 0.470546 0.636837 -0.292389
C56   C     C_3   0.965479 0.383485 0.369945 0.298556
C57   C     C_R   0.489846 0.445735 0.974021 0.020597
C58   C     C_R   0.339665 0.560986 0.969859 0.020611
C59   C     C_R   0.435600 0.501570 0.946713 0.049013
C60   C     C_R   0.584147 0.387678 0.948969 -0.101670
C61   C     C_R   0.620050 0.383694 0.898937 -0.058451
C62   C     C_R   0.566896 0.438064 0.871608 -0.023441
C63   C     C_R   0.477534 0.497783 0.895573 -0.081342
C64   C     C_R   0.429847 0.553552 0.868336 -0.034160
C65   C     C_R   0.476296 0.549856 0.818208 0.596787
C66   C     C_R   0.600661 0.433086 0.820542 0.577264
C67   C     C_3   0.973455 0.368203 0.313082 -0.361962
C68   C     C_2   0.737704 0.452368 0.723848 -0.087648
C69   C     C_3   0.749742 0.425883 0.668562 -0.053321
C70   C     C_1   0.518701 0.507608 0.655828 0.034141
C71   C     C_2   0.476936 0.508912 0.703013 -0.103141
C72   C     C_2   0.596189 0.483618 0.741050 0.183229
C73   C     C_R   0.448066 0.449396 0.025030 0.020860
C74   C     C_R   0.351445 0.508618 0.048127 0.049026
C75   C     C_R   0.296350 0.564260 0.020759 0.020304
C76   C     C_R   0.499115 0.395462 0.054042 -0.099050
C77   C     C_R   0.163508 0.625490 0.095720 -0.057663
C78   C     C_3   0.321364 0.685972 0.593607 0.285863
C79   C     C_R   0.291210 0.615455 0.941031 -0.098835
C80   C     C_R   0.336591 0.612013 0.891731 -0.058729
C81   C     C_R   0.199355 0.621568 0.045616 -0.100933
C82   C     C_3   0.275634 0.763614 0.615201 -0.330350
H1    H     H_    0.372598 0.358279 0.650094 0.079540
H2    H     H_    0.750514 0.680971 0.699996 0.139371
H3    H     H_    0.810121 0.588277 0.703578 0.067737
H4    H     H_    0.963767 0.654764 0.703073 0.134795
H5    H     H_    0.083818 0.403301 0.386541 0.010539
H6    H     H_    0.871169 0.425987 0.379820 0.090491
H7    H     H_    0.075302 0.329539 0.302036 0.144623
H8    H     H_    0.992697 0.419152 0.298347 0.069054
H9    H     H_    0.857345 0.344957 0.296264 0.132938
H10   H     H_    0.209269 0.657916 0.578167 0.007812
H11   H     H_    0.407780 0.685977 0.563277 0.069079
H12   H     H_    0.300844 0.272027 0.707474 0.150005
H13   H     H_    0.172735 0.764333 0.640285 0.114778
H14   H     H_    0.239379 0.794723 0.584742 0.108041
H15   H     H_    0.380773 0.789969 0.637177 0.197916
H16   H     H_    0.566737 0.309908 0.640496 -0.053377
H17   H     H_    0.479259 0.323224 0.728814 0.133030
H18   H     H_    0.594124 0.331446 0.402395 0.017220
H19   H     H_    0.396978 0.325653 0.428844 0.055252
H20   H     H_    0.540348 0.219655 0.342442 0.138674
H21   H     H_    0.523341 0.204968 0.406401 0.064873
H22   H     H_    0.341596 0.214548 0.367468 0.120982
H23   H     H_    0.501020 0.229757 0.699626 0.118506
H24   H     H_    0.933648 0.155592 0.619781 0.067234
H25   H     H_    0.793277 0.736426 0.413266 0.082633
H26   H     H_    0.970126 0.723631 0.375314 -0.079171
H27   H     H_    0.670643 0.818774 0.356733 0.174942
H28   H     H_    0.867910 0.848163 0.381999 0.079148
H29   H     H_    0.845146 0.802583 0.318085 0.116294
H30   H     H_    0.234634 0.697084 0.360552 -0.062239
H31   H     H_    0.420382 0.643304 0.347685 0.071475
H32   H     H_    0.308010 0.685870 0.271554 0.124329
H33   H     H_    0.498582 0.728792 0.291016 0.150301
H34   H     H_    0.012057 0.268013 0.589278 0.081649
H35   H     H_    0.308681 0.778470 0.303039 0.127460
H36   H     H_    0.292971 0.108547 0.412083 0.093456
H37   H     H_    0.161113 0.654625 0.487152 0.067862
H38   H     H_    0.373136 0.866876 0.437966 0.161846
H39   H     H_    0.079601 0.199337 0.429420 0.096928
H40   H     H_    0.730427 0.800708 0.569910 0.155747
H41   H     H_    0.408034 0.014829 0.584446 0.099238
H42   H     H_    0.433994 0.132432 0.560533 0.106362
H43   H     H_    0.830738 0.279368 0.625302 -0.074401
H44   H     H_    0.638245 0.343849 0.507421 0.074373
H45   H     H_    0.445460 0.486576 0.279297 0.133526
H46   H     H_    0.496679 0.355856 0.123503 0.123902
H47   H     H_    0.833729 0.437083 0.749264 0.127375
H48   H     H_    0.691566 0.337518 0.881729 0.124140
H49   H     H_    0.632058 0.343504 0.966599 0.070439
H50   H     H_    0.574357 0.349214 0.040039 0.070511
H51   H     H_    0.960085 0.573560 0.248924 0.125602
H52   H     H_    0.090140 0.671120 0.112828 0.124168
H53   H     H_    0.218403 0.662273 0.955336 0.070878
H54   H     H_    0.130638 0.185871 0.645354 0.150809
H55   H     H_    0.296197 0.655456 0.871687 0.123729
H56   H     H_    0.354558 0.526194 0.713800 0.141844
H57   H     H_    0.148576 0.664918 0.027634 0.070680
H58   H     H_    0.155910 0.549156 0.399742 0.078257
H59   H     H_    0.659902 0.458626 0.596541 0.086137
H60   H     H_    0.954945 0.201269 0.683710 0.124049
H61   H     H_    0.716445 0.605546 0.616627 0.011954
H62   H     H_    0.925864 0.574534 0.620292 0.079491
N1    N     N_R   0.231489 0.520924 0.200944 -0.422307
N2    N     N_R   0.558306 0.489265 0.794072 -0.421234
O1    O     O_2   0.106080 0.324280 0.466820 -0.463096
O2    O     O_3   0.395133 0.652858 0.632017 -0.621556
O3    O     O_3   0.042316 0.326597 0.660707 -0.588481
O4    O     O_2   0.704230 0.675760 0.533200 -0.462881
O5    O     O_3   0.951180 0.586390 0.529420 -0.491928
O6    O     O_3   0.434080 0.629720 0.443130 -0.481636
O7    O     O_3   0.886371 0.682270 0.612829 -0.638851
O8    O     O_3   0.351080 0.462080 0.440130 -0.479102
O9    O     O_3   0.839200 0.593040 0.416790 -0.480223
O10   O     O_2   0.723468 0.536562 0.325287 -0.496040
O11   O     O_3   0.753833 0.677640 0.342252 -0.585242
O12   O     O_3   0.859130 0.413620 0.470620 -0.489266
O13   O     O_3   0.459240 0.537930 0.559910 -0.488621
O14   O     O_2   0.583120 0.462390 0.379940 -0.460082
O15   O     O_3   0.392820 0.349462 0.356260 -0.625496
O16   O     O_2   0.558475 0.757193 0.480251 -0.477941
O17   O     O_3   0.450814 0.745705 0.387853 -0.598310
O18   O     O_2   0.346048 0.409311 0.198466 -0.596338
O19   O     O_2   0.665925 0.377777 0.799539 -0.618964
O20   O     O_2   0.121611 0.631981 0.195730 -0.615167
O21   O     O_2   0.445405 0.601215 0.796413 -0.597531
O22   O     O_3   0.376230 0.370290 0.556910 -0.483718
O23   O     O_2   0.245361 0.243670 0.520572 -0.491486
O24   O     O_3   0.927767 0.319552 0.387176 -0.638858
O25   O     O_3   0.361804 0.253611 0.611751 -0.607241
O26   O     O_2   0.227190 0.537650 0.620070 -0.463271
O27   O     O_3   0.971110 0.406970 0.583250 -0.483017
O28   O     O_2   0.079301 0.466968 0.674695 -0.494896
P1    P     P_3+3 0.929380 0.335110 0.452880 0.975085
P2    P     P_3+3 0.398530 0.559060 0.613740 1.000826
P3    P     P_3+3 0.961812 0.409178 0.647642 0.950896
P4    P     P_3+3 0.880940 0.664900 0.547160 0.974667
P5    P     P_3+3 0.840282 0.594676 0.352530 0.955957
P6    P     P_3+3 0.392566 0.276419 0.552773 0.936529
P7    P     P_3+3 0.398232 0.442853 0.376746 0.963473
P8    P     P_3+3 0.415207 0.723405 0.446615 0.952565
F1    F     F_    0.431716 0.982675 0.411006 -0.716436
F2    F     F_    0.497968 0.883905 0.592649 -0.747216

loop_
_geom_bond_atom_site_label_1
_geom_bond_atom_site_label_2
_ccdc_geom_bond_type
O24   P1    S    
C36   C38   A    
C3    H19   S    
C57   C73   A    
C39   C40   A    
O23   P6    D    
C56   O24   S    
C17   C18   A    
C70   P2    S    
C78   C82   S    
Ba2   O14   S    
C79   C80   A    
C5    C6    S    
C37   C39   A    
C51   C52   A    
O7    P4    S    
C78   O2    S    
C77   H52   S    
C13   F1    S    
C35   C36   A    
Ba2   P4    S    
C7    H30   S    
C3    O15   S    
C60   H49   S    
C72   N2    S    
C26   C27   A    
C33   C35   A    
C22   C24   A    
C29   H40   S    
Ba1   Ba2   S    
C67   H9    S    
C6    H28   S    
C3    C4    S    
C5    O11   S    
C75   C81   A    
C13   C14   A    
Ba1   O22   S    
C42   N1    Am   
C23   H24   S    
C34   C45   S    
C16   C17   A    
C71   C72   S    
C69   P3    S    
Ba2   O9    S    
C20   P8    S    
C8    H35   S    
C44   H51   S    
C47   P7    S    
Ba1   P1    S    
C42   C51   A    
O28   P3    D    
Ba1   O27   S    
Ba2   O12   S    
C14   C15   A    
C12   H34   S    
Ba1   P2    S    
O6    P8    S    
C12   O3    S    
C22   P4    S    
C21   C22   A    
Ba1   O1    S    
C1    H12   S    
C4    H20   S    
C67   H8    S    
C7    C8    S    
O26   P2    D    
C66   N2    Am   
C50   C53   A    
C40   H44   S    
O2    P2    S    
C54   H58   S    
C1    H17   S    
C64   C65   A    
O5    P4    S    
Ba1   O13   S    
C24   C29   A    
Ba2   O6    S    
C32   C36   A    
C27   C41   A    
C82   H15   S    
O9    P5    S    
Ba2   O13   S    
C56   H5    S    
O8    P7    S    
C48   C49   S    
C35   H41   S    
C25   C32   A    
Ba2   O4    S    
C52   H46   S    
C44   C46   S    
Ba1   O26   S    
C57   C59   A    
C55   H59   S    
O15   P7    S    
C7    H31   S    
C45   H2    S    
C17   C20   A    
C74   C75   A    
C21   H37   S    
C6    H27   S    
C58   C75   A    
C81   H57   S    
C55   C70   D    
O27   P3    S    
C2    H1    S    
C26   C37   A    
C1    H23   S    
C44   C49   D    
O11   P5    S    
C12   H43   S    
C5    H25   S    
C58   C59   A    
C45   H3    S    
O4    P4    D    
Ba1   O8    S    
C79   H53   S    
C73   C74   A    
C30   C33   A    
C68   C72   D    
C80   H55   S    
O16   P8    D    
C48   H45   S    
C64   C80   A    
C53   C77   A    
C58   C79   A    
O3    P3    S    
C29   C30   A    
C9    C25   A    
C38   H42   S    
C18   C19   A    
C60   C61   A    
O1    P1    D    
C31   C32   A    
C4    H22   S    
C42   O18   D    
C61   H48   S    
C55   C69   S    
C78   H11   S    
Ba1   O5    S    
C28   H39   S    
C56   H6    S    
C49   N1    S    
C68   C69   S    
C6    H29   S    
C16   H38   S    
C34   H62   S    
O25   P6    S    
C47   C48   D    
Ba2   O5    S    
C2    O25   S    
C2    H16   S    
C39   P6    S    
C23   H60   S    
C40   C41   A    
C82   H13   S    
C78   H10   S    
C1    C2    S    
C62   C66   A    
C37   C38   A    
C11   H36   S    
C8    H32   S    
C50   C51   A    
C46   C54   S    
C3    H18   S    
C41   P1    S    
C57   C60   A    
Ba2   O8    S    
C10   C28   A    
C43   N1    Am   
O17   P8    S    
Ba1   O12   S    
C70   C71   D    
C50   C74   A    
C9    C15   A    
C9    C10   A    
C56   C67   S    
C71   H56   S    
C47   C54   D    
C5    H26   S    
C82   H14   S    
C30   C31   A    
C11   C13   A    
C23   H54   S    
O14   P7    D    
C8    H33   S    
C45   H4    S    
C77   C81   A    
C46   P5    S    
C18   C24   A    
C33   F2    S    
C62   C63   A    
C7    O17   S    
C68   H47   S    
C4    H21   S    
C12   C23   S    
C65   O21   D    
C73   C76   A    
C15   C19   A    
O12   P1    S    
C43   O20   D    
C27   C28   A    
C61   C62   A    
C76   H50   S    
C66   O19   D    
C59   C63   A    
C34   H61   S    
C19   C31   A    
C10   C11   A    
C43   C53   A    
C14   C16   A    
C63   C64   A    
C65   N2    Am   
C20   C21   A    
C52   C76   A    
O13   P2    S    
C67   H7    S    
O22   P6    S    
C34   O7    S    
O10   P5    D    
C25   C26   A    
