data_mof_unit_58174.cif
_audit_creation_date              2012-12-10T18:36:18-0500
_audit_creation_method            fapswitch 2.2
_symmetry_space_group_name_H-M    P1
_symmetry_Int_Tables_number       1
_space_group_crystal_system       triclinic
_cell_length_a                    15.129537
_cell_length_b                    15.51728
_cell_length_c                    19.12755
_cell_angle_alpha                 91.414666
_cell_angle_beta                  104.458436
_cell_angle_gamma                 81.09886
_cell_volume                      4295.51594363

loop_
_atom_site_label
_atom_site_type_symbol
_atom_type_description
_atom_site_fract_x
_atom_site_fract_y
_atom_site_fract_z
_atom_type_partial_charge
C1    C     C_R   0.440975 0.661956 0.487590 0.877475
C2    C     C_R   0.530716 0.189124 0.486973 -0.270407
C3    C     C_R   0.440359 0.900946 0.468052 0.064932
C4    C     C_R   0.552996 0.099728 0.497351 0.063115
C5    C     C_R   0.346037 0.935839 0.459674 0.039093
C6    C     C_R   0.647263 0.063100 0.515674 0.033513
C7    C     C_R   0.508306 0.956202 0.474072 0.052477
C8    C     C_R   0.483334 0.046060 0.485457 0.049797
C9    C     C_R   0.391201 0.078298 0.489163 0.072009
C10   C     C_R   0.601558 0.924760 0.472209 0.068937
C11   C     C_R   0.322774 0.025312 0.469336 -0.285348
C12   C     C_R   0.558689 0.337954 0.510868 0.881764
C13   C     C_R   0.670610 0.975194 0.500744 -0.283106
C14   C     C_R   0.840359 0.638563 0.610976 0.062135
C15   C     C_R   0.158245 0.360401 0.394072 0.068801
C16   C     C_R   0.501605 0.499228 0.633987 0.867094
C17   C     C_R   0.498546 0.500801 0.366195 0.880592
C18   C     C_R   0.754222 0.609285 0.595822 0.284479
C19   C     C_R   0.242892 0.391161 0.404735 0.275204
C20   C     C_R   0.793954 0.517568 0.503138 0.082717
C21   C     C_R   0.209608 0.484992 0.498533 0.142114
C22   C     C_R   0.886600 0.532246 0.525575 -0.034303
C23   C     C_R   0.403007 0.754952 0.473563 -0.176054
C24   C     C_R   0.116731 0.468445 0.481106 -0.081639
C25   C     C_R   0.905963 0.601337 0.573700 0.029694
C26   C     C_R   0.095999 0.397764 0.434221 0.042183
C27   C     C_R   0.959252 0.484257 0.498943 0.135938
C28   C     C_R   0.044655 0.516259 0.509138 0.104913
C29   C     C_R   0.052433 0.597010 0.543575 -0.258750
C30   C     C_R   0.950323 0.403490 0.465149 -0.214273
C31   C     C_R   0.988365 0.634590 0.580330 -0.187531
C32   C     C_R   0.014633 0.363804 0.430013 -0.209916
C33   C     C_R   0.483540 0.427912 0.743386 0.016301
C34   C     C_R   0.594524 0.244222 0.515237 -0.166341
C35   C     C_R   0.504385 0.586957 0.261211 0.032552
C36   C     C_R   0.486175 0.431271 0.817086 0.226993
C37   C     C_R   0.503867 0.590516 0.187413 0.163708
C38   C     C_R   0.508288 0.506712 0.856352 -0.036146
C39   C     C_R   0.490617 0.515685 0.145051 0.016564
C40   C     C_R   0.531569 0.576849 0.822532 0.076288
C41   C     C_R   0.479014 0.437850 0.175211 0.087167
C42   C     C_R   0.530155 0.572014 0.749866 -0.215284
C43   C     C_R   0.481998 0.434248 0.248147 -0.314539
C44   C     C_R   0.504913 0.499256 0.710141 -0.131759
C45   C     C_R   0.278738 0.879068 0.449588 0.166566
C46   C     C_R   0.493926 0.507808 0.290370 -0.077787
C47   C     C_R   0.493336 0.517278 0.069846 0.350192
C48   C     C_R   0.502262 0.512996 0.931142 0.297054
C49   C     C_3   0.268928 0.407557 0.287317 -0.728874
C50   C     C_3   0.650542 0.724017 0.638957 -0.709637
C51   C     C_3   0.848043 0.791064 0.642635 -0.806796
C52   C     C_3   0.159994 0.209146 0.357010 -0.837770
C53   C     C_3   0.548320 0.301255 0.890529 -0.753682
C54   C     C_3   0.431716 0.726258 0.124389 -0.795418
C55   C     C_3   0.811664 0.293069 0.560129 -0.728407
C56   C     C_R   0.714948 0.117225 0.543701 0.166577
C57   C     C_3   0.222150 0.700437 0.362571 -0.734865
C58   C     C_3   0.145211 0.924348 0.497489 -0.836874
C59   C     C_3   0.864569 0.075704 0.518197 -0.807550
C60   C     C_R   0.307502 0.787796 0.453124 0.180230
C61   C     C_R   0.686640 0.207922 0.548758 0.170817
C62   C     C_R   0.466556 0.811929 0.480327 -0.284569
H1    H     H_    0.002218 0.692595 0.610911 0.161258
H2    H     H_    0.538091 0.786410 0.500256 0.208168
H3    H     H_    0.401253 0.365339 0.664610 0.217952
H4    H     H_    0.516299 0.328044 0.679122 0.186001
H5    H     H_    0.451397 0.678262 0.323039 0.168749
H6    H     H_    0.521013 0.716816 0.280673 0.191933
H7    H     H_    0.249526 0.595101 0.549848 0.194658
H8    H     H_    0.217750 0.522211 0.604255 0.174576
H9    H     H_    0.724557 0.523236 0.398053 0.230989
H10   H     H_    0.723761 0.428633 0.443010 0.226154
H11   H     H_    0.319349 0.299251 0.355009 0.211937
H12   H     H_    0.000862 0.304466 0.401286 0.156965
H13   H     H_    0.200087 0.391557 0.259016 0.232181
H14   H     H_    0.317114 0.384078 0.253499 0.225164
H15   H     H_    0.264280 0.479519 0.292314 0.247562
H16   H     H_    0.716424 0.606977 0.692077 0.213891
H17   H     H_    0.678452 0.755242 0.691005 0.226311
H18   H     H_    0.574944 0.727610 0.631332 0.226994
H19   H     H_    0.663227 0.761080 0.594543 0.231531
H20   H     H_    0.922858 0.682341 0.704786 0.225999
H21   H     H_    0.915449 0.815006 0.651802 0.223130
H22   H     H_    0.805831 0.831948 0.674443 0.248440
H23   H     H_    0.106816 0.633428 0.542490 0.140641
H24   H     H_    0.812255 0.799664 0.584372 0.236773
H25   H     H_    0.065007 0.315001 0.307089 0.231107
H26   H     H_    0.135514 0.193432 0.404653 0.235235
H27   H     H_    0.236037 0.191778 0.368728 0.244076
H28   H     H_    0.129920 0.168745 0.311087 0.243561
H29   H     H_    0.418153 0.325295 0.820298 0.244605
H30   H     H_    0.587280 0.269949 0.852050 0.237345
H31   H     H_    0.527339 0.249586 0.919243 0.237794
H32   H     H_    0.593804 0.337907 0.931194 0.248165
H33   H     H_    0.569487 0.698517 0.183435 0.227078
H34   H     H_    0.893855 0.369129 0.465125 0.162725
H35   H     H_    0.398209 0.752202 0.167673 0.232858
H36   H     H_    0.383261 0.691681 0.084267 0.252140
H37   H     H_    0.447528 0.781708 0.096484 0.242389
H38   H     H_    0.614362 0.640480 0.899727 0.208259
H39   H     H_    0.499519 0.680088 0.883706 0.194705
H40   H     H_    0.521954 0.311789 0.155460 0.184245
H41   H     H_    0.406040 0.341467 0.134992 0.188372
H42   H     H_    0.777676 0.234442 0.644266 0.226967
H43   H     H_    0.818172 0.360617 0.578461 0.242084
H44   H     H_    0.787895 0.293239 0.500289 0.220396
H45   H     H_    0.546384 0.626586 0.723707 0.169208
H46   H     H_    0.880936 0.252701 0.577206 0.232651
H47   H     H_    0.181422 0.749174 0.453134 0.237545
H48   H     H_    0.187740 0.756138 0.325171 0.229243
H49   H     H_    0.175869 0.650196 0.355808 0.229362
H50   H     H_    0.287065 0.670821 0.348476 0.238317
H51   H     H_    0.161665 0.964809 0.399126 0.225860
H52   H     H_    0.174335 0.976991 0.531777 0.239116
H53   H     H_    0.161112 0.863319 0.530330 0.240820
H54   H     H_    0.068999 0.942647 0.479993 0.244480
H55   H     H_    0.820549 0.024810 0.600856 0.222077
H56   H     H_    0.477052 0.373290 0.272345 0.151849
H57   H     H_    0.938790 0.058334 0.546086 0.238417
H58   H     H_    0.854865 0.138806 0.489191 0.251788
H59   H     H_    0.845162 0.024871 0.477912 0.230139
H60   H     H_    0.347076 0.147589 0.568399 0.194641
H61   H     H_    0.314247 0.198317 0.486968 0.180247
H62   H     H_    0.679183 0.806009 0.471800 0.173934
H63   H     H_    0.651342 0.862040 0.392898 0.193497
H64   H     H_    0.252966 0.053577 0.469706 0.161260
H65   H     H_    0.741678 0.946435 0.505562 0.156749
H66   H     H_    0.462279 0.216187 0.456163 0.191385
N1    N     N_R   0.572087 0.537667 0.983138 -0.195024
N2    N     N_3   0.762999 0.475821 0.436006 -0.469029
N3    N     N_2   0.301595 0.365789 0.357985 -0.252097
N4    N     N_2   0.692602 0.633441 0.640634 -0.245220
N5    N     N_2   0.861829 0.700745 0.666376 -0.294851
N6    N     N_2   0.132269 0.300574 0.337424 -0.304706
N7    N     N_2   0.466975 0.358745 0.852095 -0.290134
N8    N     N_2   0.516242 0.667841 0.154731 -0.303934
N9    N     N_3   0.552929 0.655298 0.859660 -0.460150
N10   N     N_3   0.468102 0.361324 0.132328 -0.443473
N11   N     N_2   0.747289 0.260099 0.593147 -0.282223
N12   N     N_R   0.423385 0.492795 0.017947 -0.159884
N13   N     N_2   0.241011 0.729665 0.436488 -0.289727
N14   N     N_2   0.182515 0.912295 0.434537 -0.311314
N15   N     N_2   0.809775 0.081498 0.570845 -0.304843
N16   N     N_3   0.369099 0.160059 0.522505 -0.460495
N17   N     N_3   0.625740 0.845800 0.436002 -0.462526
N18   N     N_R   0.567598 0.540001 0.051571 -0.160860
N19   N     N_R   0.427733 0.490879 0.949515 -0.147250
N20   N     N_R   0.731690 0.552730 0.540620 -0.142579
N21   N     N_R   0.268310 0.447270 0.459380 -0.126186
N22   N     N_3   0.463149 0.350300 0.704168 -0.470010
N23   N     N_3   0.513211 0.661847 0.307293 -0.437638
N24   N     N_3   0.248618 0.530107 0.562161 -0.404342
O1    O     O_R   0.383120 0.605620 0.479520 -0.583596
O2    O     O_R   0.616880 0.394380 0.520480 -0.597874
O3    O     O_R   0.531890 0.639510 0.505590 -0.593638
O4    O     O_R   0.468110 0.360490 0.494410 -0.610715
O5    O     O_R   0.425590 0.483060 0.588820 -0.597486
O6    O     O_R   0.574410 0.516940 0.411180 -0.622933
O7    O     O_R   0.574360 0.516950 0.614890 -0.596045
O8    O     O_R   0.425640 0.483050 0.385110 -0.592728
Zn1   Zn    Zn3+2 0.400660 0.477370 0.482600 0.957978
Zn2   Zn    Zn3+2 0.599340 0.522630 0.517400 0.948529

loop_
_geom_bond_atom_site_label_1
_geom_bond_atom_site_label_2
_ccdc_geom_bond_type
C25   C31   A    
C7    C10   A    
C38   C40   A    
H11   N3    S    
C45   C60   A    
C26   C32   A    
C59   H58   S    
C51   H21   S    
C52   N6    S    
C14   C18   A    
C52   H28   S    
C53   N7    S    
H60   N16   S    
C4    C8    A    
C50   H17   S    
C7    C8    A    
C39   C41   A    
C15   N6    S    
C15   C19   A    
C37   N8    S    
C49   N3    S    
C42   C44   A    
C55   H43   S    
C28   C29   A    
C35   C37   A    
C24   C26   A    
H4    N22   S    
C3    C7    A    
C33   N22   S    
C32   H12   S    
C57   H50   S    
C48   N19   A    
C33   C36   A    
C55   N11   S    
H51   N14   S    
N12   N19   A    
H40   N10   S    
C21   N24   S    
H3    N22   S    
C1    O3    A    
C17   O8    A    
H16   N4    S    
C62   H2    S    
C56   N15   S    
C18   N4    S    
C23   C62   A    
C8    C9    A    
C33   C44   A    
C22   C25   A    
H61   N16   S    
C30   H34   S    
C20   N20   A    
C54   H35   S    
C21   N21   A    
C42   H45   S    
C16   C44   S    
C29   H23   S    
H10   N2    S    
C2    C34   A    
C40   C42   A    
C16   O5    A    
C47   N18   A    
C59   N15   S    
C16   O7    A    
C58   H54   S    
C41   C43   A    
H25   N6    S    
C52   H27   S    
C35   N23   S    
C12   O4    A    
C51   H24   S    
C9    N16   S    
O3    Zn2   S    
C19   N3    S    
C23   C60   A    
O7    Zn2   S    
C55   H44   S    
H5    N23   S    
C31   H1    S    
C52   H26   S    
C11   H64   S    
H8    N24   S    
C17   C46   S    
C4    C6    A    
H41   N10   S    
C12   O2    A    
H39   N9    S    
C61   N11   S    
C15   C26   A    
C10   N17   S    
C53   H31   S    
C34   C61   A    
O1    Zn1   S    
C47   N12   A    
C2    C4    A    
C60   N13   S    
C58   N14   S    
C57   H48   S    
C54   N8    S    
C40   N9    S    
C53   H30   S    
C49   H13   S    
C41   N10   S    
C49   H14   S    
C1    O1    A    
C17   O6    A    
C9    C11   A    
N1    N18   A    
C50   N4    S    
C20   C22   A    
O4    Zn1   S    
C1    C23   S    
C22   C27   A    
C58   H53   S    
C54   H37   S    
N21   Zn1   S    
C12   C34   S    
C36   N7    S    
O5    Zn1   S    
C39   C47   S    
C3    C62   A    
C59   H57   S    
H55   N15   S    
C53   H32   S    
H7    N24   S    
C38   C48   S    
O2    Zn2   S    
C24   C28   A    
C6    C56   A    
C3    C5    A    
C10   C13   A    
C50   H18   S    
H47   N13   S    
C5    C11   A    
C14   N5    S    
H62   N17   S    
C18   N20   A    
H42   N11   S    
C57   N13   S    
C55   H46   S    
N20   Zn2   S    
O8    Zn1   S    
H20   N5    S    
C36   C38   A    
C27   C30   A    
C37   C39   A    
H6    N23   S    
H63   N17   S    
C6    C13   A    
C30   C32   A    
C51   N5    S    
C57   H49   S    
C5    C45   A    
H33   N8    S    
C19   N21   A    
C49   H15   S    
C45   N14   S    
C14   C25   A    
C48   N1    A    
C43   C46   A    
H38   N9    S    
O6    Zn2   S    
C43   H56   S    
C59   H59   S    
C13   H65   S    
H29   N7    S    
C29   C31   A    
C21   C24   A    
C27   C28   A    
C58   H52   S    
C56   C61   A    
C54   H36   S    
C20   N2    S    
C35   C46   A    
C51   H22   S    
C50   H19   S    
H9    N2    S    
C2    H66   S    
