data_mof_unit_27732.cif
_audit_creation_date              2012-10-26T19:59:13-0400
_audit_creation_method            fapswitch 2.2
_symmetry_space_group_name_H-M    P1
_symmetry_Int_Tables_number       1
_space_group_crystal_system       triclinic
_cell_length_a                    7.49727
_cell_length_b                    8.68124
_cell_length_c                    15.825818
_cell_angle_alpha                 94.855587
_cell_angle_beta                  75.739164
_cell_angle_gamma                 102.793621
_cell_volume                      973.014452953

loop_
_atom_site_label
_atom_site_type_symbol
_atom_type_description
_atom_site_fract_x
_atom_site_fract_y
_atom_site_fract_z
_atom_type_partial_charge
C1    C     C_R   0.544667 0.799799 0.502718 0.529836
C2    C     C_R   0.614621 0.511992 0.334212 0.523357
C3    C     C_R   0.316877 0.476634 0.760778 -0.004895
C4    C     C_R   0.683050 0.534229 0.240082 -0.005468
C5    C     C_R   0.073125 0.384219 0.887699 -0.134266
C6    C     C_R   0.916384 0.657757 0.117416 -0.135202
C7    C     C_R   0.128632 0.411822 0.798709 -0.145392
C8    C     C_R   0.865461 0.616719 0.204559 -0.146482
C9    C     C_R   0.446247 0.521328 0.813241 -0.135482
C10   C     C_R   0.555403 0.486962 0.187029 -0.133192
C11   C     C_R   0.393543 0.497561 0.903483 0.029513
C12   C     C_R   0.455347 0.200201 0.497264 0.529909
C13   C     C_R   0.600296 0.532028 0.099824 0.029195
C14   C     C_R   0.204514 0.423497 0.939835 0.045805
C15   C     C_R   0.785160 0.617641 0.065197 0.044071
C16   C     C_R   0.524452 0.540058 0.957732 0.027636
C17   C     C_R   0.466665 0.496597 0.046737 0.028718
C18   C     C_3   0.941143 0.703402 0.640831 -0.040501
C19   C     C_3   0.059978 0.297278 0.358857 -0.040179
C20   C     C_R   0.276346 0.422337 0.080053 -0.142327
C21   C     C_R   0.710169 0.626497 0.926320 -0.143600
C22   C     C_R   0.148500 0.387455 0.027559 -0.134046
C23   C     C_R   0.837047 0.664480 0.979228 -0.133876
C24   C     C_2   0.569623 0.967708 0.504158 -0.159860
C25   C     C_2   0.430413 0.032291 0.495796 -0.160003
C26   C     C_R   0.385439 0.489187 0.665891 0.523820
Cu1   Cu    Cu3+1 0.322120 0.483240 0.490330 1.042109
Cu2   Cu    Cu3+1 0.677880 0.516760 0.509670 1.041606
H1    H     H_    0.004130 0.331121 0.056034 0.118347
H2    H     H_    0.762046 0.670976 0.861464 0.090609
H3    H     H_    0.703856 0.038506 0.512184 0.164921
H4    H     H_    0.296185 0.961494 0.487765 0.165021
H5    H     H_    0.904643 0.594096 0.679013 0.105658
H6    H     H_    0.814687 0.751391 0.643394 0.141208
H7    H     H_    0.036077 0.793216 0.672558 0.093500
H8    H     H_    0.185343 0.248015 0.356697 0.140886
H9    H     H_    0.098480 0.407025 0.320901 0.107347
H10   H     H_    0.965056 0.208540 0.326575 0.092877
H11   H     H_    0.977545 0.731165 0.952394 0.115862
H12   H     H_    0.420792 0.416289 0.216379 0.096885
H13   H     H_    0.589376 0.569203 0.781158 0.100975
H14   H     H_    0.966278 0.654100 0.244698 0.129208
H15   H     H_    0.026196 0.377015 0.759235 0.127579
H16   H     H_    0.927869 0.329682 0.915613 0.119069
H17   H     H_    0.057676 0.723336 0.091126 0.118585
H18   H     H_    0.218730 0.391972 0.147208 0.091349
N1    N     N_2   0.945180 0.542040 0.524240 0.102697
N2    N     N_2   0.054820 0.457960 0.475760 0.102849
O1    O     O_R   0.384450 0.714270 0.493720 -0.454994
O2    O     O_3   0.963784 0.321654 0.445356 -0.469228
O3    O     O_R   0.615550 0.285730 0.506280 -0.454890
O4    O     O_R   0.684880 0.742590 0.510050 -0.506359
O5    O     O_R   0.315120 0.257410 0.489950 -0.506444
O6    O     O_R   0.265540 0.477900 0.617090 -0.492866
O7    O     O_R   0.734460 0.522100 0.382910 -0.492882
O8    O     O_R   0.565970 0.506210 0.633420 -0.540327
O9    O     O_R   0.434030 0.493790 0.366580 -0.539041
O10   O     O_3   0.036262 0.678786 0.554180 -0.469208

loop_
_geom_bond_atom_site_label_1
_geom_bond_atom_site_label_2
_ccdc_geom_bond_type
Cu1   N2    S    
C2    C4    S    
Cu1   O5    S    
Cu2   N1    S    
C16   C21   A    
C3    C9    A    
C6    H17   S    
C7    H15   S    
C3    C26   S    
C18   H6    S    
C21   H2    S    
C9    H13   S    
N1    N2    D    
C13   C17   A    
C12   C25   S    
C4    C8    A    
C14   C22   A    
C25   H4    S    
N2    O2    S    
Cu2   O8    S    
C24   H3    S    
N1    O10   S    
C9    C11   A    
C19   O2    S    
C5    C14   A    
C22   H1    S    
C23   H11   S    
C26   O6    A    
C18   H7    S    
C15   C23   A    
C1    O4    A    
C5    H16   S    
C20   C22   A    
C6    C8    A    
C3    C7    A    
C2    O7    A    
C13   C15   A    
C21   C23   A    
Cu2   O3    S    
C11   C14   A    
Cu1   O6    S    
C11   C16   A    
C18   H5    S    
C2    O9    A    
Cu1   O1    S    
C12   O3    A    
C24   C25   D    
C1    C24   S    
C10   H12   S    
Cu1   O9    S    
Cu1   Cu2   S    
C5    C7    A    
C19   H10   S    
C16   C17   A    
Cu2   O4    S    
C19   H9    S    
C6    C15   A    
C1    O1    A    
C17   C20   A    
Cu2   O7    S    
C19   H8    S    
C20   H18   S    
C12   O5    A    
C4    C10   A    
C8    H14   S    
C18   O10   S    
C10   C13   A    
C26   O8    A    
