data_mof_unit_15042.cif
_audit_creation_date              2012-12-11T17:37:50-0500
_audit_creation_method            fapswitch 2.2
_symmetry_space_group_name_H-M    P1
_symmetry_Int_Tables_number       1
_space_group_crystal_system       triclinic
_cell_length_a                    12.958232
_cell_length_b                    13.022251
_cell_length_c                    15.305904
_cell_angle_alpha                 116.022234
_cell_angle_beta                  64.383835
_cell_angle_gamma                 96.652895
_cell_volume                      2084.13599586

loop_
_atom_site_label
_atom_site_type_symbol
_atom_type_description
_atom_site_fract_x
_atom_site_fract_y
_atom_site_fract_z
_atom_type_partial_charge
Br1   Br    Br    0.963373 0.724378 0.590611 -0.680189
C1    C     C_R   0.022942 0.834019 0.029948 -0.129276
C2    C     C_R   0.319463 0.539778 0.780777 -0.153012
C3    C     C_R   0.244582 0.480176 0.107297 -0.094934
C4    C     C_R   0.701234 0.406975 0.209158 -0.136496
C5    C     C_R   0.985854 0.301988 0.697479 -0.166938
C6    C     C_R   0.336780 0.540898 0.075026 -0.014573
C7    C     C_R   0.928172 0.207863 0.698114 0.052126
C8    C     C_R   0.324601 0.475685 0.679072 0.053225
C9    C     C_R   0.080969 0.145267 0.975191 0.034081
C10   C     C_R   0.347177 0.802444 0.338324 -0.069631
C11   C     C_R   0.229783 0.837843 0.391268 -0.143126
C12   C     C_R   0.704492 0.439000 0.306125 0.053414
C13   C     C_R   0.186012 0.912159 0.368671 0.127620
C14   C     C_R   0.260537 0.949230 0.291417 -0.167420
C15   C     C_R   0.377735 0.912548 0.237651 -0.124369
C16   C     C_R   0.739241 0.578657 0.948175 -0.172467
C17   C     C_R   0.421250 0.840663 0.262307 -0.096498
C18   C     C_R   0.047763 0.061235 0.532282 -0.223262
C19   C     C_R   0.936812 0.113681 0.602414 0.070567
C20   C     C_R   0.840976 0.073219 0.581465 0.027277
C21   C     C_R   0.860338 0.975082 0.486892 -0.220893
C22   C     C_R   0.972413 0.923355 0.416580 0.084472
C23   C     C_R   0.637593 0.560339 0.020907 0.192456
C24   C     C_R   0.067003 0.965966 0.438376 0.021783
C25   C     C_R   0.629707 0.069471 0.686577 -0.152235
C26   C     C_R   0.519006 0.125097 0.756061 -0.114083
C27   C     C_R   0.500314 0.243584 0.794232 -0.080743
C28   C     C_R   0.962700 0.717689 0.315427 -0.114548
C29   C     C_R   0.592203 0.306635 0.762606 -0.120034
C30   C     C_R   0.702888 0.251361 0.693070 -0.128322
C31   C     C_R   0.723064 0.132234 0.654956 0.119019
C32   C     C_R   0.919662 0.265963 0.363395 -0.104992
C33   C     C_R   0.813399 0.293768 0.372103 -0.142726
C34   C     C_R   0.989184 0.824609 0.320941 0.050474
C35   C     C_R   0.738063 0.384770 0.465112 0.100544
C36   C     C_R   0.770709 0.447025 0.549600 -0.127317
C37   C     C_R   0.876981 0.419074 0.540544 -0.094216
C38   C     C_R   0.951226 0.328326 0.447679 -0.120364
C39   C     C_R   0.527425 0.426904 0.567245 -0.243901
C40   C     C_R   0.662002 0.479983 0.046145 -0.074398
C41   C     C_R   0.421120 0.463081 0.582695 0.067683
C42   C     C_R   0.408461 0.488909 0.507429 0.021553
C43   C     C_R   0.503332 0.469266 0.413231 -0.238917
C44   C     C_R   0.610514 0.434459 0.397403 0.062290
C45   C     C_R   0.322471 0.578548 0.010123 -0.211002
C46   C     C_R   0.624834 0.414946 0.475345 0.029749
C47   C     C_R   0.252315 0.496613 0.454081 -0.194835
C48   C     C_R   0.152490 0.550041 0.472590 -0.172029
C49   C     C_R   0.100955 0.652658 0.564499 0.361489
C50   C     C_R   0.150409 0.702874 0.637147 -0.189059
C51   C     C_R   0.250856 0.650299 0.618373 -0.180615
C52   C     C_R   0.049528 0.817965 0.219252 -0.126238
C53   C     C_R   0.301747 0.545620 0.527485 0.120233
C54   C     C_2   0.430579 0.564852 0.105484 0.724765
C55   C     C_2   0.524984 0.599475 0.046137 -0.442797
C56   C     C_R   0.905213 0.200691 0.791351 -0.113264
C57   C     C_2   0.892662 0.964035 0.024917 -0.197948
C58   C     C_2   0.874428 0.053887 0.118402 -0.171615
C59   C     C_R   0.800040 0.496381 0.306403 -0.125313
C60   C     C_R   0.927009 0.748462 0.929738 -0.142439
C61   C     C_R   0.949190 0.854058 0.993627 0.135259
C62   C     C_R   0.216324 0.449408 0.685627 -0.108144
C63   C     C_R   0.095472 0.251177 0.047361 -0.131857
C64   C     C_R   0.996580 0.167320 0.950476 -0.087009
F1    F     F_    0.427315 0.532460 0.179825 -0.750234
H1    H     H_    0.064728 0.898073 0.073874 0.088358
H2    H     H_    0.380969 0.746765 0.357367 0.158515
H3    H     H_    0.173800 0.810876 0.452528 0.160019
H4    H     H_    0.643095 0.351503 0.180021 0.103027
H5    H     H_    0.228429 0.009033 0.275284 0.101930
H6    H     H_    0.435229 0.941944 0.178706 0.114337
H7    H     H_    0.119784 0.094283 0.551890 0.141626
H8    H     H_    0.789335 0.940220 0.466531 0.131114
H9    H     H_    0.642766 0.977767 0.658496 0.123664
H10   H     H_    0.447676 0.076308 0.780525 0.112036
H11   H     H_    0.414646 0.286486 0.848118 0.118098
H12   H     H_    0.855364 0.139370 0.818692 0.106276
H13   H     H_    0.577664 0.398343 0.791784 0.107436
H14   H     H_    0.772601 0.301512 0.668641 0.116969
H15   H     H_    0.033321 0.306545 0.440924 0.103334
H16   H     H_    0.746657 0.626955 0.904264 0.105771
H17   H     H_    0.977765 0.196163 0.291383 0.100068
H18   H     H_    0.789344 0.244788 0.306820 0.125502
H19   H     H_    0.714347 0.517879 0.622098 0.120620
H20   H     H_    0.901578 0.467583 0.605748 0.126332
H21   H     H_    0.534200 0.408933 0.627533 0.132583
H22   H     H_    0.495116 0.491351 0.355712 0.166053
H23   H     H_    0.190790 0.404126 0.620812 0.102974
H24   H     H_    0.290557 0.416590 0.383059 0.138047
H25   H     H_    0.115029 0.511425 0.415686 0.150569
H26   H     H_    0.111189 0.782669 0.708079 0.149369
H27   H     H_    0.924080 0.692647 0.380555 0.144566
H28   H     H_    0.288602 0.690747 0.674950 0.131230
H29   H     H_    0.523809 0.635523 0.994877 0.110332
H30   H     H_    0.856081 0.969705 0.975250 0.140099
H31   H     H_    0.904254 0.050714 0.173410 0.128975
H32   H     H_    0.604823 0.437282 0.092422 0.165711
H33   H     H_    0.092552 0.885052 0.197853 0.086819
H34   H     H_    0.155280 0.266519 0.082762 0.097774
H35   H     H_    0.832256 0.525868 0.366990 0.124454
H36   H     H_    0.882655 0.733726 0.880387 0.114374
H37   H     H_    0.366341 0.643060 0.984668 0.104181
H38   H     H_    0.964845 0.104518 0.895447 0.100121
H39   H     H_    0.388371 0.578495 0.802603 0.101263
H40   H     H_    0.222364 0.451576 0.169279 0.127036
H41   H     H_    0.010987 0.335264 0.638348 0.096678
H42   H     H_    0.512410 0.814551 0.222497 0.128023
N1    N     N_R   0.037320 0.720000 0.995830 -0.043965
N2    N     N_R   0.824900 0.517970 0.936430 -0.041794
N3    N     N_R   0.003190 0.648180 0.211390 -0.044402
N4    N     N_R   0.774330 0.457010 0.995830 -0.061887
N5    N     N_R   0.053760 0.709130 0.151980 -0.035892
N6    N     N_R   0.853840 0.498830 0.211390 -0.042920
N7    N     N_R   0.974250 0.667320 0.936430 -0.040088
N8    N     N_R   0.225670 0.542990 0.004170 -0.028676
N9    N     N_R   0.946240 0.290870 0.848020 -0.045671
N10   N     N_R   0.146160 0.501170 0.788610 -0.041480
N11   N     N_R   0.025750 0.332680 0.063570 -0.041402
N12   N     N_R   0.962680 0.280000 0.004170 -0.045395
N13   N     N_R   0.209230 0.553860 0.848010 -0.039151
N14   N     N_R   0.175100 0.482030 0.063570 -0.048708
N15   N     N_R   0.996810 0.351820 0.788610 -0.036418
N16   N     N_R   0.790770 0.446140 0.151990 -0.042233
Ni1   Ni    Ni4+2 0.130310 0.630310 0.000000 0.212947
Ni2   Ni    Ni4+2 0.869690 0.369690 0.000000 0.209664
Ni3   Ni    Ni4+2 0.985660 0.509480 0.863750 0.216097
Ni4   Ni    Ni4+2 0.014340 0.490520 0.136250 0.219305

loop_
_geom_bond_atom_site_label_1
_geom_bond_atom_site_label_2
_ccdc_geom_bond_type
C57   C61   S    
C39   C46   A    
C12   C44   S    
C11   H3    S    
C10   C17   A    
C25   C31   A    
C34   C52   A    
C59   N6    A    
C18   C19   A    
C15   H6    S    
C6    C54   S    
C54   C55   D    
C16   N2    A    
C30   H14   S    
C1    N1    A    
C12   C59   A    
C2    H39   S    
C47   C53   A    
C4    N16   A    
C8    C41   S    
C7    C19   S    
C63   N11   A    
N8    N14   A    
C37   H20   S    
C39   H21   S    
C56   N9    A    
C35   C36   A    
C29   C30   A    
C7    C56   A    
N12   Ni2   S    
N5    Ni1   S    
C55   H29   S    
C14   C15   A    
N7    Ni3   S    
C35   C46   S    
C16   H16   S    
C57   H30   S    
C52   N5    A    
C40   N4    A    
C60   N7    A    
C5    H41   S    
C51   H28   S    
Br1   C49   S    
C4    C12   A    
N2    Ni3   S    
N6    N16   A    
N11   Ni4   S    
C39   C41   A    
C47   H24   S    
C20   C21   A    
C23   C40   A    
C33   H18   S    
C5    N15   A    
C48   H25   S    
C3    C6    A    
C51   C53   A    
C49   C50   A    
C17   H42   S    
C44   C46   A    
C20   C31   S    
C16   C23   A    
C50   C51   A    
C6    C45   A    
C18   H7    S    
C38   H15   S    
C1    H1    S    
C62   N10   A    
C5    C7    A    
C57   C58   D    
C3    H40   S    
C40   H32   S    
C52   H33   S    
N10   N13   A    
C42   C43   A    
N13   Ni1   S    
C36   C37   A    
C2    C8    A    
C50   H26   S    
N6    Ni4   S    
C42   C53   S    
N15   Ni3   S    
C30   C31   A    
N11   N12   A    
C62   H23   S    
C32   C33   A    
C25   C26   A    
C3    N14   A    
N3    N5    A    
C15   C17   A    
C32   C38   A    
C27   H11   S    
C32   H17   S    
C29   H13   S    
N1    Ni1   S    
C47   C48   A    
C11   C13   A    
C22   C34   S    
N8    Ni1   S    
C58   H31   S    
C41   C42   A    
C21   H8    S    
C59   H35   S    
C26   C27   A    
C54   F1    S    
C10   H2    S    
N16   Ni2   S    
N9    Ni2   S    
C9    C64   A    
C36   H19   S    
C8    C62   A    
N4    Ni2   S    
C56   H12   S    
C28   N3    A    
C21   C22   A    
C9    C63   A    
C43   C44   A    
C4    H4    S    
C10   C11   A    
C23   C55   S    
C14   H5    S    
C45   H37   S    
C28   C34   A    
C45   N8    A    
C27   C29   A    
C60   H36   S    
N9    N15   A    
C28   H27   S    
C37   C38   A    
C64   N12   A    
C33   C35   A    
C22   C24   A    
C13   C24   S    
N14   Ni4   S    
C60   C61   A    
C18   C24   A    
N2    N4    A    
N1    N7    A    
C2    N13   A    
C63   H34   S    
C19   C20   A    
C25   H9    S    
C48   C49   A    
N10   Ni3   S    
N3    Ni4   S    
C13   C14   A    
C64   H38   S    
C43   H22   S    
C1    C61   A    
C26   H10   S    
