data_mof_unit_35031.cif
_audit_creation_date              2012-12-11T14:42:10-0500
_audit_creation_method            fapswitch 2.2
_symmetry_space_group_name_H-M    P1
_symmetry_Int_Tables_number       1
_space_group_crystal_system       triclinic
_cell_length_a                    18.988067
_cell_length_b                    10.942373
_cell_length_c                    18.875715
_cell_angle_alpha                 89.834543
_cell_angle_beta                  90.076198
_cell_angle_gamma                 89.95169
_cell_volume                      3921.87123863

loop_
_atom_site_label
_atom_site_type_symbol
_atom_type_description
_atom_site_fract_x
_atom_site_fract_y
_atom_site_fract_z
_atom_type_partial_charge
C1    C     C_R   0.725898 0.958681 0.855006 0.571513
C2    C     C_R   0.274136 0.958947 0.144942 0.571362
C3    C     C_R   0.225898 0.458681 0.855006 0.571513
C4    C     C_R   0.774136 0.458947 0.144942 0.571363
C5    C     C_R   0.695750 0.461432 0.037431 0.084164
C6    C     C_R   0.304296 0.460915 0.962385 0.084212
C7    C     C_R   0.195750 0.961432 0.037431 0.084164
C8    C     C_R   0.804296 0.960915 0.962385 0.084212
C9    C     C_R   0.759966 0.430702 0.070834 0.072440
C10   C     C_R   0.240077 0.430226 0.929124 0.072404
C11   C     C_R   0.259966 0.930702 0.070834 0.072440
C12   C     C_R   0.740077 0.930226 0.929124 0.072404
C13   C     C_R   0.817521 0.392938 0.029837 -0.161772
C14   C     C_R   0.182484 0.392940 0.970249 -0.161989
C15   C     C_R   0.317522 0.892938 0.029837 -0.161772
C16   C     C_R   0.682484 0.892941 0.970249 -0.161988
C17   C     C_R   0.812322 0.386869 0.957397 -0.141484
C18   C     C_R   0.187594 0.387578 0.042709 -0.141321
C19   C     C_R   0.312321 0.886869 0.957397 -0.141484
C20   C     C_R   0.687594 0.887578 0.042709 -0.141322
C21   C     C_R   0.747992 0.410532 0.924020 0.011851
C22   C     C_R   0.251946 0.411046 0.075975 0.011866
C23   C     C_R   0.247992 0.910532 0.924020 0.011851
C24   C     C_R   0.751946 0.911046 0.075975 0.011866
C25   C     C_R   0.539012 0.271290 0.525967 -0.123462
C26   C     C_R   0.532454 0.266052 0.453770 -0.134494
C27   C     C_R   0.039014 0.771289 0.525966 -0.123461
C28   C     C_R   0.032455 0.766051 0.453770 -0.134493
C29   C     C_R   0.502945 0.162522 0.423048 0.032165
C30   C     C_R   0.518713 0.171189 0.568000 0.039147
C31   C     C_R   0.002945 0.662522 0.423048 0.032166
C32   C     C_R   0.018714 0.671189 0.568000 0.039147
C33   C     C_R   0.487983 0.058202 0.464059 -0.130608
C34   C     C_R   0.496044 0.062622 0.536843 -0.137687
C35   C     C_R   0.987982 0.558202 0.464059 -0.130609
C36   C     C_R   0.996043 0.562622 0.536843 -0.137688
C37   C     C_R   0.796029 0.323831 0.530772 -0.130641
C38   C     C_R   0.200327 0.332106 0.467945 -0.128703
C39   C     C_R   0.296023 0.823820 0.530771 -0.130637
C40   C     C_R   0.700334 0.832089 0.467948 -0.128698
C41   C     C_R   0.797931 0.334329 0.458270 -0.137168
C42   C     C_R   0.198239 0.341438 0.540419 -0.130888
C43   C     C_R   0.297926 0.834321 0.458268 -0.137167
C44   C     C_R   0.698246 0.841424 0.540423 -0.130889
C45   C     C_R   0.529992 0.177562 0.850952 0.555967
C46   C     C_R   0.469952 0.177728 0.149015 0.553300
C47   C     C_R   0.029992 0.677562 0.850952 0.555967
C48   C     C_R   0.969952 0.677728 0.149015 0.553300
C49   C     C_R   0.753180 0.416735 0.423781 0.032290
C50   C     C_R   0.245832 0.417528 0.575802 0.032401
C51   C     C_R   0.253179 0.916735 0.423781 0.032287
C52   C     C_R   0.745834 0.917525 0.575803 0.032400
C53   C     C_R   0.702274 0.481469 0.462607 -0.139570
C54   C     C_R   0.299455 0.476717 0.537725 -0.132800
C55   C     C_R   0.202277 0.981475 0.462607 -0.139569
C56   C     C_R   0.799453 0.976724 0.537724 -0.132796
C57   C     C_R   0.698919 0.468001 0.535900 -0.146439
C58   C     C_R   0.303266 0.463422 0.464424 -0.133650
C59   C     C_R   0.198921 0.968005 0.535901 -0.146441
C60   C     C_R   0.803264 0.963427 0.464423 -0.133649
C61   C     C_R   0.746768 0.390528 0.570409 0.035801
C62   C     C_R   0.252797 0.392451 0.429090 0.034378
C63   C     C_R   0.246767 0.890524 0.570408 0.035799
C64   C     C_R   0.752798 0.892446 0.429092 0.034379
C65   C     C_R   0.738154 0.364130 0.852689 0.549319
C66   C     C_R   0.261801 0.364381 0.147351 0.548391
C67   C     C_R   0.238154 0.864130 0.852689 0.549320
C68   C     C_R   0.761801 0.864381 0.147351 0.548392
C69   C     C_R   0.727899 0.955414 0.647342 0.547744
C70   C     C_R   0.271942 0.955099 0.352525 0.547239
C71   C     C_R   0.227899 0.455414 0.647342 0.547744
C72   C     C_R   0.771942 0.455099 0.352525 0.547238
C73   C     C_R   0.533689 0.176993 0.642471 0.550661
C74   C     C_R   0.471263 0.175219 0.354315 0.550717
C75   C     C_R   0.033689 0.676993 0.642471 0.550661
C76   C     C_R   0.971263 0.675219 0.354315 0.550716
C77   C     C_R   0.738518 0.358454 0.644713 0.545804
C78   C     C_R   0.261393 0.358729 0.355118 0.547463
C79   C     C_R   0.238517 0.858453 0.644712 0.545804
C80   C     C_R   0.761393 0.858728 0.355118 0.547463
C81   C     C_2   0.498020 0.168833 0.921290 -0.105876
C82   C     C_2   0.501859 0.169247 0.078645 -0.105814
C83   C     C_2   0.998020 0.668833 0.921290 -0.105876
C84   C     C_2   0.001859 0.669246 0.078645 -0.105814
C85   C     C_2   0.492736 0.069273 0.038442 -0.162459
C86   C     C_2   0.507543 0.069138 0.961934 -0.163048
C87   C     C_2   0.992736 0.569273 0.038442 -0.162459
C88   C     C_2   0.007543 0.569138 0.961934 -0.163048
C89   C     C_R   0.690050 0.450173 0.963887 -0.128698
C90   C     C_R   0.309942 0.450143 0.035966 -0.128783
C91   C     C_R   0.190050 0.950173 0.963887 -0.128698
C92   C     C_R   0.809942 0.950143 0.035966 -0.128782
Cr1   Cr    Cr6+3 0.769270 0.163730 0.750710 1.035371
Cr2   Cr    Cr6+3 0.230730 0.163730 0.249290 1.034196
Cr3   Cr    Cr6+3 0.269270 0.663730 0.750710 1.035372
Cr4   Cr    Cr6+3 0.730730 0.663730 0.249290 1.034196
Cr5   Cr    Cr6+3 0.612620 0.009790 0.748780 1.014956
Cr6   Cr    Cr6+3 0.387380 0.009790 0.251220 1.012102
Cr7   Cr    Cr6+3 0.112620 0.509790 0.748780 1.014955
Cr8   Cr    Cr6+3 0.887380 0.509790 0.251220 1.012101
Cr9   Cr    Cr6+3 0.614160 0.322500 0.747710 1.018323
Cr10  Cr    Cr6+3 0.385840 0.322500 0.252290 1.020182
Cr11  Cr    Cr6+3 0.114160 0.822500 0.747710 1.018323
Cr12  Cr    Cr6+3 0.885840 0.822500 0.252290 1.020183
H1    H     H_    0.473411 0.985022 0.061710 0.140879
H2    H     H_    0.527164 0.984982 0.939032 0.140383
H3    H     H_    0.973410 0.485022 0.061710 0.140879
H4    H     H_    0.027164 0.484982 0.939032 0.140383
H5    H     H_    0.837447 0.282693 0.429728 0.125543
H6    H     H_    0.156481 0.293886 0.568188 0.129997
H7    H     H_    0.337439 0.782680 0.429725 0.125543
H8    H     H_    0.656493 0.793864 0.568193 0.129994
H9    H     H_    0.667250 0.545905 0.436877 0.120345
H10   H     H_    0.336712 0.536028 0.564119 0.121069
H11   H     H_    0.167256 0.045917 0.436879 0.120352
H12   H     H_    0.836706 0.036044 0.564117 0.121072
H13   H     H_    0.659348 0.517750 0.565403 0.113087
H14   H     H_    0.345400 0.507914 0.435608 0.121919
H15   H     H_    0.159354 0.017760 0.565405 0.113089
H16   H     H_    0.845393 0.007927 0.435606 0.121916
H17   H     H_    0.524066 0.251858 0.055869 0.098769
H18   H     H_    0.475518 0.251308 0.943733 0.099045
H19   H     H_    0.024066 0.751858 0.055869 0.098769
H20   H     H_    0.975518 0.751308 0.943733 0.099045
H21   H     H_    0.639629 0.467049 0.938718 0.128705
H22   H     H_    0.360369 0.466862 0.061069 0.128648
H23   H     H_    0.139629 0.967048 0.938718 0.128705
H24   H     H_    0.860370 0.966862 0.061069 0.128648
H25   H     H_    0.867878 0.370418 0.053392 0.129377
H26   H     H_    0.132166 0.370356 0.946766 0.129074
H27   H     H_    0.367878 0.870419 0.053392 0.129378
H28   H     H_    0.632166 0.870356 0.946766 0.129074
H29   H     H_    0.857990 0.356313 0.927935 0.137603
H30   H     H_    0.141876 0.357473 0.072309 0.137583
H31   H     H_    0.357990 0.856313 0.927935 0.137603
H32   H     H_    0.641876 0.857473 0.072309 0.137583
H33   H     H_    0.560202 0.354240 0.548694 0.138225
H34   H     H_    0.545461 0.346281 0.422609 0.128277
H35   H     H_    0.060205 0.854238 0.548694 0.138227
H36   H     H_    0.045463 0.846280 0.422608 0.128277
H37   H     H_    0.465310 0.976806 0.440795 0.135851
H38   H     H_    0.483100 0.983225 0.568679 0.121966
H39   H     H_    0.965309 0.476807 0.440795 0.135850
H40   H     H_    0.983098 0.483226 0.568679 0.121964
H41   H     H_    0.832607 0.260742 0.555414 0.128198
H42   H     H_    0.161497 0.274177 0.442784 0.128476
H43   H     H_    0.332598 0.760725 0.555411 0.128201
H44   H     H_    0.661508 0.774150 0.442788 0.128476
O1    O     O_R   0.784320 0.290430 0.830510 -0.515519
O2    O     O_R   0.215680 0.290430 0.169490 -0.515631
O3    O     O_R   0.284320 0.790430 0.830510 -0.515518
O4    O     O_R   0.715680 0.790430 0.169490 -0.515631
O5    O     O_R   0.554640 0.080370 0.673500 -0.503046
O6    O     O_R   0.445360 0.080370 0.326500 -0.508218
O7    O     O_R   0.054640 0.580370 0.673500 -0.503046
O8    O     O_R   0.945360 0.580370 0.326500 -0.508219
O9    O     O_R   0.543920 0.282180 0.666790 -0.526960
O10   O     O_R   0.456080 0.282180 0.333210 -0.520663
O11   O     O_R   0.043920 0.782180 0.666790 -0.526959
O12   O     O_R   0.956080 0.782180 0.333210 -0.520661
O13   O     O_R   0.679040 0.374160 0.674430 -0.507895
O14   O     O_R   0.320960 0.374160 0.325570 -0.502215
O15   O     O_R   0.179040 0.874160 0.674430 -0.507895
O16   O     O_R   0.820960 0.874160 0.325570 -0.502213
O17   O     O_3   0.665350 0.165340 0.749070 -0.253762
O18   O     O_3   0.334650 0.165340 0.250930 -0.250952
O19   O     O_3   0.165350 0.665340 0.749070 -0.253762
O20   O     O_3   0.834650 0.665340 0.250930 -0.250952
O21   O     O_R   0.762640 0.040960 0.825200 -0.459479
O22   O     O_R   0.237360 0.040960 0.174800 -0.459986
O23   O     O_R   0.262640 0.540960 0.825200 -0.459479
O24   O     O_R   0.737360 0.540960 0.174800 -0.459986
O25   O     O_R   0.667400 0.923970 0.829950 -0.540781
O26   O     O_R   0.332600 0.923970 0.170050 -0.540943
O27   O     O_R   0.167400 0.423970 0.829950 -0.540780
O28   O     O_R   0.832600 0.423970 0.170050 -0.540943
O29   O     O_R   0.553960 0.081340 0.821780 -0.499557
O30   O     O_R   0.446040 0.081340 0.178220 -0.500773
O31   O     O_R   0.053960 0.581340 0.821780 -0.499557
O32   O     O_R   0.946040 0.581340 0.178220 -0.500773
O33   O     O_R   0.543180 0.283240 0.826740 -0.514201
O34   O     O_R   0.456820 0.283240 0.173260 -0.516819
O35   O     O_R   0.043180 0.783240 0.826740 -0.514201
O36   O     O_R   0.956820 0.783240 0.173260 -0.516819
O37   O     O_R   0.678360 0.375140 0.822710 -0.506221
O38   O     O_R   0.321640 0.375140 0.177290 -0.506786
O39   O     O_R   0.178360 0.875140 0.822710 -0.506221
O40   O     O_R   0.821640 0.875140 0.177290 -0.506786
O41   O     O_R   0.785050 0.289380 0.670560 -0.528599
O42   O     O_R   0.214950 0.289380 0.329440 -0.529256
O43   O     O_R   0.285050 0.789380 0.670560 -0.528598
O44   O     O_R   0.714950 0.789380 0.329440 -0.529256
O45   O     O_R   0.763320 0.039990 0.676930 -0.506434
O46   O     O_R   0.236680 0.039990 0.323070 -0.506919
O47   O     O_R   0.263320 0.539990 0.676930 -0.506434
O48   O     O_R   0.736680 0.539990 0.323070 -0.506919
O49   O     O_R   0.668130 0.922920 0.670000 -0.524024
O50   O     O_R   0.331870 0.922920 0.330000 -0.526038
O51   O     O_R   0.168130 0.422920 0.670000 -0.524026
O52   O     O_R   0.831870 0.422920 0.330000 -0.526039
N1    N     N_3   0.636284 0.501836 0.077733 -0.604136
H45   H     H_    0.621814 0.588449 0.059187 0.227209
H46   H     H_    0.594400 0.442333 0.067867 0.215652
N2    N     N_3   0.363809 0.500834 0.921910 -0.603338
H47   H     H_    0.378261 0.587541 0.939961 0.227213
H48   H     H_    0.405684 0.441295 0.932172 0.215663
N3    N     N_3   0.136284 0.001836 0.077733 -0.604136
H49   H     H_    0.121814 0.088449 0.059187 0.227209
H50   H     H_    0.094400 0.942333 0.067867 0.215652
N4    N     N_3   0.863809 0.000834 0.921909 -0.603338
H51   H     H_    0.878262 0.087541 0.939961 0.227213
H52   H     H_    0.905684 0.941294 0.932172 0.215663

loop_
_geom_bond_atom_site_label_1
_geom_bond_atom_site_label_2
_ccdc_geom_bond_type
C6    N2    S    
C58   C62   A    
C87   C88   S    
Cr6   O6    S    
Cr11  O19   S    
C73   O5    A    
C55   C59   A    
N1    H46   S    
N1    H45   S    
C14   C18   A    
Cr1   O1    S    
C35   C36   A    
C28   H36   S    
C84   C87   D    
C75   O11   A    
C3    O23   A    
Cr2   O18   S    
C32   C75   S    
C31   C76   S    
C45   O33   A    
C21   C89   A    
C85   C86   S    
C84   H19   S    
C15   C19   A    
C78   O42   A    
Cr1   O21   S    
C50   C54   A    
C91   H23   S    
C46   O30   A    
C13   C17   A    
C37   C41   A    
Cr11  O35   S    
C32   C36   A    
C56   C60   A    
C66   O2    A    
C5    N1    S    
Cr6   O26   S    
C85   H1    S    
Cr12  O20   S    
C19   H31   S    
Cr4   O4    S    
C73   O9    A    
C58   H14   S    
C74   O6    A    
C23   C67   S    
C57   C61   A    
C9    C13   A    
C22   C66   S    
C47   O31   A    
C52   C69   S    
C46   C82   S    
C52   C56   A    
C11   C15   A    
C89   H21   S    
C38   H42   S    
C12   C16   A    
C29   C33   A    
C67   O39   A    
C49   C72   S    
Cr7   O7    S    
Cr8   O28   S    
C59   H15   S    
Cr4   O20   S    
C60   H16   S    
C8    C92   A    
C51   C70   S    
Cr5   O5    S    
C83   H20   S    
Cr6   O30   S    
C18   C22   A    
C82   H17   S    
C51   C55   A    
C81   C86   D    
C2    O26   A    
C16   C20   A    
C71   O47   A    
C88   H4    S    
C70   O46   A    
C44   C52   A    
C83   C88   D    
Cr1   O17   S    
Cr10  O18   S    
C79   O43   A    
C69   O49   A    
C64   C80   S    
Cr10  O10   S    
C86   H2    S    
C1    C12   S    
C43   H7    S    
Cr12  O12   S    
Cr9   O37   S    
C2    C11   S    
C92   H24   S    
C41   C49   A    
C53   H9    S    
Cr7   O19   S    
C77   O13   A    
Cr12  O40   S    
C65   O37   A    
Cr5   O25   S    
Cr6   O50   S    
C67   O3    A    
N3    H49   S    
Cr10  O34   S    
Cr5   O49   S    
Cr11  O39   S    
C7    N3    S    
C10   C14   A    
C61   C77   S    
C48   O36   A    
C30   C73   S    
C30   C34   A    
C19   C23   A    
C63   C79   S    
C29   C74   S    
C33   H37   S    
C25   C26   A    
C6    C90   A    
C24   C68   S    
C76   O8    A    
C80   O16   A    
C25   H33   S    
C48   C84   S    
Cr3   O19   S    
Cr7   O31   S    
C7    C11   A    
C50   C71   S    
Cr2   O42   S    
C5    C9    A    
C68   O4    A    
C72   O52   A    
C34   H38   S    
C22   C90   A    
Cr5   O29   S    
Cr4   O48   S    
Cr10  O14   S    
C1    O25   A    
C69   O45   A    
C33   C34   A    
C56   H12   S    
C87   H3    S    
Cr10  O38   S    
C20   H32   S    
C74   O10   A    
Cr9   O17   S    
C68   O40   A    
Cr6   O18   S    
C42   C50   A    
Cr8   O52   S    
C47   O35   A    
Cr12  O36   S    
N2    H48   S    
C78   O14   A    
N4    H52   S    
C66   O38   A    
C17   H29   S    
C24   C92   A    
C23   C91   A    
C8    N4    S    
Cr3   O3    S    
Cr8   O8    S    
C39   H43   S    
Cr8   O32   S    
C44   H8    S    
C7    C91   A    
C48   O32   A    
Cr9   O33   S    
C57   H13   S    
C54   C58   A    
C3    O27   A    
C25   C30   A    
C14   H26   S    
C76   O12   A    
C40   H44   S    
Cr3   O47   S    
Cr3   O43   S    
C4    O24   A    
C21   C65   S    
C27   C32   A    
Cr2   O46   S    
C59   C63   A    
C62   C78   S    
C28   C31   A    
Cr1   O45   S    
C79   O15   A    
C26   H34   S    
C53   C57   A    
Cr4   O24   S    
C72   O48   A    
C37   C61   A    
C71   O51   A    
Cr1   O41   S    
Cr2   O2    S    
C82   C85   D    
C39   C63   A    
Cr11  O15   S    
C40   C64   A    
C60   C64   A    
C81   H18   S    
Cr8   O20   S    
C77   O41   A    
C46   O34   A    
Cr9   O13   S    
C42   H6    S    
C2    O22   A    
C3    C10   S    
Cr2   O22   S    
C45   O29   A    
Cr11  O11   S    
Cr12  O16   S    
Cr7   O27   S    
C55   H11   S    
C43   C51   A    
Cr5   O17   S    
C54   H10   S    
C31   C35   A    
C1    O21   A    
C18   H30   S    
C45   C81   S    
C65   O1    A    
Cr4   O44   S    
C16   H28   S    
C27   H35   S    
C49   C53   A    
C6    C10   A    
C80   O44   A    
Cr9   O9    S    
C47   C83   S    
C38   C42   A    
C75   O7    A    
C90   H22   S    
C40   C44   A    
C15   H27   S    
N2    H47   S    
C39   C43   A    
C26   C29   A    
C70   O50   A    
N4    H51   S    
C4    O28   A    
Cr7   O51   S    
C27   C28   A    
N3    H50   S    
C13   H25   S    
C41   H5    S    
C37   H41   S    
C4    C9    S    
C36   H40   S    
Cr3   O23   S    
C20   C24   A    
C5    C89   A    
C8    C12   A    
C35   H39   S    
C38   C62   A    
C17   C21   A    
