data_mof_unit_13739.cif
_audit_creation_date              2013-03-05T16:30:28-0500
_audit_creation_method            fapswitch 2.2
_symmetry_space_group_name_H-M    P1
_symmetry_Int_Tables_number       1
_space_group_crystal_system       triclinic
_cell_length_a                    8.583168
_cell_length_b                    14.764094
_cell_length_c                    14.235469
_cell_angle_alpha                 91.420665
_cell_angle_beta                  99.326103
_cell_angle_gamma                 90.635267
_cell_volume                      1779.35651943

loop_
_atom_site_label
_atom_site_type_symbol
_atom_site_description
_atom_site_fract_x
_atom_site_fract_y
_atom_site_fract_z
_atom_type_partial_charge
O1    O     O_R   0.500010 0.369070 0.579480 -0.607839
O2    O     O_R   0.499990 0.630930 0.420520 -0.625488
O3    O     O_R   0.500010 0.369060 0.420520 -0.622774
O4    O     O_R   0.499990 0.630940 0.579480 -0.619436
C1    C     C_R   0.499489 0.327147 0.498810 0.892030
C2    C     C_R   0.495808 0.673294 0.500684 0.899358
O5    O     O_R   0.271750 0.500000 0.560890 -0.622456
O6    O     O_R   0.728250 0.500000 0.439110 -0.614063
O7    O     O_R   0.271750 0.499990 0.401930 -0.630048
O8    O     O_R   0.728250 0.500010 0.598070 -0.628639
C3    C     C_R   0.200938 0.499749 0.474838 0.966919
C4    C     C_R   0.799053 0.500018 0.525162 0.969182
Zn1   Zn    Zn3+2 0.500000 0.500010 0.606140 0.946237
Zn2   Zn    Zn3+2 0.500000 0.499990 0.393860 0.943207
C5    C     C_2   0.035324 0.499510 0.461538 -0.369990
C6    C     C_2   0.964655 0.499912 0.538484 -0.374327
H1    H     H_    0.972110 0.499105 0.388826 0.182518
H2    H     H_    0.027827 0.500317 0.611201 0.173562
C7    C     C_R   0.304312 0.106375 0.528475 0.344752
C8    C     C_R   0.334777 0.893034 0.405630 0.342420
C9    C     C_R   0.348114 0.197571 0.537128 -0.314192
C10   C     C_R   0.374890 0.802201 0.413770 -0.307801
H3    H     H_    0.284227 0.243611 0.577034 0.194099
H4    H     H_    0.337724 0.756361 0.353490 0.209200
C11   C     C_R   0.470953 0.230657 0.492952 -0.086059
C12   C     C_R   0.460902 0.769691 0.498509 -0.107970
C13   C     C_R   0.551121 0.172946 0.437289 0.163477
C14   C     C_R   0.502800 0.828559 0.578616 0.183411
C15   C     C_R   0.505740 0.082230 0.427475 -0.152305
C16   C     C_R   0.461034 0.919036 0.570573 -0.145485
H5    H     H_    0.571082 0.035956 0.388578 0.174642
H6    H     H_    0.499289 0.966305 0.629609 0.163221
C17   C     C_R   0.386978 0.048663 0.474485 0.007880
C18   C     C_R   0.382150 0.951495 0.484642 0.007214
C19   C     C_R   0.415100 0.436291 0.093521 -0.245039
C20   C     C_R   0.616911 0.542713 0.909505 -0.243527
H7    H     H_    0.356644 0.381624 0.048724 0.148351
H8    H     H_    0.716615 0.571425 0.957820 0.144436
C21   C     C_R   0.419749 0.433833 0.192855 0.316721
C22   C     C_R   0.621089 0.540225 0.810958 0.330368
N1    N     N_R   0.500000 0.499980 0.252470 -0.096660
N2    N     N_R   0.500000 0.500020 0.747530 -0.093560
C23   C     C_R   0.572869 0.569370 0.214189 -0.005146
C24   C     C_R   0.373555 0.463753 0.781284 -0.005906
H9    H     H_    0.633947 0.622051 0.260613 0.150769
H10   H     H_    0.277409 0.432947 0.731944 0.140385
C25   C     C_R   0.568354 0.574131 0.114925 -0.260587
C26   C     C_R   0.365211 0.466494 0.879535 -0.267987
H11   H     H_    0.625633 0.631183 0.087715 0.156719
H12   H     H_    0.261452 0.438268 0.902756 0.148531
C27   C     C_R   0.489129 0.506502 0.052405 0.099786
C28   C     C_R   0.488784 0.506177 0.945940 0.104729
N3    N     N_R   0.178683 0.073390 0.575204 0.208512
O9    O     O_R   0.096846 0.001285 0.542779 -0.364579
O10   O     O_R   0.136489 0.119587 0.645764 -0.391962
N4    N     N_R   0.249767 0.925021 0.317183 0.213086
O11   O     O_R   0.162907 0.996823 0.315841 -0.357966
O12   O     O_R   0.248789 0.878489 0.238216 -0.383487
C29   C     C_3   0.690402 0.203062 0.392619 -0.829467
H13   H     H_    0.733760 0.272250 0.416050 0.237403
H14   H     H_    0.790631 0.156747 0.413118 0.266431
H15   H     H_    0.657610 0.200597 0.313898 0.243642
C30   C     C_3   0.600119 0.799110 0.670250 -0.834172
H16   H     H_    0.531772 0.750348 0.706212 0.258928
H17   H     H_    0.710869 0.768238 0.654899 0.231986
H18   H     H_    0.633914 0.857115 0.720927 0.243272
C31   C     C_3   0.336912 0.355924 0.230661 -0.799251
H19   H     H_    0.263932 0.379624 0.283225 0.262178
H20   H     H_    0.255431 0.319503 0.173070 0.209331
H21   H     H_    0.424825 0.306115 0.261753 0.252476
C32   C     C_3   0.763162 0.581361 0.778688 -0.844341
H22   H     H_    0.727486 0.622691 0.715616 0.265492
H23   H     H_    0.829806 0.627325 0.834406 0.212218
H24   H     H_    0.844550 0.527003 0.763703 0.243428

loop_
_geom_bond_atom_site_label_1
_geom_bond_atom_site_label_2
_geom_bond_distance
_ccdc_geom_bond_type
C32   H24   1.108967 S    
C19   C21   1.409527 A    
O7    Zn2   1.980972 S    
C30   H17   1.109548 S    
C22   C32   1.498628 S    
C11   C13   1.408389 A    
N1    C23   1.364421 A    
N3    O10   1.301808 A    
C12   C14   1.412847 A    
C20   C28   1.398213 A    
C8    N4    1.442242 S    
O6    C4    1.276180 A    
C31   H21   1.107376 S    
C8    C18   1.404026 A    
C7    N3    1.441968 S    
C20   H8    1.082513 S    
C17   C18   1.446250 S    
C8    C10   1.391196 A    
C30   H18   1.110856 S    
C29   H13   1.107986 S    
C15   H5    1.085496 S    
C24   C26   1.411634 A    
C13   C29   1.509920 S    
N3    O9    1.301434 A    
O5    C3    1.276109 A    
C26   H12   1.081705 S    
C23   H9    1.081536 S    
C2    C12   1.457702 S    
O3    Zn2   1.979174 S    
C3    C5    1.403252 S    
Zn2   N1    2.012751 S    
C1    C11   1.440886 S    
O8    C4    1.284882 A    
C14   C16   1.389573 A    
Zn1   N2    2.012751 S    
C7    C9    1.391012 A    
O2    C2    1.293509 A    
N4    O12   1.301635 A    
C23   C25   1.410842 A    
C10   H4    1.083438 S    
O7    C3    1.284987 A    
C9    H3    1.084227 S    
C19   C27   1.398886 A    
C4    C6    1.403216 S    
O2    Zn2   1.960859 S    
N2    C24   1.365409 A    
O1    C1    1.290319 A    
C29   H14   1.111034 S    
O4    C2    1.293350 A    
O1    Zn1   1.960859 S    
C5    C6    1.335247 D    
C16   C18   1.397240 A    
C31   H20   1.111015 S    
C10   C12   1.406587 A    
C27   C28   1.514992 S    
C16   H6    1.085147 S    
C14   C30   1.507119 S    
C15   C17   1.399583 A    
C26   C28   1.412675 A    
C32   H22   1.102030 S    
N4    O11   1.301499 A    
C21   N1    1.379471 A    
C25   H11   1.081648 S    
C7    C17   1.406359 A    
C32   H23   1.111086 S    
C13   C15   1.388014 A    
C5    H1    1.087861 S    
C9    C11   1.401588 A    
C22   N2    1.379646 A    
C20   C22   1.408698 A    
O6    Zn2   1.960615 S    
O5    Zn1   1.960617 S    
C29   H15   1.109902 S    
C19   H7    1.082426 S    
C21   C31   1.501611 S    
C6    H2    1.087789 S    
C25   C27   1.412857 A    
C31   H19   1.103857 S    
O4    Zn1   1.979174 S    
C24   H10   1.081293 S    
C30   H16   1.109398 S    
O3    C1    1.288721 A    
O8    Zn1   1.980970 S    
