data_mof_unit_59472.cif
_audit_creation_date              2012-10-26T19:15:02-0400
_audit_creation_method            fapswitch 2.2
_symmetry_space_group_name_H-M    P1
_symmetry_Int_Tables_number       1
_space_group_crystal_system       triclinic
_cell_length_a                    10.875664
_cell_length_b                    10.843358
_cell_length_c                    9.542753
_cell_angle_alpha                 90.601001
_cell_angle_beta                  89.647501
_cell_angle_gamma                 90.891838
_cell_volume                      1125.14621411

loop_
_atom_site_label
_atom_site_type_symbol
_atom_type_description
_atom_site_fract_x
_atom_site_fract_y
_atom_site_fract_z
_atom_type_partial_charge
C1    C     C_R   0.496419 0.262377 0.499281 0.547231
C2    C     C_R   0.468263 0.938062 0.623383 0.116673
C3    C     C_3   0.539810 0.937685 0.756360 0.097673
C4    C     C_R   0.262591 0.499265 0.500233 0.552003
C5    C     C_3   0.535693 0.077509 0.756358 -0.235440
C6    C     C_R   0.542004 0.600836 0.074626 0.167440
C7    C     C_R   0.444969 0.407139 0.073723 -0.013585
C8    C     C_R   0.444396 0.407475 0.924842 -0.021406
C9    C     C_R   0.543677 0.599994 0.927223 0.217046
C10   C     C_3   0.671306 0.651981 0.923748 -0.276541
C11   C     C_3   0.667309 0.657222 0.082331 -0.286690
C12   C     C_R   0.935932 0.503879 0.623392 -0.028717
C13   C     C_R   0.497782 0.737858 0.500321 0.545802
C14   C     C_R   0.737737 0.495300 0.499258 0.570058
C15   C     C_R   0.063186 0.507838 0.624210 0.018161
C16   C     C_R   0.129743 0.501580 0.499337 -0.022417
C17   C     C_R   0.066925 0.494803 0.371789 -0.150469
C18   C     C_R   0.938426 0.486354 0.369258 0.212651
C19   C     C_R   0.871732 0.492827 0.497053 0.042116
C20   C     C_3   0.932397 0.417233 0.744945 -0.269138
C21   C     C_3   0.071276 0.423776 0.746312 -0.258220
C22   C     C_R   0.466590 0.065227 0.622330 -0.009522
C23   C     C_R   0.482081 0.129384 0.497421 -0.008312
C24   C     C_R   0.480219 0.062926 0.370183 -0.160443
C25   C     C_R   0.481576 0.934298 0.371049 -0.167835
C26   C     C_R   0.484909 0.871025 0.499151 -0.021019
Cu1   Cu    Cu3+1 0.499990 0.499980 0.640670 0.960962
Cu2   Cu    Cu3+1 0.500010 0.500020 0.359330 0.966816
H1    H     H_    0.117655 0.489302 0.273910 0.126376
H2    H     H_    0.665707 0.752822 0.125478 0.115730
H3    H     H_    0.891738 0.458099 0.841068 0.136299
H4    H     H_    0.895091 0.324300 0.716278 0.138289
H5    H     H_    0.109139 0.471675 0.840557 0.143993
H6    H     H_    0.115039 0.334473 0.719445 0.137259
H7    H     H_    0.484786 0.109672 0.270486 0.136089
H8    H     H_    0.486601 0.885372 0.271678 0.142638
H9    H     H_    0.938376 0.461359 0.166258 0.307964
H10   H     H_    0.520273 0.898951 0.951713 0.308055
H11   H     H_    0.633574 0.900008 0.742993 0.097793
H12   H     H_    0.478446 0.117221 0.841998 0.148287
H13   H     H_    0.627792 0.121926 0.742662 0.106052
H14   H     H_    0.402327 0.330852 0.128746 0.112813
H15   H     H_    0.400568 0.331903 0.868659 0.112521
H16   H     H_    0.738248 0.585323 0.881607 0.143268
H17   H     H_    0.678099 0.744119 0.876488 0.131529
H18   H     H_    0.734805 0.596476 0.131119 0.213844
N1    N     N_R   0.500790 0.500930 0.147930 -0.230431
N2    N     N_R   0.500790 0.500890 0.852020 -0.233679
O1    O     O_R   0.500000 0.319640 0.618810 -0.516365
O2    O     O_3   0.470503 0.886092 0.865861 -0.686491
O3    O     O_R   0.500010 0.319680 0.381230 -0.512450
O4    O     O_R   0.319650 0.499970 0.618810 -0.494208
O5    O     O_R   0.319660 0.500010 0.381230 -0.513314
O6    O     O_R   0.499990 0.680320 0.618770 -0.470366
O7    O     O_R   0.500000 0.680360 0.381190 -0.513295
O8    O     O_R   0.680340 0.499990 0.618770 -0.522914
O9    O     O_R   0.680350 0.500030 0.381190 -0.441412
O10   O     O_3   0.878013 0.463993 0.244543 -0.708752

loop_
_geom_bond_atom_site_label_1
_geom_bond_atom_site_label_2
_ccdc_geom_bond_type
Cu1   N2    S    
C2    C22   A    
C14   O8    A    
C23   C24   A    
C8    H15   S    
Cu2   N1    S    
C4    C16   S    
H10   O2    S    
C4    O5    A    
C17   H1    S    
C9    C10   S    
H9    O10   S    
C12   C15   A    
Cu2   O5    S    
C12   C20   S    
C10   H17   S    
C8    N2    A    
C2    C3    S    
C25   C26   A    
Cu1   O6    S    
C3    H11   S    
C7    C8    A    
C2    C26   A    
Cu2   O9    S    
Cu1   O4    S    
C1    O3    A    
C4    O4    A    
C12   C19   A    
C3    O2    S    
C18   O10   S    
C1    C23   S    
C6    C11   S    
C20   H4    S    
Cu2   O3    S    
C13   C26   S    
C7    H14   S    
C24   H7    S    
C21   H5    S    
C6    N1    A    
C25   H8    S    
C10   H16   S    
C15   C16   A    
C15   C21   S    
C6    C9    A    
C24   C25   A    
C9    N2    A    
C17   C18   A    
C13   O6    A    
C10   C11   S    
C5    H12   S    
Cu1   Cu2   S    
C14   O9    A    
C5    H13   S    
C22   C23   A    
C18   C19   A    
C11   H18   S    
C21   H6    S    
C3    C5    S    
C20   C21   S    
Cu1   O8    S    
C1    O1    A    
C14   C19   S    
Cu2   O7    S    
C5    C22   S    
Cu1   O1    S    
C11   H2    S    
C16   C17   A    
C13   O7    A    
C20   H3    S    
C7    N1    A    
