data_mof_unit_40846.cif
_audit_creation_date              2012-12-11T17:23:13-0500
_audit_creation_method            fapswitch 2.2
_symmetry_space_group_name_H-M    P1
_symmetry_Int_Tables_number       1
_space_group_crystal_system       triclinic
_cell_length_a                    22.406249
_cell_length_b                    7.089815
_cell_length_c                    19.335912
_cell_angle_alpha                 90.317519
_cell_angle_beta                  99.700264
_cell_angle_gamma                 90.256666
_cell_volume                      3027.62056283

loop_
_atom_site_label
_atom_site_type_symbol
_atom_type_description
_atom_site_fract_x
_atom_site_fract_y
_atom_site_fract_z
_atom_type_partial_charge
O1    O     O_R   0.443980 0.494320 0.557430 -0.532530
O2    O     O_R   0.556020 0.994320 0.442570 -0.533573
O3    O     O_R   0.441210 0.822520 0.414610 -0.537279
O4    O     O_R   0.558790 0.322520 0.585390 -0.539731
C1    C     C_R   0.426632 0.654032 0.388608 0.693617
C2    C     C_R   0.573492 0.155733 0.611317 0.692005
O5    O     O_R   0.436920 0.823940 0.555180 -0.536257
O6    O     O_R   0.563080 0.323940 0.444820 -0.536317
O7    O     O_R   0.551700 0.995760 0.584140 -0.531824
O8    O     O_R   0.448300 0.495760 0.415860 -0.532832
C3    C     C_R   0.421592 0.655381 0.574857 0.720856
C4    C     C_R   0.578422 0.155353 0.425141 0.720186
O9    O     O_3   0.537660 0.661290 0.509340 -0.370621
O10   O     O_3   0.462340 0.161290 0.490660 -0.368342
V1    V     V_3+5 0.493010 0.935560 0.498270 1.415261
V2    V     V_3+5 0.506990 0.435560 0.501730 1.411236
H1    H     H_    0.682273 0.833068 0.264274 0.113801
H2    H     H_    0.318142 0.335580 0.736249 0.113726
C5    C     C_R   0.754460 0.934560 0.212100 0.088793
C6    C     C_R   0.245832 0.436373 0.788268 0.088961
C7    C     C_R   0.792640 0.089928 0.203820 0.116169
C8    C     C_R   0.207412 0.590508 0.796259 0.116258
C9    C     C_R   0.786946 0.257273 0.241283 -0.193108
C10   C     C_R   0.212929 0.756661 0.758588 -0.193089
H3    H     H_    0.816160 0.376640 0.236092 0.122890
H4    H     H_    0.183624 0.875219 0.763661 0.122534
C11   C     C_R   0.743962 0.272325 0.286060 -0.173128
C12   C     C_R   0.255889 0.771569 0.713774 -0.172915
H5    H     H_    0.740514 0.403260 0.314239 0.118346
H6    H     H_    0.259199 0.901558 0.685432 0.118715
C13   C     C_R   0.705949 0.119707 0.294538 0.117794
C14   C     C_R   0.294060 0.620023 0.705478 0.117927
C15   C     C_R   0.711508 0.951470 0.257589 -0.186849
C16   C     C_R   0.288731 0.453071 0.742711 -0.186705
C17   C     C_1   0.838299 0.079912 0.158238 -0.065119
C18   C     C_1   0.161718 0.580302 0.841802 -0.065038
C19   C     C_1   0.661374 0.134881 0.341174 -0.054457
C20   C     C_1   0.338624 0.635066 0.658819 -0.053727
C21   C     C_1   0.623844 0.145622 0.379746 -0.192810
C22   C     C_1   0.376155 0.645723 0.620245 -0.192413
C23   C     C_1   0.876263 0.071403 0.120223 -0.195000
C24   C     C_1   0.123743 0.571502 0.879799 -0.194391
C25   C     C_R   0.631591 0.132336 0.805393 -0.165154
C26   C     C_R   0.369193 0.558691 0.197357 -0.165370
H7    H     H_    0.544420 0.159837 0.740741 0.105680
H8    H     H_    0.456484 0.588003 0.261852 0.106272
H9    H     H_    0.713881 0.115764 0.921008 0.121191
H10   H     H_    0.287239 0.504966 0.082748 0.120925
H11   H     H_    0.612683 0.138634 0.853383 0.111857
H12   H     H_    0.388575 0.531184 0.150612 0.112180
C27   C     C_R   0.615722 0.146334 0.678662 -0.047558
C28   C     C_R   0.384624 0.637185 0.321165 -0.044592
C29   C     C_R   0.909475 0.062593 0.759648 -0.214333
C30   C     C_R   0.090655 0.621405 0.238968 -0.215305
C31   C     C_R   0.872970 0.040759 0.693798 0.107581
C32   C     C_R   0.126480 0.621858 0.305729 0.107658
C33   C     C_R   0.809846 0.008159 0.689774 0.059611
C34   C     C_R   0.187701 0.564167 0.313109 0.057136
C35   C     C_R   0.782320 0.061891 0.748734 0.032192
C36   C     C_R   0.216682 0.572555 0.252708 0.033131
C37   C     C_R   0.820693 0.075185 0.815917 0.039805
C38   C     C_R   0.178986 0.561015 0.185149 0.040400
C39   C     C_R   0.718600 0.097238 0.744669 0.074893
C40   C     C_R   0.281117 0.587503 0.256412 0.073158
C41   C     C_R   0.694158 0.110246 0.807726 0.138068
C42   C     C_R   0.306185 0.556898 0.194568 0.138213
C43   C     C_R   0.732275 0.104537 0.872761 -0.206255
C44   C     C_R   0.268307 0.527397 0.130155 -0.204523
C45   C     C_R   0.794610 0.092811 0.876831 -0.174031
C46   C     C_R   0.205754 0.534818 0.125108 -0.175392
C47   C     C_R   0.678491 0.128255 0.680581 -0.234194
C48   C     C_R   0.321472 0.640031 0.318493 -0.224650
C49   C     C_R   0.592657 0.146396 0.741362 -0.164158
C50   C     C_R   0.407978 0.593783 0.260439 -0.164936
C51   C     C_R   0.884513 0.067732 0.820890 -0.111724
C52   C     C_R   0.115222 0.577190 0.179231 -0.113587
H13   H     H_    0.695075 0.143437 0.631963 0.108395
H14   H     H_    0.304895 0.685253 0.364846 0.102665
H15   H     H_    0.958283 0.068848 0.763483 0.111485
H16   H     H_    0.042644 0.650582 0.233702 0.113936
H17   H     H_    0.822334 0.097308 0.928423 0.106993
H18   H     H_    0.178449 0.520078 0.073529 0.109609
O11   O     O_R   0.051730 0.724670 0.084120 -0.533726
O12   O     O_R   0.948270 0.224670 0.915880 -0.533836
O13   O     O_R   0.063080 0.393540 0.944820 -0.537177
O14   O     O_R   0.936920 0.893540 0.055180 -0.536417
C53   C     C_R   0.078142 0.562103 0.924861 0.716964
C54   C     C_R   0.921851 0.062123 0.075152 0.716014
O15   O     O_R   0.058800 0.395030 0.085390 -0.536654
O16   O     O_R   0.941200 0.895030 0.914610 -0.535762
O17   O     O_R   0.943980 0.223310 0.057440 -0.533839
O18   O     O_R   0.056020 0.723310 0.942560 -0.533150
C55   C     C_R   0.073129 0.564652 0.111358 0.697376
C56   C     C_R   0.926828 0.062918 0.888652 0.697937
O19   O     O_3   0.962360 0.556290 0.990650 -0.368983
O20   O     O_3   0.037640 0.056290 0.009350 -0.369217
V3    V     V_3+5 0.006980 0.281990 0.001730 1.415127
V4    V     V_3+5 0.993020 0.781990 0.998270 1.418523
C57   C     C_3   0.778213 0.877530 0.631066 -0.384502
C58   C     C_3   0.741873 0.715147 0.656986 -0.292874
C59   C     C_3   0.712392 0.591032 0.595776 -0.747561
H19   H     H_    0.683416 0.677235 0.555707 0.232593
H20   H     H_    0.747524 0.518669 0.571268 0.215161
H21   H     H_    0.683347 0.483248 0.615074 0.221544
H22   H     H_    0.772603 0.627357 0.694865 0.197469
H23   H     H_    0.705395 0.767545 0.683922 0.212109
H24   H     H_    0.750823 0.957754 0.588230 0.163367
H25   H     H_    0.812655 0.804326 0.605791 0.174096
C60   C     C_3   0.213409 0.446756 0.377644 -0.386264
C61   C     C_3   0.240693 0.258090 0.358679 -0.288295
C62   C     C_3   0.256847 0.132871 0.423065 -0.766555
H26   H     H_    0.290179 0.205585 0.463666 0.232953
H27   H     H_    0.215653 0.097456 0.445366 0.224887
H28   H     H_    0.277170 0.999697 0.407839 0.213593
H29   H     H_    0.207507 0.181778 0.318881 0.194347
H30   H     H_    0.282487 0.281792 0.336345 0.210136
H31   H     H_    0.245821 0.528013 0.416140 0.162641
H32   H     H_    0.176213 0.406724 0.406135 0.179617
C63   C     C_3   0.903153 0.048023 0.629055 -0.381346
C64   C     C_3   0.934449 0.239159 0.622953 -0.293133
C65   C     C_3   0.962587 0.248088 0.556389 -0.781830
H33   H     H_    0.997023 0.135630 0.556791 0.233614
H34   H     H_    0.927138 0.230503 0.509149 0.229864
H35   H     H_    0.985016 0.387194 0.553552 0.216541
H36   H     H_    0.900769 0.354395 0.621720 0.196108
H37   H     H_    0.970876 0.263137 0.668773 0.192019
H38   H     H_    0.936820 0.932419 0.631736 0.173563
H39   H     H_    0.869765 0.029288 0.580183 0.173609
C66   C     C_3   0.098209 0.684229 0.368099 -0.380864
C67   C     C_3   0.077845 0.890962 0.360774 -0.289205
C68   C     C_3   0.053893 0.959400 0.425869 -0.787156
H40   H     H_    0.014543 0.872100 0.434499 0.231893
H41   H     H_    0.089918 0.951610 0.472862 0.226527
H42   H     H_    0.039147 0.108376 0.418658 0.219324
H43   H     H_    0.116771 0.981766 0.353101 0.201470
H44   H     H_    0.041467 0.907116 0.314501 0.192127
H45   H     H_    0.058871 0.591424 0.372319 0.172056
H46   H     H_    0.130985 0.674099 0.417799 0.175068
C69   C     C_3   0.759934 0.748575 0.174970 -0.372776
C70   C     C_3   0.731223 0.757402 0.097250 -0.294043
C71   C     C_3   0.738459 0.570156 0.060211 -0.759402
H47   H     H_    0.787210 0.536956 0.062882 0.233464
H48   H     H_    0.716227 0.454247 0.085011 0.230335
H49   H     H_    0.717082 0.579711 0.004206 0.216409
H50   H     H_    0.682192 0.789424 0.092705 0.191780
H51   H     H_    0.752757 0.870681 0.070375 0.198684
H52   H     H_    0.808479 0.709314 0.180392 0.177032
H53   H     H_    0.737003 0.634991 0.200193 0.174063
C72   C     C_3   0.240824 0.252079 0.826035 -0.370265
C73   C     C_3   0.269565 0.266638 0.903701 -0.298880
C74   C     C_3   0.262481 0.081668 0.941628 -0.757735
H54   H     H_    0.213759 0.046914 0.939131 0.233607
H55   H     H_    0.284800 0.964838 0.917378 0.231356
H56   H     H_    0.283851 0.095578 0.997575 0.215847
H57   H     H_    0.318569 0.300360 0.908064 0.191982
H58   H     H_    0.247986 0.380979 0.930099 0.197595
H59   H     H_    0.192376 0.210295 0.820810 0.176892
H60   H     H_    0.263981 0.138132 0.801202 0.173876

loop_
_geom_bond_atom_site_label_1
_geom_bond_atom_site_label_2
_ccdc_geom_bond_type
C25   C49   A    
C42   C44   A    
C39   C41   A    
C59   H19   S    
C11   H5    S    
C34   C60   S    
C18   C24   T    
C67   H43   S    
O1    C3    A    
C47   H13   S    
C68   H42   S    
O2    C4    A    
C2    O7    A    
O19   V4    S    
O18   V4    S    
C31   C63   S    
C37   C51   A    
O5    C3    A    
C57   H25   S    
C69   H52   S    
C58   H22   S    
H1    C15   S    
O12   V3    S    
C36   C38   A    
C5    C7    A    
O11   C55   A    
C10   H4    S    
C28   C50   A    
C71   H48   S    
O14   C54   A    
C33   C35   A    
C34   C36   A    
C33   C57   S    
C6    C72   S    
C38   C46   A    
H7    C49   S    
C74   H56   S    
C61   C62   S    
C65   H35   S    
C48   H14   S    
C26   C42   A    
C66   H46   S    
C62   H26   S    
C41   C43   A    
O11   V4    S    
O20   V4    S    
C74   H54   S    
C13   C15   A    
C1    C28   S    
C9    C11   A    
C2    C27   S    
C72   H60   S    
C32   C66   S    
O6    C4    A    
C6    C16   A    
C63   H39   S    
O13   C53   A    
O6    V2    S    
C73   H58   S    
C53   O18   A    
C38   C52   A    
C29   C51   A    
C71   H47   S    
C27   C47   A    
C17   C23   T    
H9    C43   S    
C60   H32   S    
O16   C56   A    
C30   H16   S    
C29   C31   A    
C69   C70   S    
C30   C32   A    
C69   H53   S    
C35   C37   A    
C11   C13   A    
C10   C12   A    
C12   C14   A    
C45   H17   S    
C70   C71   S    
O4    C2    A    
C5    C15   A    
C71   H49   S    
C70   H51   S    
C64   H36   S    
C25   H11   S    
O5    V1    S    
C68   H41   S    
H10   C44   S    
C13   C19   S    
O15   V3    S    
C43   C45   A    
C40   C42   A    
O4    V2    S    
C28   C48   A    
C52   C55   S    
C57   C58   S    
C54   O17   A    
C25   C41   A    
O20   V3    S    
C62   H27   S    
O1    V2    S    
O12   C56   A    
O17   V3    S    
C26   C50   A    
O2    V1    S    
H2    C16   S    
C65   H33   S    
C8    C18   S    
C30   C52   A    
C5    C69   S    
C39   C47   A    
C59   H21   S    
C14   C20   S    
C73   H57   S    
C31   C33   A    
C8    C10   A    
C60   H31   S    
C68   H40   S    
C61   H30   S    
H8    C50   S    
O3    V1    S    
C64   C65   S    
C66   C67   S    
C46   H18   S    
C26   H12   S    
C23   C54   S    
C29   H15   S    
O10   V1    S    
C58   H23   S    
C67   H44   S    
C27   C49   A    
C6    C8    A    
O3    C1    A    
C70   H50   S    
C63   C64   S    
O19   V3    S    
C7    C17   S    
C57   H24   S    
C35   C39   A    
C36   C40   A    
C37   C45   A    
C4    C21   S    
C7    C9    A    
C67   C68   S    
O7    V1    S    
C1    O8    A    
C19   C21   T    
O8    V2    S    
C72   C73   S    
C20   C22   T    
C12   H6    S    
C58   C59   S    
C32   C34   A    
C62   H28   S    
C64   H37   S    
C74   H55   S    
O15   C55   A    
C3    C22   S    
O14   V4    S    
C65   H34   S    
O13   V3    S    
C9    H3    S    
C66   H45   S    
C51   C56   S    
C59   H20   S    
O9    V2    S    
C44   C46   A    
C73   C74   S    
C24   C53   S    
C60   C61   S    
C72   H59   S    
C61   H29   S    
O16   V4    S    
C40   C48   A    
C14   C16   A    
C63   H38   S    
