data_mof_unit_39840.cif
_audit_creation_date              2012-12-10T17:37:16-0500
_audit_creation_method            fapswitch 2.2
_symmetry_space_group_name_H-M    P1
_symmetry_Int_Tables_number       1
_space_group_crystal_system       triclinic
_cell_length_a                    12.317865
_cell_length_b                    13.103004
_cell_length_c                    15.840526
_cell_angle_alpha                 78.001284
_cell_angle_beta                  100.937741
_cell_angle_gamma                 116.22616
_cell_volume                      2229.37797842

loop_
_atom_site_label
_atom_site_type_symbol
_atom_type_description
_atom_site_fract_x
_atom_site_fract_y
_atom_site_fract_z
_atom_type_partial_charge
C1    C     C_R   0.855189 0.286519 0.505655 0.771605
C2    C     C_3   0.998068 0.499055 0.916920 0.082005
C3    C     C_3   0.114437 0.551389 0.036067 -0.155870
C4    C     C_3   0.999203 0.498423 0.083145 0.130400
C5    C     C_3   0.049196 0.607938 0.960872 -0.221710
C6    C     C_3   0.934208 0.555556 0.009651 -0.155359
C7    C     C_1   0.997873 0.499615 0.825027 -0.084177
C8    C     C_1   0.000321 0.498721 0.174914 -0.054644
C9    C     C_R   0.273888 0.035558 0.412853 -0.220505
C10   C     C_R   0.227831 0.837675 0.475498 -0.110588
C11   C     C_R   0.818876 0.082078 0.546445 -0.169946
C12   C     C_R   0.999327 0.499833 0.659926 0.821725
C13   C     C_R   0.741463 0.966046 0.557989 -0.121394
C14   C     C_R   0.617153 0.929642 0.532729 -0.194850
C15   C     C_R   0.567842 0.009200 0.491192 0.088871
C16   C     C_R   0.649647 0.125618 0.469596 0.080119
C17   C     C_R   0.440310 0.977967 0.471034 0.073704
C18   C     C_R   0.398311 0.061642 0.426496 0.105509
C19   C     C_R   0.480833 0.170443 0.394947 -0.222858
C20   C     C_R   0.604600 0.200542 0.413379 -0.193873
C21   C     C_R   0.353002 0.866817 0.495039 -0.305851
C22   C     C_R   0.188325 0.925180 0.438482 0.256907
C23   C     C_R   0.144981 0.714323 0.488806 0.829417
C24   C     C_R   0.774002 0.163440 0.504702 -0.110230
C25   C     C_R   0.337073 0.315015 0.630940 0.067005
C26   C     C_R   0.757958 0.643188 0.381816 0.118233
C27   C     C_R   0.660384 0.675000 0.355232 0.112463
C28   C     C_R   0.558846 0.621046 0.401958 -0.274069
C29   C     C_R   0.551555 0.533863 0.472861 -0.014094
C30   C     C_R   0.653266 0.505077 0.496317 0.269470
C31   C     C_R   0.446492 0.472979 0.520224 -0.053125
C32   C     C_R   0.442741 0.380472 0.587073 0.145022
C33   C     C_R   0.544953 0.356096 0.609261 -0.286275
C34   C     C_R   0.000523 0.499997 0.340062 0.821601
C35   C     C_R   0.647507 0.417864 0.566170 -0.168048
C36   C     C_R   0.344017 0.499517 0.503708 0.003057
C37   C     C_R   0.240658 0.347870 0.610930 0.032559
C38   C     C_3   0.947721 0.388889 0.039765 -0.175248
C39   C     C_3   0.884452 0.446943 0.964971 0.178033
C40   C     C_1   0.998188 0.499815 0.749460 -0.177987
C41   C     C_1   0.000893 0.499216 0.250516 -0.178023
C42   C     C_3   0.062178 0.442826 0.991075 0.177406
Cu1   Cu    Cu3+1 0.098270 0.475420 0.519690 0.936771
Cu2   Cu    Cu3+1 0.901730 0.524580 0.480310 0.943859
H1    H     H_    0.380341 0.800432 0.528867 0.167037
H2    H     H_    0.913837 0.108230 0.572036 0.159485
H3    H     H_    0.563008 0.838562 0.546008 0.130700
H4    H     H_    0.777418 0.904045 0.589736 0.156419
H5    H     H_    0.663658 0.282966 0.381830 0.178035
H6    H     H_    0.158910 0.299925 0.643141 0.124613
H7    H     H_    0.548307 0.289194 0.661243 0.160403
H8    H     H_    0.339521 0.568679 0.454977 0.133035
H9    H     H_    0.837925 0.683183 0.347750 0.169617
H10   H     H_    0.906227 0.299298 0.073085 0.133077
H11   H     H_    0.485530 0.647348 0.379897 0.135549
H12   H     H_    0.720144 0.392855 0.589998 0.204674
H13   H     H_    0.881124 0.601610 0.018678 0.134457
H14   H     H_    0.090619 0.697425 0.927381 0.148670
H15   H     H_    0.209214 0.594032 0.066736 0.132869
H16   H     H_    0.449632 0.232754 0.355757 0.148375
H17   H     H_    0.242893 0.101442 0.381879 0.169118
N1    N     N_R   0.246280 0.438200 0.549540 -0.193876
N2    N     N_R   0.754330 0.561180 0.450980 -0.232028
O1    O     O_R   0.972510 0.318130 0.524770 -0.579754
O2    O     O_R   0.806530 0.359650 0.491510 -0.609607
O3    O     O_R   0.082970 0.479240 0.637550 -0.577018
O4    O     O_R   0.916990 0.520750 0.604290 -0.587823
O5    O     O_R   0.193470 0.640350 0.508490 -0.597853
O6    O     O_R   0.027490 0.681870 0.475230 -0.535400
O7    O     O_R   0.083010 0.479250 0.395710 -0.571964
O8    O     O_R   0.917030 0.520760 0.362450 -0.594237
C43   C     C_3   0.754564 0.388355 0.921876 -0.413290
C44   C     C_3   0.661754 0.346003 0.986919 -0.840043
H18   H     H_    0.678384 0.282529 0.039913 0.251539
H19   H     H_    0.667349 0.419174 0.015213 0.251042
H20   H     H_    0.568593 0.303951 0.953492 0.240065
H21   H     H_    0.735412 0.450364 0.868746 0.209082
H22   H     H_    0.746352 0.314345 0.893311 0.199296
C45   C     C_3   0.321484 0.208393 0.696553 -0.451350
C46   C     C_3   0.297693 0.106584 0.651706 -0.779798
H23   H     H_    0.213397 0.086905 0.605448 0.266720
H24   H     H_    0.374686 0.124763 0.615665 0.256856
H25   H     H_    0.285558 0.029711 0.701091 0.236022
H26   H     H_    0.401871 0.225234 0.746223 0.200446
H27   H     H_    0.242730 0.183382 0.733106 0.194167
C47   C     C_3   0.659054 0.765381 0.278050 -0.397276
C48   C     C_3   0.761146 0.806260 0.220400 -0.842864
H28   H     H_    0.850857 0.853399 0.256270 0.286286
H29   H     H_    0.761223 0.732201 0.196745 0.241713
H30   H     H_    0.746452 0.865915 0.163200 0.243398
H31   H     H_    0.571182 0.729414 0.236379 0.198873
H32   H     H_    0.662797 0.840866 0.302109 0.225142
C49   C     C_3   0.134879 0.379417 0.978156 -0.414313
C50   C     C_3   0.187475 0.333836 0.064860 -0.830908
H33   H     H_    0.249773 0.405762 0.101514 0.249613
H34   H     H_    0.113187 0.272518 0.104390 0.254592
H35   H     H_    0.239676 0.288387 0.053125 0.242150
H36   H     H_    0.074264 0.306535 0.941936 0.201022
H37   H     H_    0.210286 0.439146 0.939029 0.207641
Br1   Br    Br    0.021645 0.904146 0.421751 -0.589412

loop_
_geom_bond_atom_site_label_1
_geom_bond_atom_site_label_2
_ccdc_geom_bond_type
C48   H28   S    
C1    O1    A    
C3    C42   S    
C49   C50   S    
C42   C49   S    
C44   H18   S    
C23   O6    A    
C19   C20   A    
C4    C8    S    
C11   H2    S    
C37   N1    A    
C10   C22   A    
C26   C27   A    
C20   H5    S    
C5    H14   S    
C9    H17   S    
C28   C29   A    
C38   C42   S    
C47   H31   S    
C31   C36   A    
C5    C6    S    
C9    C22   A    
C15   C16   A    
C11   C24   A    
Cu2   O8    S    
C18   C19   A    
C43   H22   S    
C25   C37   A    
C7    C40   T    
C2    C39   S    
C2    C7    S    
Cu1   O5    S    
C1    O2    A    
C39   C43   S    
C29   C30   A    
C49   H37   S    
C36   H8    S    
C25   C32   A    
C16   C24   A    
C30   N2    A    
C44   H19   S    
C6    H13   S    
Cu2   O2    S    
C34   C41   S    
C46   H25   S    
C36   N1    A    
C28   H11   S    
Cu1   O1    S    
C21   H1    S    
C10   C21   A    
C12   O4    A    
C22   Br1   S    
C8    C41   T    
C4    C6    S    
C47   C48   S    
C43   C44   S    
C50   H35   S    
C12   O3    A    
C17   C21   A    
C23   O5    A    
C12   C40   S    
C27   C47   S    
C26   N2    A    
C43   H21   S    
C31   C32   A    
C38   H10   S    
C16   C20   A    
C14   C15   A    
C17   C18   A    
Cu2   O6    S    
C50   H34   S    
C30   C35   A    
C46   H24   S    
C4    C38   S    
Cu1   O7    S    
C48   H29   S    
Cu1   Cu2   S    
C19   H16   S    
C44   H20   S    
C2    C5    S    
C3    C4    S    
C26   H9    S    
C45   H27   S    
C15   C17   A    
C34   O7    A    
C45   H26   S    
C35   H12   S    
C25   C45   S    
C46   H23   S    
C3    C5    S    
C13   H4    S    
C14   H3    S    
C10   C23   S    
C33   H7    S    
C32   C33   A    
C29   C31   A    
C47   H32   S    
C37   H6    S    
C11   C13   A    
C38   C39   S    
C2    C42   S    
Cu1   O3    S    
C34   O8    A    
C33   C35   A    
C50   H33   S    
C45   C46   S    
C9    C18   A    
C1    C24   S    
Cu2   N2    S    
C48   H30   S    
C27   C28   A    
C6    C39   S    
Cu2   O4    S    
C13   C14   A    
C49   H36   S    
Cu1   N1    S    
C3    H15   S    
