data_mof_unit_67903.cif
_audit_creation_date              2012-12-10T17:49:34-0500
_audit_creation_method            fapswitch 2.2
_symmetry_space_group_name_H-M    P1
_symmetry_Int_Tables_number       1
_space_group_crystal_system       triclinic
_cell_length_a                    10.585423
_cell_length_b                    10.646556
_cell_length_c                    9.999686
_cell_angle_alpha                 90.823141
_cell_angle_beta                  89.978951
_cell_angle_gamma                 93.817014
_cell_volume                      1124.33150707

loop_
_atom_site_label
_atom_site_type_symbol
_atom_type_description
_atom_site_fract_x
_atom_site_fract_y
_atom_site_fract_z
_atom_type_partial_charge
C1    C     C_R   0.517897 0.262732 0.499870 0.874995
C2    C     C_3   0.966268 0.606342 0.435089 0.461499
C3    C     C_3   0.041318 0.502942 0.368469 -0.233519
C4    C     C_3   0.123708 0.505003 0.496971 -0.287882
C5    C     C_R   0.601347 0.119865 0.741318 0.447620
C6    C     C_R   0.574146 0.064559 0.865473 0.421749
C7    C     C_R   0.485631 0.962148 0.871500 -0.509344
C8    C     C_R   0.440325 0.899325 0.752648 0.498536
C9    C     C_R   0.487483 0.945077 0.627723 -0.082345
C10   C     C_R   0.543716 0.067288 0.624032 -0.154262
C11   C     C_R   0.543051 0.130963 0.501477 -0.045019
C12   C     C_R   0.258220 0.502974 0.499525 0.994964
C13   C     C_R   0.534744 0.063700 0.381466 -0.244362
C14   C     C_R   0.505653 0.936586 0.383203 -0.255887
C15   C     C_R   0.483958 0.875276 0.504987 -0.024998
C16   C     C_R   0.297284 0.360048 0.128997 0.545548
C17   C     C_R   0.187674 0.325220 0.053320 0.412236
C18   C     C_R   0.201893 0.312580 0.915478 -0.423451
C19   C     C_R   0.311999 0.359518 0.854594 -0.140573
C20   C     C_R   0.403743 0.434383 0.925638 -0.058036
C21   C     C_R   0.400900 0.434512 0.069628 -0.178309
C22   C     C_R   0.596100 0.558333 0.072665 0.411656
C23   C     C_R   0.490063 0.739841 0.501511 0.875976
C24   C     C_R   0.596639 0.557339 0.929360 0.455175
C25   C     C_R   0.742428 0.502344 0.499955 0.946700
C26   C     C_3   0.035334 0.402029 0.557742 0.465960
C27   C     C_3   0.950479 0.399179 0.432434 -0.288315
C28   C     C_3   0.877672 0.503828 0.499099 -0.261340
C29   C     C_3   0.961754 0.504771 0.624299 0.383697
C30   C     C_3   0.048553 0.608672 0.561282 0.292293
N1    N     N_R   0.498800 0.498800 0.142780 -0.158617
N2    N     N_R   0.498760 0.498720 0.857170 -0.152956
O1    O     O_R   0.500000 0.316780 0.614690 -0.619301
O2    O     O_R   0.499990 0.316750 0.385360 -0.581107
O3    O     O_R   0.313960 0.499980 0.614650 -0.616535
O4    O     O_R   0.313940 0.499960 0.385310 -0.588326
O5    O     O_R   0.500010 0.683250 0.614640 -0.587789
O6    O     O_R   0.500000 0.683220 0.385310 -0.651378
O7    O     O_R   0.686060 0.500040 0.614690 -0.523199
O8    O     O_R   0.686040 0.500020 0.385350 -0.568407
Zn1   Zn    Zn3+2 0.500010 0.500020 0.653130 1.021585
Zn2   Zn    Zn3+2 0.499990 0.499980 0.346870 0.993653
H1    H     H_    0.905496 0.314671 0.380784 0.179820
H2    H     H_    0.460258 0.928724 0.970098 0.173991
O9    O     O_3   0.345826 0.801056 0.750632 -0.535430
C31   C     C_3   0.310867 0.755436 0.878024 -0.198613
H3    H     H_    0.259516 0.826283 0.935442 0.121121
H4    H     H_    0.393678 0.724924 0.934203 0.102837
H5    H     H_    0.245676 0.670960 0.864527 0.190417
H6    H     H_    0.499094 0.886859 0.288256 0.162171
O10   O     O_3   0.701156 0.608723 0.141277 -0.556304
C32   C     C_3   0.693008 0.739704 0.160613 -0.122892
H7    H     H_    0.603841 0.777815 0.124039 0.067344
H8    H     H_    0.774215 0.790339 0.110368 0.150468
H9    H     H_    0.702275 0.762431 0.268702 0.220913
O11   O     O_3   0.307144 0.307356 0.253562 -0.546481
C33   C     C_3   0.282337 0.174401 0.247745 -0.332466
H10   H     H_    0.334059 0.129651 0.164921 0.135001
H11   H     H_    0.179963 0.146479 0.241264 0.198391
H12   H     H_    0.311793 0.134078 0.342706 0.177936
O12   O     O_3   0.074893 0.297286 0.123098 -0.625814
C34   C     C_3   0.983446 0.221118 0.051469 -0.327724
H13   H     H_    0.023424 0.134260 0.011108 0.148718
H14   H     H_    0.940474 0.275722 0.971776 0.207577
H15   H     H_    0.906352 0.190762 0.121379 0.206504
H16   H     H_    0.129480 0.264913 0.854750 0.236634
H17   H     H_    0.322836 0.335711 0.751523 0.245173
O13   O     O_3   0.705912 0.598352 0.863572 -0.521796
C35   C     C_3   0.707423 0.728441 0.838721 -0.203003
H18   H     H_    0.630266 0.777156 0.887737 0.113075
H19   H     H_    0.703640 0.743575 0.729553 0.175087
H20   H     H_    0.798612 0.773913 0.874710 0.136796
O14   O     O_3   0.073564 0.298519 0.629789 -0.657492
C36   C     C_3   0.129269 0.212217 0.544277 -0.375763
H21   H     H_    0.065940 0.181113 0.459838 0.181112
H22   H     H_    0.147505 0.127293 0.602371 0.180631
H23   H     H_    0.221977 0.252315 0.508222 0.207301
O15   O     O_3   0.909430 0.496072 0.753863 -0.537996
C37   C     C_3   0.999074 0.541200 0.849682 -0.176735
H24   H     H_    0.095130 0.511043 0.827318 0.164581
H25   H     H_    0.970251 0.503584 0.948705 0.198074
H26   H     H_    0.000718 0.645222 0.857858 0.162862
O16   O     O_3   0.111194 0.713323 0.626831 -0.577132
C38   C     C_3   0.028124 0.810367 0.644344 -0.260547
H27   H     H_    0.929241 0.774873 0.666499 0.146198
H28   H     H_    0.029885 0.870671 0.554742 0.188063
H29   H     H_    0.061886 0.870552 0.730298 0.168688
O17   O     O_3   0.919506 0.712494 0.374096 -0.605957
C39   C     C_3   0.012420 0.767607 0.288208 -0.355042
H30   H     H_    0.018822 0.710260 0.194991 0.176453
H31   H     H_    0.106925 0.781147 0.337275 0.172517
H32   H     H_    0.983719 0.861875 0.259555 0.172498
H33   H     H_    0.078704 0.503968 0.264901 0.207524
H34   H     H_    0.542112 0.110063 0.286087 0.184113
O18   O     O_3   0.692233 0.218464 0.733676 -0.578902
C40   C     C_3   0.810465 0.168623 0.711485 -0.238520
H35   H     H_    0.824668 0.151250 0.602838 0.159997
H36   H     H_    0.824308 0.081258 0.768560 0.126680
H37   H     H_    0.883691 0.239348 0.747385 0.254918
O19   O     O_3   0.645108 0.098049 0.978257 -0.629070
C41   C     C_3   0.610365 0.215065 0.027778 -0.253376
H38   H     H_    0.507333 0.212424 0.047897 0.151069
H39   H     H_    0.639166 0.292546 0.959039 0.217248
H40   H     H_    0.660513 0.236008 0.123674 0.177969

loop_
_geom_bond_atom_site_label_1
_geom_bond_atom_site_label_2
_ccdc_geom_bond_type
C8    C9    A    
C16   C21   A    
N1    Zn2   S    
O14   C36   S    
O4    Zn2   S    
O18   C40   S    
O2    Zn2   S    
C38   H29   S    
C16   O11   S    
C1    O1    A    
C7    C8    A    
O7    Zn1   S    
O9    C31   S    
C25   C28   S    
C21   N1    A    
C31   H5    S    
C26   C27   S    
C34   H13   S    
C36   H22   S    
C28   C29   S    
C38   H28   S    
O6    Zn2   S    
C25   O8    A    
C5    C6    A    
C33   H11   S    
C40   H37   S    
C26   O14   S    
O11   C33   S    
C18   C19   A    
C30   O16   S    
C35   H19   S    
C8    O9    S    
C34   H14   S    
C17   O12   S    
C29   O15   S    
C19   C20   A    
C16   C17   A    
C36   H23   S    
C40   H36   S    
N2    Zn1   S    
C2    O17   S    
C12   O4    A    
C9    C10   A    
C32   H9    S    
C15   C23   S    
C41   H39   S    
C13   C14   A    
C35   H18   S    
C5    O18   S    
C32   H8    S    
C1    O2    A    
C31   H4    S    
C22   N1    A    
O10   C32   S    
C41   H38   S    
C38   H27   S    
C36   H21   S    
C37   H25   S    
O15   C37   S    
O13   C35   S    
C33   H12   S    
C23   O5    A    
C39   H32   S    
C6    O19   S    
C35   H20   S    
C24   N2    A    
C29   C30   S    
O16   C38   S    
C40   H35   S    
C17   C18   A    
C3    H33   S    
C7    H2    S    
C20   C21   A    
C12   O3    A    
C19   H17   S    
C41   H40   S    
C22   C24   A    
C39   H31   S    
C3    C4    S    
C32   H7    S    
C20   N2    A    
C31   H3    S    
C34   H15   S    
C37   H26   S    
C4    C26   S    
C6    C7    A    
C18   H16   S    
C23   O6    A    
C13   H34   S    
C2    C30   S    
O1    Zn1   S    
C3    C27   S    
C2    C3    S    
C9    C15   A    
C5    C10   A    
C25   O7    A    
C11   C13   A    
C33   H10   S    
C14   H6    S    
O8    Zn2   S    
O19   C41   S    
O5    Zn1   S    
O12   C34   S    
O3    Zn1   S    
C10   C11   A    
C24   O13   S    
C37   H24   S    
C27   H1    S    
O17   C39   S    
C26   C29   S    
C27   C28   S    
C14   C15   A    
C2    C28   S    
C1    C11   S    
C39   H30   S    
C4    C12   S    
C4    C30   S    
C22   O10   S    
