data_mof_unit_43876.cif
_audit_creation_date              2012-12-11T14:25:01-0500
_audit_creation_method            fapswitch 2.2
_symmetry_space_group_name_H-M    P1
_symmetry_Int_Tables_number       1
_space_group_crystal_system       triclinic
_cell_length_a                    19.086485
_cell_length_b                    11.06729
_cell_length_c                    18.679315
_cell_angle_alpha                 89.457099
_cell_angle_beta                  90.52369
_cell_angle_gamma                 90.154466
_cell_volume                      3945.38214636

loop_
_atom_site_label
_atom_site_type_symbol
_atom_type_description
_atom_site_fract_x
_atom_site_fract_y
_atom_site_fract_z
_atom_type_partial_charge
C1    C     C_R   0.730959 0.376671 0.146582 0.527010
C2    C     C_R   0.270732 0.373004 0.855043 0.529664
C3    C     C_R   0.230959 0.876672 0.146582 0.527004
C4    C     C_R   0.770732 0.873003 0.855043 0.529667
C5    C     C_3   0.503349 0.047836 0.022848 -0.094800
C6    C     C_3   0.552246 0.102773 0.965651 -0.123745
C7    C     C_3   0.003350 0.547836 0.022848 -0.094800
C8    C     C_3   0.052247 0.602775 0.965650 -0.123745
C9    C     C_R   0.757273 0.897876 0.930865 -0.001329
C10   C     C_R   0.250345 0.912519 0.073580 -0.009952
C11   C     C_R   0.257273 0.397877 0.930864 -0.001329
C12   C     C_R   0.750343 0.412514 0.073579 -0.009951
C13   C     C_R   0.697226 0.855096 0.967668 0.019147
C14   C     C_R   0.302276 0.850194 0.033924 0.024246
C15   C     C_R   0.197226 0.355098 0.967667 0.019147
C16   C     C_R   0.802274 0.350189 0.033922 0.024244
C17   C     C_R   0.699146 0.850221 0.043584 0.033928
C18   C     C_R   0.296333 0.847573 0.958223 0.016275
C19   C     C_R   0.199145 0.350223 0.043584 0.033927
C20   C     C_R   0.796331 0.347568 0.958221 0.016275
C21   C     C_R   0.813476 0.945613 0.043919 -0.160158
C22   C     C_R   0.198152 0.986403 0.964204 -0.155603
C23   C     C_R   0.313475 0.445615 0.043918 -0.160158
C24   C     C_R   0.698149 0.486397 0.964203 -0.155604
C25   C     C_R   0.815483 0.937981 0.970817 -0.140848
C26   C     C_R   0.200849 0.983163 0.037294 -0.164088
C27   C     C_R   0.315483 0.437983 0.970817 -0.140848
C28   C     C_R   0.700846 0.483156 0.037292 -0.164089
C29   C     C_R   0.635871 0.815284 0.932020 -0.103787
C30   C     C_R   0.359107 0.788699 0.066670 -0.081327
C31   C     C_R   0.135870 0.315287 0.932019 -0.103788
C32   C     C_R   0.859105 0.288693 0.066668 -0.081325
C33   C     C_R   0.082881 0.256692 0.969650 -0.140940
C34   C     C_R   0.901861 0.213617 0.026920 -0.135268
C35   C     C_R   0.582882 0.756688 0.969651 -0.140939
C36   C     C_R   0.401862 0.713621 0.026922 -0.135266
C37   C     C_R   0.589623 0.738023 0.043094 -0.147870
C38   C     C_R   0.391917 0.703218 0.953548 -0.127136
C39   C     C_R   0.089622 0.238026 0.043093 -0.147872
C40   C     C_R   0.891915 0.203215 0.953545 -0.127136
C41   C     C_R   0.646662 0.785179 0.079998 -0.087319
C42   C     C_R   0.339607 0.769219 0.919231 -0.079608
C43   C     C_R   0.146661 0.285181 0.079997 -0.087322
C44   C     C_R   0.839605 0.269216 0.919229 -0.079607
C45   C     C_R   0.534035 0.155259 0.143659 0.556168
C46   C     C_R   0.466857 0.155328 0.855694 0.539236
C47   C     C_R   0.034035 0.655259 0.143659 0.556170
C48   C     C_R   0.966857 0.655328 0.855694 0.539237
C49   C     C_R   0.754021 0.909708 0.080794 -0.008830
C50   C     C_R   0.247089 0.923481 0.923679 -0.013916
C51   C     C_R   0.254020 0.409709 0.080793 -0.008830
C52   C     C_R   0.747087 0.423477 0.923678 -0.013915
C53   C     C_R   0.521718 0.170748 0.590324 0.027815
C54   C     C_R   0.546487 0.156827 0.441437 -0.012414
C55   C     C_R   0.021717 0.670755 0.590325 0.027810
C56   C     C_R   0.046483 0.656829 0.441437 -0.012413
C57   C     C_R   0.545561 0.063316 0.561252 0.041942
C58   C     C_R   0.543236 0.049702 0.486444 -0.033446
C59   C     C_R   0.045565 0.563327 0.561254 0.041936
C60   C     C_R   0.043235 0.549706 0.486447 -0.033444
C61   C     C_R   0.543060 0.271407 0.476069 0.073607
C62   C     C_R   0.526680 0.277659 0.549720 0.082399
C63   C     C_R   0.043053 0.771410 0.476068 0.073613
C64   C     C_R   0.026675 0.777665 0.549719 0.082406
C65   C     C_R   0.558662 0.962582 0.606524 -0.015059
C66   C     C_R   0.534081 0.929192 0.463059 -0.145915
C67   C     C_R   0.058673 0.462600 0.606529 -0.015048
C68   C     C_R   0.034079 0.429194 0.463066 -0.145916
C69   C     C_R   0.039989 0.349131 0.583939 -0.121280
C70   C     C_R   0.023055 0.333675 0.512724 -0.149570
C71   C     C_R   0.539969 0.849118 0.583930 -0.121295
C72   C     C_R   0.523041 0.833671 0.512712 -0.149541
C73   C     C_R   0.759908 0.916370 0.574967 0.019266
C74   C     C_R   0.263144 0.940541 0.412255 -0.002087
C75   C     C_R   0.259909 0.416373 0.574967 0.019261
C76   C     C_R   0.763137 0.440527 0.412262 -0.002078
C77   C     C_R   0.798415 0.855133 0.521881 -0.022080
C78   C     C_R   0.229971 0.043085 0.436282 -0.002467
C79   C     C_R   0.298416 0.355137 0.521881 -0.022079
C80   C     C_R   0.729969 0.543079 0.436286 -0.002474
C81   C     C_R   0.788434 0.888330 0.450130 0.040850
C82   C     C_R   0.225599 0.061990 0.510267 0.004580
C83   C     C_R   0.288436 0.388333 0.450131 0.040854
C84   C     C_R   0.725596 0.561987 0.510271 0.004572
C85   C     C_R   0.713524 0.055255 0.488665 -0.130513
C86   C     C_R   0.312655 0.902687 0.528905 -0.151259
C87   C     C_R   0.213526 0.555259 0.488664 -0.130529
C88   C     C_R   0.812641 0.402666 0.528913 -0.151267
C89   C     C_R   0.742702 0.966275 0.150312 0.547482
C90   C     C_R   0.257450 0.968415 0.850827 0.534182
C91   C     C_R   0.242701 0.466275 0.150311 0.547481
C92   C     C_R   0.757449 0.468415 0.850827 0.534180
C93   C     C_R   0.722955 0.021723 0.559517 0.215383
C94   C     C_R   0.311422 0.877583 0.455708 0.228879
C95   C     C_R   0.222959 0.521729 0.559516 0.215385
C96   C     C_R   0.811402 0.377551 0.455720 0.228857
C97   C     C_R   0.842077 0.755567 0.538311 -0.084011
C98   C     C_R   0.198101 0.123930 0.386881 -0.076423
C99   C     C_R   0.342079 0.255571 0.538312 -0.084009
C100  C     C_R   0.698101 0.623927 0.386885 -0.076417
C101  C     C_R   0.875208 0.691388 0.484694 -0.121526
C102  C     C_R   0.159798 0.219554 0.410699 -0.125723
C103  C     C_R   0.375212 0.191393 0.484695 -0.121527
C104  C     C_R   0.659797 0.719550 0.410701 -0.125717
C105  C     C_R   0.866040 0.724746 0.413615 -0.125298
C106  C     C_R   0.159009 0.241653 0.482914 -0.147263
C107  C     C_R   0.366043 0.224751 0.413616 -0.125298
C108  C     C_R   0.659003 0.741648 0.482917 -0.147263
C109  C     C_R   0.822158 0.820788 0.396002 -0.068895
C110  C     C_R   0.184704 0.159579 0.532364 -0.120195
C111  C     C_R   0.322161 0.320791 0.396003 -0.068884
C112  C     C_R   0.684701 0.659577 0.532367 -0.120191
C113  C     C_R   0.741453 0.983942 0.434760 -0.007286
C114  C     C_R   0.266891 0.989953 0.557845 -0.062260
C115  C     C_R   0.241454 0.483944 0.434760 -0.007299
C116  C     C_R   0.766886 0.489948 0.557849 -0.062246
C117  C     C_R   0.733020 0.382185 0.350855 0.537635
C118  C     C_R   0.269508 0.381637 0.647551 0.565278
C119  C     C_R   0.233022 0.882187 0.350853 0.537621
C120  C     C_R   0.769509 0.881636 0.647551 0.565287
C121  C     C_R   0.560693 0.152271 0.362026 0.559851
C122  C     C_R   0.473345 0.159015 0.651690 0.519120
C123  C     C_R   0.060691 0.652272 0.362026 0.559850
C124  C     C_R   0.973345 0.659016 0.651689 0.519119
C125  C     C_R   0.729065 0.021859 0.363123 0.554373
C126  C     C_R   0.270311 0.016886 0.635165 0.532414
C127  C     C_R   0.229065 0.521860 0.363123 0.554359
C128  C     C_R   0.770311 0.516887 0.635166 0.532420
C129  C     C_3   0.498300 0.277731 0.975581 -0.119220
C130  C     C_3   0.449660 0.222495 0.033373 -0.141464
C131  C     C_3   0.998299 0.777732 0.975581 -0.119219
C132  C     C_3   0.949660 0.722493 0.033374 -0.141463
C133  C     C_3   0.562493 0.216846 0.011855 -0.116705
C134  C     C_3   0.439455 0.108656 0.987145 -0.105937
C135  C     C_3   0.062493 0.716848 0.011855 -0.116706
C136  C     C_3   0.939455 0.608655 0.987145 -0.105937
C137  C     C_3   0.513167 0.161828 0.068227 0.048693
C138  C     C_3   0.488766 0.163276 0.930575 0.054782
C139  C     C_3   0.013167 0.661828 0.068227 0.048689
C140  C     C_3   0.988766 0.663276 0.930575 0.054782
Cr1   Cr    Cr6+3 0.772820 0.169820 0.252640 0.974704
Cr2   Cr    Cr6+3 0.227180 0.169820 0.747360 0.980385
Cr3   Cr    Cr6+3 0.272820 0.669820 0.252640 0.974701
Cr4   Cr    Cr6+3 0.727180 0.669820 0.747360 0.980386
Cr5   Cr    Cr6+3 0.615040 0.323610 0.249150 1.013432
Cr6   Cr    Cr6+3 0.384960 0.323610 0.750850 1.007410
Cr7   Cr    Cr6+3 0.115040 0.823610 0.249150 1.013427
Cr8   Cr    Cr6+3 0.884960 0.823610 0.750850 1.007416
Cr9   Cr    Cr6+3 0.616720 0.011130 0.250660 0.955478
Cr10  Cr    Cr6+3 0.383280 0.011130 0.749340 0.981375
Cr11  Cr    Cr6+3 0.116720 0.511130 0.250660 0.955504
Cr12  Cr    Cr6+3 0.883280 0.511130 0.749340 0.981380
H1    H     H_    0.613415 0.261292 0.023797 0.133450
H2    H     H_    0.388496 0.064103 0.975460 0.134890
H3    H     H_    0.113414 0.761297 0.023797 0.133450
H4    H     H_    0.888497 0.564100 0.975460 0.134890
H5    H     H_    0.571926 0.974092 0.662620 0.141898
H6    H     H_    0.535481 0.903486 0.408248 0.146009
H7    H     H_    0.071937 0.474118 0.662625 0.141891
H8    H     H_    0.035463 0.403486 0.408255 0.146000
H9    H     H_    0.041348 0.272781 0.620595 0.105797
H10   H     H_    0.016094 0.241341 0.495865 0.117373
H11   H     H_    0.541318 0.772765 0.620583 0.105796
H12   H     H_    0.516067 0.741342 0.495848 0.117404
H13   H     H_    0.684187 0.136176 0.475685 0.114761
H14   H     H_    0.347434 0.850466 0.563188 0.152202
H15   H     H_    0.184189 0.636180 0.475685 0.114761
H16   H     H_    0.847416 0.350439 0.563198 0.152194
H17   H     H_    0.847006 0.721221 0.592108 0.147193
H18   H     H_    0.204907 0.116107 0.329598 0.120866
H19   H     H_    0.347008 0.221224 0.592108 0.147196
H20   H     H_    0.704909 0.616104 0.329602 0.120867
H21   H     H_    0.905324 0.611907 0.498254 0.123288
H22   H     H_    0.134839 0.280148 0.373168 0.144673
H23   H     H_    0.405328 0.111913 0.498255 0.123291
H24   H     H_    0.634838 0.780143 0.373170 0.144659
H25   H     H_    0.890455 0.672757 0.371897 0.120835
H26   H     H_    0.146884 0.329894 0.500965 0.152050
H27   H     H_    0.390459 0.172763 0.371897 0.120826
H28   H     H_    0.646875 0.829887 0.500969 0.152046
H29   H     H_    0.812994 0.837046 0.339599 0.148138
H30   H     H_    0.176337 0.183017 0.586558 0.179991
H31   H     H_    0.312997 0.337050 0.339599 0.148140
H32   H     H_    0.676333 0.683014 0.586561 0.179992
H33   H     H_    0.496838 0.371939 0.954664 0.109142
H34   H     H_    0.408186 0.268242 0.063904 0.112859
H35   H     H_    0.996835 0.871939 0.954664 0.109143
H36   H     H_    0.908185 0.768239 0.063905 0.112860
H37   H     H_    0.503931 0.953380 0.043249 0.147752
H38   H     H_    0.594427 0.056469 0.936243 0.115496
H39   H     H_    0.003934 0.453380 0.043249 0.147753
H40   H     H_    0.094428 0.556473 0.936243 0.115496
H41   H     H_    0.858370 0.983594 0.071572 0.139009
H42   H     H_    0.158560 0.043405 0.939624 0.160715
H43   H     H_    0.358369 0.483596 0.071572 0.139010
H44   H     H_    0.658556 0.543397 0.939623 0.160713
H45   H     H_    0.627218 0.830335 0.875468 0.133918
H46   H     H_    0.372378 0.798797 0.122574 0.130443
H47   H     H_    0.127218 0.330338 0.875467 0.133918
H48   H     H_    0.872375 0.298788 0.122572 0.130449
H49   H     H_    0.864562 0.961680 0.945973 0.145965
H50   H     H_    0.160504 0.031025 0.065501 0.152094
H51   H     H_    0.364561 0.461683 0.945972 0.145965
H52   H     H_    0.660501 0.531018 0.065499 0.152095
H53   H     H_    0.037651 0.222745 0.941184 0.114522
H54   H     H_    0.941137 0.159805 0.053722 0.091956
H55   H     H_    0.537653 0.722740 0.941185 0.114520
H56   H     H_    0.441138 0.659809 0.053725 0.091954
H57   H     H_    0.051520 0.185785 0.072209 0.097811
H58   H     H_    0.924435 0.142981 0.923048 0.094832
H59   H     H_    0.551522 0.685780 0.072211 0.097811
H60   H     H_    0.424436 0.642982 0.923052 0.094829
H61   H     H_    0.650740 0.765361 0.136696 0.124792
H62   H     H_    0.331997 0.755253 0.862463 0.117784
H63   H     H_    0.150739 0.265363 0.136695 0.124791
H64   H     H_    0.831996 0.255251 0.862460 0.117785
O1    O     O_R   0.788190 0.043000 0.172520 -0.524232
O2    O     O_R   0.211810 0.043000 0.827480 -0.518960
O3    O     O_R   0.288190 0.543000 0.172520 -0.524236
O4    O     O_R   0.711810 0.543000 0.827480 -0.518960
O5    O     O_R   0.556550 0.253260 0.323480 -0.446188
O6    O     O_R   0.443450 0.253260 0.676520 -0.473268
O7    O     O_R   0.056550 0.753260 0.323480 -0.446187
O8    O     O_R   0.943450 0.753260 0.676520 -0.473268
O9    O     O_R   0.545830 0.051610 0.330160 -0.572360
O10   O     O_R   0.454170 0.051610 0.669840 -0.543678
O11   O     O_R   0.045830 0.551610 0.330160 -0.572342
O12   O     O_R   0.954170 0.551610 0.669840 -0.543671
O13   O     O_R   0.681920 0.959720 0.327070 -0.547054
O14   O     O_R   0.318080 0.959720 0.672930 -0.520517
O15   O     O_R   0.181920 0.459720 0.327070 -0.547053
O16   O     O_R   0.818080 0.459720 0.672930 -0.520519
O17   O     O_3   0.668190 0.168190 0.250820 -0.277681
O18   O     O_3   0.331810 0.168190 0.749180 -0.265239
O19   O     O_3   0.168190 0.668190 0.250820 -0.277682
O20   O     O_3   0.831810 0.668190 0.749180 -0.265242
O21   O     O_R   0.766240 0.292300 0.176860 -0.524585
O22   O     O_R   0.233760 0.292300 0.823140 -0.506347
O23   O     O_R   0.266240 0.792300 0.176860 -0.524594
O24   O     O_R   0.733760 0.792300 0.823140 -0.506347
O25   O     O_R   0.670310 0.409160 0.168720 -0.530666
O26   O     O_R   0.329690 0.409160 0.831280 -0.533953
O27   O     O_R   0.170310 0.909160 0.168720 -0.530665
O28   O     O_R   0.829690 0.909160 0.831280 -0.533951
O29   O     O_R   0.556160 0.251900 0.173380 -0.497157
O30   O     O_R   0.443840 0.251900 0.826620 -0.506566
O31   O     O_R   0.056160 0.751900 0.173380 -0.497159
O32   O     O_R   0.943840 0.751900 0.826620 -0.506566
O33   O     O_R   0.545410 0.050140 0.168240 -0.526819
O34   O     O_R   0.454590 0.050140 0.831760 -0.521724
O35   O     O_R   0.045410 0.550140 0.168240 -0.526783
O36   O     O_R   0.954590 0.550140 0.831760 -0.521723
O37   O     O_R   0.681530 0.958350 0.176970 -0.504460
O38   O     O_R   0.318470 0.958350 0.823030 -0.506925
O39   O     O_R   0.181530 0.458350 0.176970 -0.504461
O40   O     O_R   0.818470 0.458350 0.823030 -0.506926
O41   O     O_R   0.788610 0.044480 0.334450 -0.523634
O42   O     O_R   0.211390 0.044480 0.665550 -0.540153
O43   O     O_R   0.288610 0.544480 0.334450 -0.523625
O44   O     O_R   0.711390 0.544480 0.665550 -0.540155
O45   O     O_R   0.766630 0.293670 0.326970 -0.491992
O46   O     O_R   0.233370 0.293670 0.673030 -0.542676
O47   O     O_R   0.266630 0.793670 0.326970 -0.492017
O48   O     O_R   0.733370 0.793670 0.673030 -0.542675
O49   O     O_R   0.670730 0.410640 0.330640 -0.520919
O50   O     O_R   0.329270 0.410640 0.669360 -0.524535
O51   O     O_R   0.170730 0.910640 0.330640 -0.520917
O52   O     O_R   0.829270 0.910640 0.669360 -0.524531
N1    N     N_3   0.551920 0.381520 0.435950 -0.575363
H65   H     H_    0.592303 0.431793 0.459354 0.238030
H66   H     H_    0.505555 0.431386 0.437671 0.230551
N2    N     N_3   0.513354 0.391599 0.582975 -0.606823
H67   H     H_    0.557829 0.446289 0.578242 0.225146
H68   H     H_    0.471316 0.433534 0.556595 0.240957
N3    N     N_3   0.051910 0.881523 0.435947 -0.575368
H69   H     H_    0.092294 0.931799 0.459349 0.238032
H70   H     H_    0.005545 0.931386 0.437668 0.230542
N4    N     N_3   0.013344 0.891605 0.582972 -0.606812
H71   H     H_    0.057816 0.946300 0.578237 0.225145
H72   H     H_    0.971304 0.933534 0.556591 0.240955
O53   O     O_3   0.691052 0.084975 0.613640 -0.591698
C141  C     C_3   0.734449 0.181005 0.636185 0.026124
H73   H     H_    0.718008 0.264508 0.607445 0.158566
H74   H     H_    0.791319 0.165624 0.625930 0.123128
C142  C     C_3   0.726309 0.198398 0.716913 -0.245473
H75   H     H_    0.738981 0.112491 0.745461 0.166641
H76   H     H_    0.764147 0.267956 0.735379 0.148715
C143  C     C_3   0.652406 0.238029 0.736574 -0.379805
H77   H     H_    0.638008 0.322311 0.707286 0.182142
H78   H     H_    0.650115 0.255327 0.794980 0.118024
H79   H     H_    0.613948 0.166029 0.723498 0.168984
O54   O     O_3   0.347414 0.777936 0.429473 -0.544622
C144  C     C_3   0.405958 0.815009 0.387681 0.015094
H80   H     H_    0.449398 0.763497 0.409980 0.149243
H81   H     H_    0.416699 0.914098 0.389342 0.120342
C145  C     C_3   0.405351 0.774087 0.308972 -0.247213
H82   H     H_    0.382726 0.682434 0.305161 0.228814
H83   H     H_    0.375149 0.839077 0.275311 0.165553
C146  C     C_3   0.478876 0.768193 0.277262 -0.512615
H84   H     H_    0.503332 0.858920 0.276461 0.195409
H85   H     H_    0.475396 0.735598 0.221264 0.126457
H86   H     H_    0.512584 0.704813 0.308526 0.133319
O55   O     O_3   0.191061 0.584988 0.613639 -0.591700
C147  C     C_3   0.234466 0.681004 0.636188 0.026124
H87   H     H_    0.218033 0.764514 0.607451 0.158572
H88   H     H_    0.291334 0.665610 0.625932 0.123128
C148  C     C_3   0.226328 0.698390 0.716916 -0.245473
H89   H     H_    0.238991 0.612477 0.745461 0.166648
H90   H     H_    0.264172 0.767934 0.735386 0.148707
C149  C     C_3   0.152430 0.738039 0.736579 -0.379815
H91   H     H_    0.138042 0.822334 0.707300 0.182151
H92   H     H_    0.150138 0.755321 0.794987 0.118020
H93   H     H_    0.113964 0.666057 0.723494 0.168988
O56   O     O_3   0.847379 0.277886 0.429490 -0.544624
C150  C     C_3   0.905944 0.314933 0.387725 0.015086
H94   H     H_    0.949368 0.263430 0.410056 0.149265
H95   H     H_    0.916689 0.414022 0.389374 0.120329
C151  C     C_3   0.905372 0.273980 0.309025 -0.247219
H96   H     H_    0.882761 0.182321 0.305219 0.228785
H97   H     H_    0.875180 0.338943 0.275341 0.165600
C152  C     C_3   0.978910 0.268094 0.277348 -0.512704
H98   H     H_    0.003385 0.358797 0.276598 0.195344
H99   H     H_    0.975458 0.235575 0.221338 0.126489
H100  H     H_    0.012580 0.204657 0.308603 0.133369

loop_
_geom_bond_atom_site_label_1
_geom_bond_atom_site_label_2
_ccdc_geom_bond_type
C99   C103  A    
Cr6   O18   S    
C133  C137  S    
C129  H33   S    
Cr11  O11   S    
C73   C93   A    
C136  C140  S    
C132  H36   S    
C47   O31   A    
C75   C95   A    
C112  H32   S    
C135  C139  S    
C141  H73   S    
C84   C112  A    
C71   H11   S    
Cr10  O10   S    
C128  O44   A    
C79   C99   A    
C55   C59   A    
C5    C6    S    
Cr10  O38   S    
C123  O11   A    
C100  C104  A    
C121  O9    A    
C39   H57   S    
Cr2   O42   S    
C9    C13   A    
C46   O34   A    
C131  C140  S    
C55   C124  S    
C11   C15   A    
C50   C90   S    
C147  C148  S    
C66   C72   A    
C12   C16   A    
N2    H67   S    
C88   H16   S    
C37   H59   S    
C87   C115  A    
C59   C60   A    
C128  O16   A    
C8    C135  S    
C130  C134  S    
C70   H10   S    
C149  H92   S    
C126  O42   A    
C56   C123  S    
Cr3   O23   S    
Cr12  O40   S    
O56   C150  S    
C98   C102  A    
C123  O7    A    
C32   C34   A    
C48   O36   A    
C41   H61   S    
C78   C82   A    
O55   C147  S    
C11   C27   A    
C16   C20   A    
C129  C133  S    
C63   N3    S    
C145  H82   S    
N1    H66   S    
C151  C152  S    
C107  H27   S    
C44   H64   S    
Cr1   O45   S    
C105  H25   S    
C5    C137  S    
Cr12  O20   S    
C54   C61   A    
Cr5   O29   S    
C6    C133  S    
C29   C35   A    
Cr10  O14   S    
C30   C36   A    
C8    C140  S    
C85   H13   S    
C97   H17   S    
C5    H37   S    
C48   O32   A    
C76   C96   A    
C91   O39   A    
C8    H40   S    
C34   C40   A    
C69   C70   A    
Cr5   O5    S    
C26   H50   S    
Cr1   O17   S    
C152  H98   S    
C122  O6    A    
C95   O55   S    
C103  C107  A    
C67   C69   A    
C68   H8    S    
C75   C79   A    
C131  H35   S    
C88   C116  A    
C100  H20   S    
C101  H21   S    
C21   C49   A    
C7    C8    S    
C104  H24   S    
C132  C139  S    
C33   H53   S    
C27   H51   S    
Cr4   O4    S    
C125  O13   A    
C53   C122  S    
C18   C42   A    
C114  C126  S    
Cr9   O37   S    
Cr4   O24   S    
C36   H56   S    
Cr2   O2    S    
C151  H97   S    
C59   C67   A    
C85   C93   A    
C145  C146  S    
Cr11  O15   S    
C124  O8    A    
C64   N4    S    
C87   C95   A    
C77   C97   A    
C47   O35   A    
Cr1   O1    S    
C147  H88   S    
C90   O38   A    
C84   C116  A    
C1    C12   S    
C2    C11   S    
C127  O15   A    
C20   C44   A    
Cr10  O34   S    
C87   H15   S    
C48   C140  S    
C83   C115  A    
Cr3   O43   S    
C46   O30   A    
C10   C14   A    
C17   C49   A    
C142  H76   S    
C1    O21   A    
Cr9   O17   S    
C143  H78   S    
C144  H80   S    
C132  C136  S    
C152  H100  S    
Cr11  O19   S    
Cr6   O26   S    
C111  H31   S    
C2    O26   A    
C110  H30   S    
C30   H46   S    
C54   C121  S    
C22   C26   A    
C127  O43   A    
C81   C113  A    
C96   O56   S    
Cr12  O36   S    
C129  C130  S    
C109  H29   S    
C105  C109  A    
C150  C151  S    
C73   C77   A    
C107  C111  A    
C24   C28   A    
C67   H7    S    
C15   C31   A    
C16   C32   A    
C141  H74   S    
C13   C17   A    
C148  C149  S    
Cr9   O13   S    
N3    H70   S    
C85   C113  A    
C71   C72   A    
C57   C58   A    
C37   C41   A    
C61   C62   A    
C146  H86   S    
C90   O2    A    
Cr3   O3    S    
C63   C64   A    
C98   H18   S    
C40   C44   A    
C141  C142  S    
N2    H68   S    
C23   H43   S    
Cr8   O28   S    
Cr1   O41   S    
N4    H71   S    
Cr5   O49   S    
C21   H41   S    
C4    C9    S    
C4    O28   A    
C117  O49   A    
Cr12  O16   S    
C24   C52   A    
C88   C96   A    
C120  O52   A    
Cr5   O17   S    
C74   C94   A    
N3    H69   S    
C86   H14   S    
C80   C84   A    
C31   H47   S    
C9    C25   A    
C15   C19   A    
C12   C28   A    
C13   C29   A    
C144  C145  S    
C106  C110  A    
Cr6   O6    S    
C24   H44   S    
C122  O10   A    
C40   H58   S    
C21   C25   A    
C51   C91   S    
C22   C50   A    
C117  O45   A    
C145  H83   S    
C150  H94   S    
C73   C120  S    
N1    H65   S    
C7    H39   S    
C75   C118  S    
C61   N1    S    
C19   C43   A    
Cr9   O33   S    
Cr4   O20   S    
C148  H89   S    
C76   C80   A    
C65   H5    S    
C45   O29   A    
C53   C57   A    
Cr11  O35   S    
C108  C112  A    
C146  H84   S    
C143  H79   S    
C142  H75   S    
C77   C81   A    
C103  H23   S    
C72   H12   S    
C92   O40   A    
C35   H55   S    
C81   C109  A    
C83   C111  A    
C52   C92   S    
Cr3   O47   S    
C131  C132  S    
Cr4   O48   S    
C104  C108  A    
Cr7   O7    S    
C18   C50   A    
Cr2   O22   S    
C149  H91   S    
C126  O14   A    
C57   C65   A    
C4    O24   A    
Cr6   O30   S    
C25   H49   S    
C76   C117  S    
Cr8   O52   S    
C36   C38   A    
C32   H48   S    
Cr10  O18   S    
C79   C83   A    
C134  H2    S    
C56   C60   A    
C7    C136  S    
C113  C125  S    
C60   C68   A    
C144  H81   S    
C74   C78   A    
C47   C139  S    
C121  O5    A    
Cr2   O46   S    
C130  C137  S    
C3    O23   A    
C149  H93   S    
Cr7   O19   S    
Cr9   O9    S    
C14   C18   A    
C43   H63   S    
C93   O53   S    
C135  H3    S    
C34   H54   S    
C74   C119  S    
C33   C39   A    
C133  H1    S    
C82   C110  A    
O54   C144  S    
C35   C37   A    
C69   H9    S    
C38   C42   A    
C142  C143  S    
C131  C135  S    
C136  H4    S    
C99   H19   S    
C125  O41   A    
Cr8   O32   S    
C115  C127  S    
C108  H28   S    
C92   O4    A    
Cr3   O19   S    
Cr6   O50   S    
C86   C94   A    
Cr12  O12   S    
C58   C66   A    
C119  O47   A    
C129  C138  S    
C152  H99   S    
C78   C98   A    
C31   C33   A    
C23   C27   A    
C46   C138  S    
C45   O33   A    
C10   C26   A    
Cr7   O31   S    
C118  O50   A    
C80   C100  A    
C14   C30   A    
C124  O12   A    
C101  C105  A    
C5    C134  S    
C150  H95   S    
C28   H52   S    
C94   O54   S    
C82   C114  A    
Cr7   O51   S    
C2    O22   A    
C39   C43   A    
C120  O48   A    
O53   C141  S    
C65   C71   A    
Cr8   O20   S    
C6    C138  S    
C151  H96   S    
C42   H62   S    
C53   C62   A    
C23   C51   A    
C118  O46   A    
C38   H60   S    
C119  O51   A    
C55   C64   A    
C6    H38   S    
C45   C137  S    
C56   C63   A    
Cr5   O25   S    
C3    O27   A    
C146  H85   S    
C1    O25   A    
C147  H87   S    
Cr7   O27   S    
C29   H45   S    
N4    H72   S    
C66   H6    S    
Cr11  O39   S    
C54   C58   A    
Cr1   O21   S    
C49   C89   S    
C134  C138  S    
C130  H34   S    
C102  H22   S    
C86   C114  A    
C143  H77   S    
Cr8   O8    S    
C148  H90   S    
C20   C52   A    
C3    C10   S    
C7    C139  S    
C106  H26   S    
C102  C106  A    
C91   O3    A    
Cr4   O44   S    
C17   C41   A    
C89   O1    A    
C19   C51   A    
Cr2   O18   S    
C68   C70   A    
C116  C128  S    
C22   H42   S    
C89   O37   A    
C97   C101  A    
C62   N2    S    
