data_mof_unit_43713.cif
_audit_creation_date              2012-12-10T18:31:54-0500
_audit_creation_method            fapswitch 2.2
_symmetry_space_group_name_H-M    P1
_symmetry_Int_Tables_number       1
_space_group_crystal_system       triclinic
_cell_length_a                    10.638521
_cell_length_b                    14.985116
_cell_length_c                    15.419984
_cell_angle_alpha                 82.383623
_cell_angle_beta                  89.528771
_cell_angle_gamma                 104.300049
_cell_volume                      2358.91465595

loop_
_atom_site_label
_atom_site_type_symbol
_atom_type_description
_atom_site_fract_x
_atom_site_fract_y
_atom_site_fract_z
_atom_type_partial_charge
C1    C     C_R   0.484146 0.441934 0.662302 0.875789
C2    C     C_3   0.121401 0.500678 0.498828 0.120348
C3    C     C_3   0.066902 0.484420 0.407318 -0.015108
C4    C     C_3   0.103822 0.595366 0.521749 -0.366633
C5    C     C_R   0.496897 0.408343 0.754375 -0.102249
C6    C     C_R   0.553213 0.593800 0.245165 -0.048290
C7    C     C_R   0.530826 0.290837 0.869592 0.149610
C8    C     C_R   0.501884 0.316714 0.783040 -0.223125
C9    C     C_R   0.520745 0.473650 0.812149 -0.266810
C10   C     C_R   0.560722 0.452267 0.896360 0.075497
C11   C     C_R   0.559776 0.358549 0.927240 0.116960
C12   C     C_R   0.742096 0.500678 0.500091 0.832793
C13   C     C_R   0.594038 0.521769 0.951797 0.070096
C14   C     C_R   0.599402 0.494346 0.042138 0.073374
C15   C     C_R   0.603167 0.401548 0.071836 -0.228419
C16   C     C_R   0.586412 0.335386 0.014794 -0.191970
C17   C     C_R   0.622150 0.617642 0.919479 -0.283650
C18   C     C_R   0.636692 0.684869 0.975716 -0.015091
C19   C     C_R   0.616166 0.656016 0.066601 0.115542
C20   C     C_R   0.597176 0.560147 0.099636 0.080748
C21   C     C_R   0.608138 0.719549 0.125005 -0.189206
C22   C     C_R   0.577566 0.688613 0.213651 -0.166742
C23   C     C_R   0.522084 0.558198 0.337726 0.900831
C24   C     C_R   0.564029 0.530945 0.188427 -0.240963
C25   C     C_R   0.696235 0.843415 0.635223 -0.314218
C26   C     C_R   0.662724 0.753812 0.613909 0.006920
C27   C     C_R   0.513933 0.793574 0.510984 -0.067700
C28   C     C_R   0.542976 0.885804 0.529809 -0.001798
C29   C     C_R   0.637057 0.909918 0.593061 0.177140
C30   C     C_R   0.482974 0.954186 0.488166 0.077823
C31   C     C_R   0.518810 0.046275 0.510684 0.083483
C32   C     C_R   0.614219 0.067154 0.573338 -0.232218
C33   C     C_R   0.671931 0.000107 0.613480 -0.220953
C34   C     C_R   0.257908 0.499754 0.499783 0.870762
C35   C     C_R   0.388463 0.933535 0.424893 -0.236406
C36   C     C_R   0.331116 0.000670 0.384474 -0.198222
C37   C     C_R   0.364642 0.090508 0.405833 0.174347
C38   C     C_R   0.458240 0.114509 0.469406 -0.001867
C39   C     C_R   0.304676 0.156797 0.364182 -0.309475
C40   C     C_R   0.337251 0.246177 0.386057 0.013770
C41   C     C_R   0.486275 0.206493 0.488844 -0.062600
C42   C     C_3   0.900022 0.422736 0.569644 -0.402408
C43   C     C_3   0.044131 0.422108 0.568962 -0.453069
C44   C     C_3   0.922847 0.486257 0.407949 -0.408569
C45   C     C_3   0.961407 0.596208 0.521148 -0.391591
C46   C     C_3   0.878893 0.501613 0.499812 0.143279
H1    H     H_    0.841093 0.353929 0.556072 0.180220
H2    H     H_    0.160126 0.654505 0.474269 0.200690
H3    H     H_    0.906651 0.542424 0.357810 0.188400
H4    H     H_    0.590108 0.265552 0.040976 0.186482
H5    H     H_    0.539955 0.458032 0.213978 0.160892
H6    H     H_    0.570623 0.738558 0.257072 0.162858
H7    H     H_    0.484723 0.265523 0.738213 0.178215
H8    H     H_    0.506169 0.541721 0.790540 0.166367
H9    H     H_    0.868401 0.433085 0.635802 0.169429
H10   H     H_    0.622485 0.378897 0.138702 0.150392
H11   H     H_    0.637952 0.642070 0.850107 0.149109
H12   H     H_    0.621198 0.792875 0.102457 0.160530
H13   H     H_    0.744846 0.019192 0.660974 0.146780
H14   H     H_    0.554238 0.231630 0.536624 0.125673
H15   H     H_    0.291597 0.298266 0.354653 0.142973
H16   H     H_    0.259344 0.981884 0.336159 0.152481
H17   H     H_    0.767834 0.860637 0.683952 0.157588
H18   H     H_    0.707893 0.701598 0.645644 0.130159
H19   H     H_    0.445357 0.768257 0.463622 0.135103
H20   H     H_    0.082688 0.431973 0.634879 0.174471
H21   H     H_    0.647589 0.135017 0.593008 0.138623
H22   H     H_    0.355907 0.865890 0.404645 0.147177
H23   H     H_    0.233175 0.139574 0.315408 0.150930
H24   H     H_    0.054127 0.353131 0.554929 0.185021
H25   H     H_    0.863780 0.419231 0.390417 0.171532
H26   H     H_    0.074147 0.414754 0.393465 0.145971
H27   H     H_    0.948461 0.653947 0.471370 0.191117
H28   H     H_    0.930512 0.609675 0.586375 0.175729
H29   H     H_    0.140466 0.606711 0.587915 0.177421
N1    N     N_R   0.573860 0.731700 0.552730 -0.099853
N2    N     N_R   0.426060 0.268290 0.447230 -0.102364
O1    O     O_R   0.462770 0.383110 0.605620 -0.615893
O2    O     O_R   0.510160 0.531900 0.639510 -0.622347
O3    O     O_R   0.661510 0.425600 0.483070 -0.629710
O4    O     O_R   0.708900 0.574390 0.516960 -0.628501
O5    O     O_R   0.489840 0.468100 0.360490 -0.617389
O6    O     O_R   0.537230 0.616890 0.394380 -0.611203
O7    O     O_R   0.291100 0.425610 0.483040 -0.623382
O8    O     O_R   0.338490 0.574400 0.516930 -0.621067
Zn1   Zn    Zn3+2 0.468350 0.400660 0.477370 0.938033
Zn2   Zn    Zn3+2 0.531650 0.599340 0.522630 0.937085
I1    I     I_    0.175019 0.582249 0.300534 -0.448105
C47   C     C_R   0.667482 0.784054 0.936662 0.110197
C48   C     C_R   0.583347 0.816453 0.877702 -0.150841
C49   C     C_R   0.613260 0.909727 0.840060 -0.112390
C50   C     C_R   0.727960 0.970909 0.860061 -0.095999
C51   C     C_R   0.812643 0.939028 0.918085 -0.125852
C52   C     C_R   0.782767 0.845898 0.956273 -0.170912
H30   H     H_    0.494447 0.769631 0.861360 0.137913
H31   H     H_    0.547721 0.934498 0.795139 0.158537
H32   H     H_    0.751308 0.042993 0.830509 0.148373
H33   H     H_    0.901551 0.986458 0.933373 0.144667
H34   H     H_    0.849423 0.821841 0.000815 0.142312
I2    I     I_    0.530075 0.148890 0.906379 -0.463403

loop_
_geom_bond_atom_site_label_1
_geom_bond_atom_site_label_2
_ccdc_geom_bond_type
C44   H3    S    
O6    Zn2   S    
C51   C52   A    
C23   O5    A    
C19   C20   A    
C25   H17   S    
O2    Zn2   S    
C7    C8    A    
C45   C46   S    
C7    C11   A    
C23   O6    A    
C30   C35   A    
C1    C5    S    
C52   H34   S    
C36   C37   A    
C19   C21   A    
C16   H4    S    
C41   N2    A    
C30   C31   A    
C15   C16   A    
C6    C22   A    
C29   C33   A    
C44   H25   S    
C45   H27   S    
C18   C19   A    
C42   C46   S    
C47   C52   A    
C26   H18   S    
C4    H29   S    
O3    Zn1   S    
C49   H31   S    
C35   C36   A    
C26   N1    A    
C9    C10   A    
O1    Zn1   S    
C24   H5    S    
C33   H13   S    
C21   C22   A    
C1    O1    A    
C34   O7    A    
C36   H16   S    
C44   C46   S    
C50   H32   S    
C4    C45   S    
O8    Zn2   S    
C25   C29   A    
C3    C44   S    
C7    I2    S    
C14   C20   A    
C48   H30   S    
C38   C41   A    
C12   C46   S    
C49   C50   A    
C25   C26   A    
O5    Zn1   S    
C40   H15   S    
C45   H28   S    
C34   O8    A    
C2    C4    S    
C5    C9    A    
C37   C38   A    
C27   H19   S    
C42   H9    S    
C11   C16   A    
C31   C32   A    
C2    C43   S    
C6    C24   A    
C17   C18   A    
C39   H23   S    
N1    Zn2   S    
O4    Zn2   S    
C32   H21   S    
N2    Zn1   S    
C43   H24   S    
C1    O2    A    
C42   C43   S    
C27   N1    A    
C39   C40   A    
C22   H6    S    
C4    H2    S    
C28   C29   A    
C3    I1    S    
C14   C15   A    
C18   C47   S    
C41   H14   S    
O7    Zn1   S    
C10   C13   A    
C8    H7    S    
C5    C8    A    
C31   C38   A    
C13   C17   A    
C32   C33   A    
C28   C30   A    
C2    C3    S    
C21   H12   S    
C37   C39   A    
C15   H10   S    
C2    C34   S    
C48   C49   A    
C35   H22   S    
C43   H20   S    
C6    C23   S    
C12   O3    A    
C50   C51   A    
C12   O4    A    
C3    H26   S    
C42   H1    S    
C10   C11   A    
C27   C28   A    
C40   N2    A    
C9    H8    S    
C47   C48   A    
C13   C14   A    
C51   H33   S    
C20   C24   A    
C17   H11   S    
