data_mof_unit_65159.cif
_audit_creation_date              2012-12-10T20:01:10-0500
_audit_creation_method            fapswitch 2.2
_symmetry_space_group_name_H-M    P1
_symmetry_Int_Tables_number       1
_space_group_crystal_system       tetragonal
_cell_length_a                    32.153147
_cell_length_b                    32.153147
_cell_length_c                    23.560118
_cell_angle_alpha                 90.0
_cell_angle_beta                  90.0
_cell_angle_gamma                 90.0
_cell_volume                      24357.0357401

loop_
_atom_site_label
_atom_site_type_symbol
_atom_type_description
_atom_site_fract_x
_atom_site_fract_y
_atom_site_fract_z
_atom_type_partial_charge
C1    C     C_R   0.000000 0.419376 0.500000 0.903281
C2    C     C_1   0.161871 0.000000 0.500000 -0.016804
C3    C     C_R   0.728187 0.961922 0.499980 -0.053597
C4    C     C_R   0.038078 0.271813 0.499992 -0.053597
C5    C     C_R   0.728187 0.038078 0.500020 -0.053597
C6    C     C_R   0.961922 0.728187 0.499997 -0.053597
C7    C     C_R   0.271813 0.961922 0.500002 -0.053597
C8    C     C_R   0.461922 0.771813 0.999999 -0.053597
C9    C     C_R   0.771813 0.538078 0.000004 -0.053597
C10   C     C_R   0.538078 0.228187 0.999999 -0.053597
C11   C     C_R   0.228187 0.461922 0.000000 -0.053597
C12   C     C_R   0.538078 0.771813 0.000001 -0.053597
C13   C     C_1   0.000000 0.838129 0.500000 -0.016804
C14   C     C_R   0.228187 0.538078 1.000000 -0.053597
C15   C     C_R   0.461922 0.228187 0.000001 -0.053597
C16   C     C_R   0.771813 0.461922 0.999996 -0.053597
C17   C     C_R   1.000000 0.293459 0.500000 0.029438
C18   C     C_R   0.293459 0.000000 0.500000 0.029438
C19   C     C_R   0.000000 0.706541 0.500000 0.029438
C20   C     C_R   0.706541 0.000000 0.500000 0.029438
C21   C     C_R   0.500000 0.793459 0.000000 0.029438
C22   C     C_R   0.793459 0.500000 0.000000 0.029438
C23   C     C_R   0.500000 0.206541 1.000000 0.029438
C24   C     C_1   0.838129 0.000000 0.500000 -0.016804
C25   C     C_R   0.206541 0.500000 1.000000 0.029438
C26   C     C_1   0.077144 0.294455 0.499984 0.199959
C27   C     C_1   0.294455 0.922856 0.500003 0.199959
C28   C     C_1   0.922856 0.705545 0.499995 0.199959
C29   C     C_1   0.705545 0.077144 0.500041 0.199958
C30   C     C_1   0.922856 0.294455 0.500016 0.199959
C31   C     C_1   0.705545 0.922856 0.499959 0.199958
C32   C     C_1   0.077144 0.705545 0.500005 0.199959
C33   C     C_1   0.294455 0.077144 0.499997 0.199959
C34   C     C_1   0.577144 0.794455 0.000002 0.199959
C35   C     C_1   0.500000 0.661871 1.000000 -0.016804
C36   C     C_1   0.794455 0.422856 0.999991 0.199959
C37   C     C_1   0.422856 0.205545 0.000002 0.199959
C38   C     C_1   0.205545 0.577144 0.999999 0.199959
C39   C     C_1   0.422856 0.794455 0.999998 0.199959
C40   C     C_1   0.205545 0.422856 0.000001 0.199959
C41   C     C_1   0.577144 0.205545 0.999998 0.199959
C42   C     C_1   0.794455 0.577144 0.000009 0.199959
C43   C     C_1   0.077145 0.205488 0.499984 0.195925
C44   C     C_1   0.205488 0.922855 0.500003 0.195925
C45   C     C_1   0.922855 0.794512 0.499995 0.195926
C46   C     C_1   0.661871 0.500000 0.000000 -0.016804
C47   C     C_1   0.794512 0.077145 0.500041 0.195925
C48   C     C_1   0.922855 0.205488 0.500016 0.195926
C49   C     C_1   0.794512 0.922855 0.499959 0.195925
C50   C     C_1   0.077145 0.794512 0.500005 0.195926
C51   C     C_1   0.205488 0.077145 0.499997 0.195925
C52   C     C_1   0.577145 0.705488 0.000002 0.195926
C53   C     C_1   0.705488 0.422855 0.999991 0.195925
C54   C     C_1   0.422855 0.294512 0.000002 0.195926
C55   C     C_1   0.294512 0.577145 0.999999 0.195925
C56   C     C_1   0.422855 0.705488 0.999998 0.195926
C57   C     C_1   0.500000 0.338129 0.000000 -0.016804
C58   C     C_1   0.294512 0.422855 0.000001 0.195925
C59   C     C_1   0.577145 0.294512 0.999998 0.195925
C60   C     C_1   0.705488 0.577145 0.000009 0.195925
C61   C     C_1   0.338129 0.500000 1.000000 -0.016804
C62   C     C_1   0.000000 0.338095 0.500000 -0.018930
C63   C     C_1   0.338095 0.000000 0.500000 -0.018930
C64   C     C_1   0.000000 0.661905 0.500000 -0.018930
C65   C     C_R   0.419376 0.000000 0.500000 0.903281
C66   C     C_1   0.661905 0.000000 0.500000 -0.018930
C67   C     C_1   0.500000 0.838094 0.000000 -0.018930
C68   C     C_1   0.838094 0.500000 0.000000 -0.018930
C69   C     C_1   0.500000 0.161905 1.000000 -0.018930
C70   C     C_1   0.161905 0.500000 1.000000 -0.018930
C71   C     C_1   0.000000 0.375290 0.500000 -0.157191
C72   C     C_1   0.375290 0.000000 0.500000 -0.157191
C73   C     C_1   0.000000 0.624710 0.500000 -0.157191
C74   C     C_1   0.624710 0.000000 0.500000 -0.157191
C75   C     C_1   0.500000 0.875290 0.000000 -0.157191
C76   C     C_R   0.000000 0.580624 0.500000 0.903280
C77   C     C_1   0.875290 0.500000 0.000000 -0.157191
C78   C     C_1   0.500000 0.124710 1.000000 -0.157191
C79   C     C_1   0.124710 0.500000 1.000000 -0.157191
C80   C     C_1   0.000000 0.124681 0.500000 -0.155970
C81   C     C_1   0.124681 0.000000 0.500000 -0.155969
C82   C     C_1   0.000000 0.875318 0.500000 -0.155969
C83   C     C_1   0.875318 0.000000 0.500000 -0.155970
C84   C     C_1   0.500000 0.624681 1.000000 -0.155969
C85   C     C_1   0.624681 0.500000 0.000000 -0.155970
C86   C     C_1   0.500000 0.375318 0.000000 -0.155969
C87   C     C_R   0.580624 0.000000 0.500000 0.903280
C88   C     C_1   0.375318 0.500000 1.000000 -0.155969
C89   C     C_R   0.000000 0.500000 0.390471 0.902331
C90   C     C_R   0.500000 0.000000 0.390471 0.902331
C91   C     C_R   0.000000 0.500000 0.609529 0.902331
C92   C     C_R   0.500000 0.000000 0.609529 0.902331
C93   C     C_R   0.500000 0.000000 0.890471 0.902331
C94   C     C_R   0.000000 0.500000 0.890471 0.902331
C95   C     C_R   0.500000 0.000000 0.109529 0.902331
C96   C     C_R   0.000000 0.500000 0.109529 0.902331
C97   C     C_R   0.080604 0.000000 0.500000 0.910258
C98   C     C_R   0.500000 0.919376 0.000000 0.903281
C99   C     C_R   1.000000 0.919396 0.500000 0.910259
C100  C     C_R   0.919396 0.000000 0.500000 0.910259
C101  C     C_R   0.000000 0.080604 0.500000 0.910258
C102  C     C_R   0.580604 0.500000 0.000000 0.910258
C103  C     C_R   0.500000 0.419396 0.000000 0.910259
C104  C     C_R   0.419396 0.500000 1.000000 0.910259
C105  C     C_R   0.500000 0.580604 1.000000 0.910258
C106  C     C_1   0.000000 0.500000 0.330324 -0.173016
C107  C     C_1   0.500000 0.000000 0.330324 -0.173016
C108  C     C_1   1.000000 0.500000 0.669676 -0.173016
C109  C     C_R   0.919376 0.500000 0.000000 0.903281
C110  C     C_1   0.500000 0.000000 0.669676 -0.173016
C111  C     C_1   0.500000 0.000000 0.830324 -0.173016
C112  C     C_1   0.000000 0.500000 0.830324 -0.173016
C113  C     C_1   0.500000 0.000000 0.169676 -0.173016
C114  C     C_1   0.000000 0.500000 0.169676 -0.173016
C115  C     C_1   0.000000 0.500000 0.279602 0.018398
C116  C     C_1   0.500000 0.000000 0.279602 0.018398
C117  C     C_1   0.000000 0.500000 0.720398 0.018398
C118  C     C_1   0.500000 0.000000 0.720398 0.018398
C119  C     C_1   0.500000 0.000000 0.779602 0.018398
C120  C     C_R   0.500000 0.080624 1.000000 0.903280
C121  C     C_1   0.000000 0.500000 0.779602 0.018398
C122  C     C_1   0.500000 0.000000 0.220398 0.018398
C123  C     C_1   0.000000 0.500000 0.220398 0.018398
C124  C     C_R   0.038079 0.228139 0.499992 -0.053700
C125  C     C_R   0.228139 0.961921 0.500002 -0.053700
C126  C     C_R   0.961921 0.771861 0.499997 -0.053700
C127  C     C_R   0.771861 0.038079 0.500020 -0.053700
C128  C     C_R   0.961921 0.228139 0.500008 -0.053700
C129  C     C_R   0.771861 0.961921 0.499980 -0.053700
C130  C     C_R   0.038079 0.771861 0.500002 -0.053700
C131  C     C_R   0.080624 0.500000 1.000000 0.903280
C132  C     C_R   0.228139 0.038079 0.499998 -0.053700
C133  C     C_R   0.538079 0.728139 0.000001 -0.053700
C134  C     C_R   0.728139 0.461921 0.999996 -0.053700
C135  C     C_R   0.461921 0.271861 0.000001 -0.053700
C136  C     C_R   0.271861 0.538079 1.000000 -0.053700
C137  C     C_R   0.461921 0.728139 0.999999 -0.053700
C138  C     C_R   0.271861 0.461921 0.000000 -0.053700
C139  C     C_R   0.538079 0.271861 0.999999 -0.053700
C140  C     C_R   0.728139 0.538079 0.000004 -0.053700
C141  C     C_R   0.000000 0.206498 0.500000 0.031630
C142  C     C_1   0.000000 0.161871 0.500000 -0.016804
C143  C     C_R   0.206498 0.000000 0.500000 0.031630
C144  C     C_R   0.000000 0.793501 0.500000 0.031630
C145  C     C_R   0.793501 0.000000 0.500000 0.031631
C146  C     C_R   0.500000 0.706498 0.000000 0.031630
C147  C     C_R   0.706498 0.500000 0.000000 0.031630
C148  C     C_R   0.500000 0.293501 1.000000 0.031630
C149  C     C_R   0.293501 0.500000 1.000000 0.031630
C150  C     C_R   0.961922 0.271813 0.500008 -0.053596
C151  C     C_R   0.271813 0.038078 0.499998 -0.053597
C152  C     C_R   0.038078 0.728187 0.500002 -0.053597
N1    N     N_1   0.108276 0.312519 0.499978 -0.175545
N2    N     N_1   0.812519 0.391724 0.999988 -0.175545
N3    N     N_1   0.391724 0.187480 0.000003 -0.175545
N4    N     N_1   0.187480 0.608276 0.999999 -0.175545
N5    N     N_1   0.391724 0.812519 0.999997 -0.175545
N6    N     N_1   0.187480 0.391724 0.000001 -0.175545
N7    N     N_1   0.608276 0.187480 0.999997 -0.175545
N8    N     N_1   0.812519 0.608276 0.000012 -0.175545
N9    N     N_1   0.108272 0.187413 0.499978 -0.167140
N10   N     N_1   0.187413 0.891728 0.500005 -0.167140
N11   N     N_1   0.891728 0.812587 0.499993 -0.167140
N12   N     N_1   0.312519 0.891724 0.500005 -0.175545
N13   N     N_1   0.812587 0.108272 0.500058 -0.167139
N14   N     N_1   0.891728 0.187413 0.500022 -0.167140
N15   N     N_1   0.812587 0.891727 0.499942 -0.167139
N16   N     N_1   0.108272 0.812587 0.500007 -0.167140
N17   N     N_1   0.187413 0.108272 0.499995 -0.167140
N18   N     N_1   0.608272 0.687413 0.000003 -0.167140
N19   N     N_1   0.687413 0.391728 0.999988 -0.167140
N20   N     N_1   0.391728 0.312587 0.000003 -0.167140
N21   N     N_1   0.312587 0.608272 0.999999 -0.167140
N22   N     N_1   0.391728 0.687413 0.999997 -0.167140
N23   N     N_1   0.891724 0.687480 0.499993 -0.175545
N24   N     N_1   0.312587 0.391728 0.000001 -0.167140
N25   N     N_1   0.608272 0.312587 0.999997 -0.167140
N26   N     N_1   0.687413 0.608272 0.000012 -0.167140
N27   N     N_1   0.687480 0.108276 0.500058 -0.175545
N28   N     N_1   0.891724 0.312519 0.500022 -0.175545
N29   N     N_1   0.687480 0.891724 0.499942 -0.175545
N30   N     N_1   0.108276 0.687480 0.500007 -0.175545
N31   N     N_1   0.312519 0.108276 0.499995 -0.175545
N32   N     N_1   0.608276 0.812519 0.000003 -0.175545
O1    O     O_R   0.965560 0.438990 0.499980 -0.610604
O2    O     O_R   0.938990 0.534440 0.999980 -0.610605
O3    O     O_R   0.534440 0.061010 0.999980 -0.610605
O4    O     O_R   0.061010 0.465560 0.999980 -0.610604
O5    O     O_R   0.534440 0.938990 0.000020 -0.610605
O6    O     O_R   0.061010 0.534440 0.000020 -0.610605
O7    O     O_R   0.465560 0.061010 0.000020 -0.610604
O8    O     O_R   0.938990 0.465560 0.000020 -0.610604
O9    O     O_R   0.060930 0.999970 0.453240 -0.612872
O10   O     O_R   0.999970 0.939070 0.453240 -0.612871
O11   O     O_R   0.939070 0.000030 0.453240 -0.612872
O12   O     O_R   0.438990 0.034440 0.499980 -0.610605
O13   O     O_R   0.000030 0.060930 0.453240 -0.612872
O14   O     O_R   0.939070 0.999970 0.546760 -0.612872
O15   O     O_R   0.000030 0.939070 0.546760 -0.612873
O16   O     O_R   0.060930 0.000030 0.546760 -0.612872
O17   O     O_R   0.999970 0.060930 0.546760 -0.612872
O18   O     O_R   0.560930 0.499970 0.953240 -0.612872
O19   O     O_R   0.499970 0.439070 0.953240 -0.612871
O20   O     O_R   0.439070 0.500030 0.953240 -0.612872
O21   O     O_R   0.500030 0.560930 0.953240 -0.612872
O22   O     O_R   0.439070 0.499970 0.046760 -0.612872
O23   O     O_R   0.034440 0.561010 0.499980 -0.610605
O24   O     O_R   0.500030 0.439070 0.046760 -0.612872
O25   O     O_R   0.560930 0.500030 0.046760 -0.612872
O26   O     O_R   0.499970 0.560930 0.046760 -0.612872
O27   O     O_R   0.965560 0.499980 0.417220 -0.611571
O28   O     O_R   0.499980 0.034440 0.417220 -0.611572
O29   O     O_R   0.034440 0.500020 0.417220 -0.611572
O30   O     O_R   0.500020 0.965560 0.417220 -0.611571
O31   O     O_R   0.034440 0.499980 0.582780 -0.611572
O32   O     O_R   0.500020 0.034440 0.582780 -0.611572
O33   O     O_R   0.965560 0.500020 0.582780 -0.611571
O34   O     O_R   0.561010 0.965560 0.499980 -0.610604
O35   O     O_R   0.499980 0.965560 0.582780 -0.611572
O36   O     O_R   0.465560 0.999980 0.917220 -0.611571
O37   O     O_R   0.999980 0.534440 0.917220 -0.611572
O38   O     O_R   0.534440 0.000020 0.917220 -0.611572
O39   O     O_R   0.000020 0.465560 0.917220 -0.611571
O40   O     O_R   0.534440 0.999980 0.082780 -0.611572
O41   O     O_R   0.000020 0.534440 0.082780 -0.611572
O42   O     O_R   0.465560 0.000020 0.082780 -0.611572
O43   O     O_R   0.999980 0.465560 0.082780 -0.611572
O44   O     O_R   0.034440 0.438990 0.500020 -0.610605
O45   O     O_R   0.561010 0.034440 0.500020 -0.610605
O46   O     O_R   0.965560 0.561010 0.500020 -0.610604
O47   O     O_R   0.438990 0.965560 0.500020 -0.610604
O48   O     O_R   0.465560 0.938990 0.999980 -0.610604
Zn1   Zn    Zn3+2 0.954010 0.500000 0.500000 1.003966
Zn2   Zn    Zn3+2 0.000000 0.000000 0.562390 1.001805
Zn3   Zn    Zn3+2 0.500000 0.500000 0.937610 1.001805
Zn4   Zn    Zn3+2 0.500000 0.500000 0.062390 1.001805
Zn5   Zn    Zn3+2 0.500000 0.045990 0.500000 1.003965
Zn6   Zn    Zn3+2 0.045990 0.500000 0.500000 1.003965
Zn7   Zn    Zn3+2 0.500000 0.954010 0.500000 1.003966
Zn8   Zn    Zn3+2 0.454010 0.000000 0.000000 1.003966
Zn9   Zn    Zn3+2 0.000000 0.545990 0.000000 1.003965
Zn10  Zn    Zn3+2 0.545990 0.000000 0.000000 1.003965
Zn11  Zn    Zn3+2 0.000000 0.454010 0.000000 1.003966
Zn12  Zn    Zn3+2 0.000000 0.000000 0.437610 1.001805

loop_
_geom_bond_atom_site_label_1
_geom_bond_atom_site_label_2
_ccdc_geom_bond_type
O1    Zn1   S    
O11   Zn12  S    
O13   Zn12  S    
C2    C143  S    
C99   O15   A    
C82   C99   S    
C23   C69   S    
C17   C150  A    
C38   N4    T    
C16   C134  A    
C110  C118  T    
C136  C149  A    
O38   Zn10  S    
C36   N2    T    
C89   O27   A    
C5    C20   A    
O37   Zn9   S    
O19   Zn3   S    
C6    C19   A    
C99   O10   A    
C9    C42   S    
C1    C71   S    
C116  C122  S    
C93   O36   A    
O32   Zn5   S    
C104  O20   A    
C32   N30   T    
C24   C83   T    
O16   Zn2   S    
C90   C107  S    
C49   N15   T    
O20   Zn3   S    
C24   C145  S    
C98   O5    A    
O43   Zn11  S    
C47   N13   T    
C9    C140  A    
C101  O13   A    
C9    C22   A    
C131  O6    A    
C15   C135  A    
C11   C25   A    
C109  O8    A    
C60   N26   T    
C55   C136  S    
C66   C74   T    
C68   C77   T    
C7    C27   S    
C57   C86   T    
C4    C124  A    
O46   Zn1   S    
O47   Zn7   S    
C87   O34   A    
O35   Zn7   S    
C117  C121  S    
C118  C119  S    
C55   N21   T    
C91   O31   A    
C50   C130  S    
O23   Zn6   S    
O18   Zn3   S    
C41   N7    T    
C15   C37   S    
C113  C122  T    
O39   Zn11  S    
C89   C106  S    
C33   N31   T    
C94   O37   A    
C64   C73   T    
C34   N32   T    
C93   O38   A    
C8    C39   S    
O26   Zn4   S    
C74   C87   S    
C94   C112  S    
C130  C144  A    
C128  C141  A    
O24   Zn4   S    
C129  C145  A    
O28   Zn5   S    
C76   O23   A    
C46   C85   T    
C131  O4    A    
C58   C138  S    
C132  C143  A    
C15   C23   A    
O8    Zn11  S    
C39   N5    T    
C10   C41   S    
C52   C133  S    
C97   O16   A    
C96   C114  S    
C69   C78   T    
C128  C150  A    
C44   N10   T    
O34   Zn7   S    
O3    Zn10  S    
C86   C103  S    
C91   C108  S    
C140  C147  A    
C88   C104  S    
C19   C152  A    
C5    C29   S    
O12   Zn5   S    
C138  C149  A    
C139  C148  A    
C6    C28   S    
C44   C125  S    
C115  C123  S    
C65   O47   A    
C96   O43   A    
C54   N20   T    
C137  C146  A    
C59   N25   T    
O42   Zn8   S    
C103  O24   A    
C6    C126  A    
O29   Zn6   S    
O14   Zn2   S    
C120  O7    A    
O33   Zn1   S    
C53   N19   T    
C95   C113  S    
C87   O45   A    
C49   C129  S    
C12   C21   A    
C75   C98   S    
C105  O26   A    
O27   Zn1   S    
C56   N22   T    
C8    C137  A    
C90   O28   A    
C35   C146  S    
C91   O33   A    
C92   O35   A    
C78   C120  S    
O44   Zn6   S    
C134  C147  A    
C61   C88   T    
C17   C62   S    
C14   C38   S    
C46   C147  S    
C32   C152  S    
O21   Zn3   S    
C45   C126  S    
C35   C84   T    
C7    C18   A    
C79   C131  S    
C5    C127  A    
C8    C21   A    
C3    C20   A    
C102  O25   A    
O31   Zn6   S    
C7    C125  A    
C12   C34   S    
C3    C31   S    
C22   C68   S    
O10   Zn12  S    
C27   N12   T    
C93   C111  S    
C98   O48   A    
C4    C17   A    
C43   N9    T    
C111  C119  T    
C33   C151  S    
C127  C145  A    
C104  O22   A    
C83   C100  S    
C130  C152  A    
C94   O39   A    
C109  O2    A    
O9    Zn12  S    
C124  C141  A    
O15   Zn2   S    
C67   C75   T    
C10   C139  A    
C114  C123  T    
C52   N18   T    
C18   C151  A    
C120  O3    A    
C90   O30   A    
C37   N3    T    
C76   O46   A    
C1    O44   A    
C89   O29   A    
C100  O11   A    
C20   C66   S    
O7    Zn8   S    
C77   C109  S    
C16   C22   A    
C14   C136  A    
C70   C79   T    
C3    C129  A    
C108  C117  T    
C11   C138  A    
C31   N29   T    
C58   N24   T    
C53   C134  S    
O45   Zn5   S    
O22   Zn4   S    
C26   N1    T    
C60   C140  S    
O2    Zn9   S    
C4    C26   S    
C51   C132  S    
C28   N23   T    
C47   C127  S    
C25   C70   S    
C105  O21   A    
C1    O1    A    
C10   C23   A    
C65   C72   S    
C42   N8    T    
C80   C101  S    
C59   C139  S    
C80   C142  T    
C95   O40   A    
C106  C115  T    
C12   C133  A    
C96   O41   A    
C65   O12   A    
O30   Zn7   S    
C102  O18   A    
C95   O42   A    
C112  C121  T    
C101  O17   A    
C141  C142  S    
C16   C36   S    
C50   N16   T    
C56   C137  S    
C92   C110  S    
O17   Zn2   S    
C61   C149  S    
C48   C128  S    
O40   Zn10  S    
C84   C105  S    
C13   C82   T    
C126  C144  A    
C63   C72   T    
C81   C97   S    
C19   C64   S    
C62   C71   T    
C92   O32   A    
C14   C25   A    
C45   N11   T    
C11   C40   S    
C18   C63   S    
C103  O19   A    
C107  C116  T    
O25   Zn4   S    
C30   C150  S    
C40   N6    T    
C54   C135  S    
C125  C143  A    
C48   N14   T    
C73   C76   S    
O6    Zn9   S    
C135  C148  A    
C29   N27   T    
C57   C148  S    
C97   O9    A    
O5    Zn10  S    
O48   Zn8   S    
C132  C151  A    
C30   N28   T    
O36   Zn8   S    
C2    C81   T    
C133  C146  A    
O4    Zn11  S    
O41   Zn9   S    
C43   C124  S    
C13   C144  S    
C21   C67   S    
C85   C102  S    
C51   N17   T    
C100  O14   A    
