data_mof_unit_66717.cif
_audit_creation_date              2013-03-05T15:39:24-0500
_audit_creation_method            fapswitch 2.2
_symmetry_space_group_name_H-M    P1
_symmetry_Int_Tables_number       1
_space_group_crystal_system       triclinic
_cell_length_a                    20.875716
_cell_length_b                    22.025537
_cell_length_c                    8.534105
_cell_angle_alpha                 89.999477
_cell_angle_beta                  103.487969
_cell_angle_gamma                 90.507322
_cell_volume                      3815.58621516

loop_
_atom_site_label
_atom_site_type_symbol
_atom_site_description
_atom_site_fract_x
_atom_site_fract_y
_atom_site_fract_z
_atom_type_partial_charge
P1    P     P_3+3 0.859590 0.433890 0.993820 0.479331
P2    P     P_3+3 0.859590 0.566110 0.493820 0.478542
P3    P     P_3+3 0.359590 0.933890 0.993820 0.477027
P4    P     P_3+3 0.359590 0.066110 0.493820 0.481073
O1    O     O_2   0.866180 0.413660 0.823810 -0.337740
O2    O     O_2   0.866180 0.586340 0.323810 -0.376549
O3    O     O_2   0.366180 0.913660 0.823810 -0.338020
O4    O     O_2   0.366180 0.086340 0.323810 -0.387941
O5    O     O_3   0.922050 0.469730 0.097400 -0.387662
O6    O     O_3   0.922050 0.530270 0.597400 -0.336307
O7    O     O_3   0.422050 0.969730 0.097400 -0.387829
O8    O     O_3   0.422050 0.030270 0.597400 -0.340858
O9    O     O_3   0.976760 0.360270 0.628090 -0.394275
O10   O     O_3   0.976760 0.639730 0.128090 -0.386594
O11   O     O_3   0.476760 0.860270 0.628090 -0.396809
O12   O     O_3   0.476760 0.139730 0.128090 -0.382896
O13   O     O_2   0.871723 0.309849 0.703426 -0.397989
O14   O     O_2   0.871731 0.687641 0.197233 -0.408993
O15   O     O_2   0.370470 0.811187 0.703143 -0.395775
O16   O     O_2   0.375674 0.191005 0.197140 -0.406991
O17   O     O_3   0.789041 0.478575 0.959590 -0.609925
O18   O     O_3   0.801904 0.506066 0.457222 -0.553640
O19   O     O_3   0.290273 0.979357 0.959056 -0.609276
O20   O     O_3   0.299456 0.008016 0.458427 -0.558055
O21   O     O_3   0.950052 0.234818 0.605097 -0.571294
O22   O     O_3   0.951041 0.764130 0.112176 -0.552468
O23   O     O_3   0.447262 0.735164 0.605586 -0.570289
O24   O     O_3   0.456109 0.264815 0.108394 -0.550693
H1    H     H_    0.030847 0.272812 0.762301 0.188369
H2    H     H_    0.045616 0.731902 0.186663 0.147570
H3    H     H_    0.528307 0.773258 0.761775 0.191185
H4    H     H_    0.549260 0.228656 0.178387 0.146212
C1    C     C_3   0.053339 0.183041 0.697461 -0.658395
C2    C     C_3   0.044380 0.824472 0.094080 -0.674520
C3    C     C_3   0.549500 0.682733 0.704116 -0.662892
C4    C     C_3   0.551803 0.321764 0.092552 -0.678519
H5    H     H_    0.029259 0.156132 0.777184 0.225748
H6    H     H_    0.011479 0.858086 0.131199 0.217020
H7    H     H_    0.526522 0.658164 0.789921 0.226621
H8    H     H_    0.519090 0.356786 0.124245 0.215736
P5    P     P_3+3 0.140130 0.433190 0.695710 0.473901
P6    P     P_3+3 0.140130 0.566810 0.195710 0.463571
P7    P     P_3+3 0.640130 0.933190 0.695710 0.476770
P8    P     P_3+3 0.640130 0.066810 0.195710 0.465961
P9    P     P_3+3 0.082740 0.305721 0.115559 0.401008
P10   P     P_3+3 0.083569 0.697232 0.623478 0.445524
P11   P     P_3+3 0.581304 0.804915 0.113862 0.406509
P12   P     P_3+3 0.583482 0.197316 0.621832 0.447345
O25   O     O_2   0.133470 0.412980 0.865660 -0.354516
O26   O     O_2   0.133470 0.587020 0.365660 -0.323846
O27   O     O_2   0.633470 0.912980 0.865660 -0.354303
O28   O     O_2   0.633470 0.087020 0.365660 -0.324499
O29   O     O_3   0.022720 0.360150 0.061220 -0.361798
O30   O     O_3   0.022720 0.639850 0.561220 -0.344659
O31   O     O_3   0.522720 0.860150 0.061220 -0.358421
O32   O     O_3   0.522720 0.139850 0.561220 -0.342142
O33   O     O_2   0.129156 0.313217 0.999767 -0.393686
O34   O     O_2   0.141249 0.667692 0.568647 -0.348154
O35   O     O_2   0.626690 0.812573 0.995907 -0.393504
O36   O     O_2   0.640989 0.167659 0.566603 -0.347573
O37   O     O_3   0.203352 0.488074 0.756237 -0.578568
O38   O     O_3   0.203048 0.515670 0.269633 -0.623949
O39   O     O_3   0.703061 0.988377 0.756918 -0.576576
O40   O     O_3   0.702267 0.014710 0.269408 -0.621181
O41   O     O_3   0.043492 0.236068 0.054113 -0.587602
O42   O     O_3   0.074258 0.761704 0.493290 -0.543382
O43   O     O_3   0.539599 0.736476 0.050400 -0.585545
O44   O     O_3   0.573553 0.260913 0.488441 -0.538374
C5    C     C_3   0.998449 0.220105 0.147954 0.587979
C6    C     C_3   0.025033 0.806481 0.499414 0.543392
C7    C     C_3   0.495886 0.720246 0.147619 0.587091
C8    C     C_3   0.525887 0.307074 0.496054 0.546183
H9    H     H_    0.998526 0.252544 0.248412 0.018633
H10   H     H_    0.991070 0.806135 0.378898 0.147071
H11   H     H_    0.496067 0.753202 0.246990 0.018122
H12   H     H_    0.490532 0.306544 0.377311 0.148865
C9    C     C_3   0.928766 0.220418 0.038008 -0.542024
C10   C     C_3   0.055911 0.871865 0.510592 -0.666284
C11   C     C_3   0.425764 0.719405 0.039954 -0.536137
C12   C     C_3   0.558676 0.371679 0.502449 -0.663422
H13   H     H_    0.891617 0.212517 0.109838 0.149671
H14   H     H_    0.041280 0.894142 0.391371 0.179230
H15   H     H_    0.389221 0.711206 0.113333 0.149520
H16   H     H_    0.546868 0.391897 0.380559 0.175793
H17   H     H_    0.919983 0.265678 0.981205 0.217969
H18   H     H_    0.110441 0.870153 0.539702 0.218928
H19   H     H_    0.416033 0.764380 0.981978 0.215816
H20   H     H_    0.613087 0.369025 0.537316 0.218035
C13   C     C_3   0.231719 0.490944 0.153029 0.524499
C14   C     C_3   0.242426 0.495151 0.642907 0.567174
C15   C     C_3   0.732873 0.991611 0.154170 0.532406
C16   C     C_3   0.742724 0.995736 0.644995 0.564989
H21   H     H_    0.199784 0.496343 0.031136 0.138777
H22   H     H_    0.212630 0.483012 0.523005 0.092571
H23   H     H_    0.701198 0.996348 0.031851 0.138523
H24   H     H_    0.713475 0.983473 0.524670 0.092225
C17   C     C_3   0.297647 0.523728 0.159344 -0.605816
C18   C     C_3   0.300847 0.450979 0.676977 -0.700767
C19   C     C_3   0.797804 0.026564 0.162969 -0.609733
C20   C     C_3   0.801548 0.951986 0.680324 -0.694878
H25   H     H_    0.317999 0.507181 0.059714 0.189335
H26   H     H_    0.317887 0.443121 0.565857 0.166484
H27   H     H_    0.819360 0.011128 0.064376 0.187570
H28   H     H_    0.818954 0.944202 0.569629 0.165183
H29   H     H_    0.289164 0.573037 0.142767 0.158821
H30   H     H_    0.283728 0.406810 0.710620 0.185544
H31   H     H_    0.787962 0.075529 0.145555 0.159759
H32   H     H_    0.784833 0.907742 0.714210 0.184516
Ba1   Ba    Ba6+2 0.999900 0.456810 0.844860 1.572364
Ba2   Ba    Ba6+2 0.999900 0.543190 0.344860 1.561593
Ba3   Ba    Ba6+2 0.499900 0.956810 0.844860 1.571876
Ba4   Ba    Ba6+2 0.499900 0.043190 0.344860 1.561139
C21   C     C_3   0.801975 0.535624 0.904122 0.319588
C22   C     C_3   0.750431 0.518420 0.322676 0.257546
C23   C     C_3   0.303641 0.035457 0.898739 0.361278
C24   C     C_3   0.251770 0.019270 0.315406 0.272577
H33   H     H_    0.810309 0.531085 0.781270 0.116685
H34   H     H_    0.736498 0.567012 0.317266 0.045611
H35   H     H_    0.303983 0.030245 0.769989 0.109299
H36   H     H_    0.235077 0.066948 0.306832 0.038506
H37   H     H_    0.845352 0.556698 0.987650 0.107004
H38   H     H_    0.767033 0.506939 0.213121 0.143597
H39   H     H_    0.351322 0.054610 0.967674 0.095807
H40   H     H_    0.274691 0.010437 0.214040 0.138747
C25   C     C_3   0.742864 0.576641 0.901167 -0.473000
C26   C     C_3   0.690626 0.477946 0.329180 -0.423686
C27   C     C_3   0.249850 0.079629 0.916666 -0.485958
C28   C     C_3   0.193094 0.974995 0.300055 -0.441788
H41   H     H_    0.755225 0.623140 0.869563 0.189409
H42   H     H_    0.695964 0.433796 0.271553 0.202281
H43   H     H_    0.254182 0.121175 0.848054 0.186015
H44   H     H_    0.187952 0.948657 0.187152 0.191505
H45   H     H_    0.734115 0.579434 0.023956 0.158007
H46   H     H_    0.690671 0.467625 0.456708 0.202751
H47   H     H_    0.258350 0.093146 0.044380 0.155891
H48   H     H_    0.204674 0.941297 0.399502 0.203646
O45   O     O_3   0.077880 0.530130 0.092320 -0.372032
O46   O     O_3   0.077880 0.469870 0.592320 -0.348551
O47   O     O_3   0.577880 0.030130 0.092320 -0.369745
O48   O     O_3   0.577880 0.969870 0.592320 -0.348078
P13   P     P_3+3 0.914227 0.692891 0.073199 0.420552
P14   P     P_3+3 0.913499 0.306657 0.576155 0.451008
P15   P     P_3+3 0.416933 0.194599 0.070898 0.424845
P16   P     P_3+3 0.412245 0.807544 0.576035 0.450184
C29   C     C_3   0.018668 0.243311 0.653571 0.426861
C30   C     C_3   0.015366 0.760493 0.089916 0.394491
C31   C     C_3   0.515856 0.742881 0.654833 0.431353
C32   C     C_3   0.519916 0.258964 0.084459 0.406817
H49   H     H_    0.037620 0.264440 0.554535 0.021275
H50   H     H_    0.015814 0.739192 0.972255 0.014129
H51   H     H_    0.535430 0.762475 0.554811 0.017404
H52   H     H_    0.518552 0.238586 0.964755 0.007756
H53   H     H_    0.053505 0.156065 0.588401 0.197228
H54   H     H_    0.048965 0.837631 0.972426 0.183188
H55   H     H_    0.547839 0.653623 0.597686 0.202244
H56   H     H_    0.559873 0.334177 0.973759 0.183828
C33   C     C_R   0.113959 0.650093 0.936057 -0.409506
C34   C     C_R   0.121090 0.356134 0.424112 -0.455274
C35   C     C_R   0.614421 0.149973 0.934707 -0.412370
C36   C     C_R   0.620439 0.856180 0.422810 -0.449869
C37   C     C_R   0.123285 0.701111 0.845903 0.121424
C38   C     C_R   0.131642 0.307428 0.329192 0.142439
C39   C     C_R   0.624209 0.200790 0.844029 0.123412
C40   C     C_R   0.630460 0.807260 0.327705 0.149763
C41   C     C_R   0.170880 0.746590 0.916220 0.071796
C42   C     C_R   0.179254 0.262463 0.393020 0.114022
C43   C     C_R   0.672657 0.245722 0.913474 0.075141
C44   C     C_R   0.678356 0.762621 0.390784 0.108929
C45   C     C_R   0.219310 0.732742 0.062868 0.115504
C46   C     C_R   0.216803 0.266148 0.560222 0.066250
C47   C     C_R   0.720540 0.232015 0.061360 0.114056
C48   C     C_R   0.719328 0.768075 0.554069 0.062379
C49   C     C_R   0.210750 0.676331 0.140209 -0.359945
C50   C     C_R   0.200229 0.315902 0.652577 -0.358940
C51   C     C_R   0.711090 0.175982 0.139320 -0.360607
C52   C     C_R   0.702413 0.817289 0.647942 -0.358856
C53   C     C_R   0.155801 0.637797 0.085350 0.234704
C54   C     C_R   0.155071 0.362007 0.584295 0.227644
C55   C     C_R   0.656062 0.137616 0.084338 0.227687
C56   C     C_R   0.655532 0.862455 0.582265 0.225566
C57   C     C_R   0.808640 0.276299 0.306331 -0.139656
C58   C     C_R   0.820808 0.733223 0.787627 -0.087735
C59   C     C_R   0.306971 0.777539 0.306638 -0.138696
C60   C     C_R   0.321032 0.233280 0.788797 -0.102374
C61   C     C_R   0.862876 0.315040 0.368292 0.227024
C62   C     C_R   0.863765 0.686554 0.864592 0.219224
C63   C     C_R   0.361694 0.815779 0.368182 0.226263
C64   C     C_R   0.365909 0.187833 0.862976 0.228017
C65   C     C_R   0.850553 0.362538 0.107438 0.308534
C66   C     C_R   0.841904 0.630044 0.617734 0.258084
C67   C     C_R   0.349810 0.862730 0.106928 0.309013
C68   C     C_R   0.340066 0.129889 0.617936 0.274714
C69   C     C_R   0.807643 0.314720 0.039414 -0.330487
C70   C     C_R   0.792680 0.670641 0.552246 -0.343119
C71   C     C_R   0.306270 0.815272 0.039054 -0.331990
C72   C     C_R   0.282047 0.163512 0.571248 -0.327436
C73   C     C_R   0.779710 0.273993 0.136385 0.033756
C74   C     C_R   0.776740 0.723435 0.632300 0.057416
C75   C     C_R   0.278403 0.774776 0.136796 0.031390
C76   C     C_R   0.272894 0.220878 0.640965 0.055484
C77   C     C_R   0.880748 0.359883 0.270899 -0.428138
C78   C     C_R   0.875446 0.636544 0.776614 -0.524574
C79   C     C_R   0.380201 0.859993 0.270199 -0.433234
C80   C     C_R   0.378660 0.139260 0.771415 -0.538649
H57   H     H_    0.794388 0.311960 0.910633 0.197712
H58   H     H_    0.773890 0.658550 0.433154 0.180506
H59   H     H_    0.291914 0.812924 0.910120 0.197295
H60   H     H_    0.245323 0.141278 0.485529 0.140063
H61   H     H_    0.247428 0.660447 0.242087 0.142215
H62   H     H_    0.221730 0.319306 0.779732 0.169334
H63   H     H_    0.747274 0.159938 0.241617 0.142457
H64   H     H_    0.724688 0.820972 0.774542 0.162938
H65   H     H_    0.917675 0.393422 0.323724 0.181088
H66   H     H_    0.912737 0.604008 0.830017 0.170730
H67   H     H_    0.417612 0.893175 0.322615 0.180275
H68   H     H_    0.419334 0.109297 0.819320 0.172994
H69   H     H_    0.075883 0.617434 0.884089 0.173877
H70   H     H_    0.086153 0.390653 0.370912 0.179247
H71   H     H_    0.575994 0.117585 0.883132 0.172859
H72   H     H_    0.584871 0.890336 0.370647 0.179242
C81   C     C_1   0.347659 0.514865 0.309780 0.176875
N1    N     N_1   0.388188 0.508257 0.426484 -0.101090
C82   C     C_1   0.358363 0.471400 0.801310 0.230318
N2    N     N_1   0.404354 0.487118 0.897321 -0.101704
C83   C     C_1   0.847501 0.018513 0.314394 0.173761
N3    N     N_1   0.887806 0.012419 0.431775 -0.101253
C84   C     C_1   0.858698 0.972760 0.805078 0.233298
N4    N     N_1   0.904450 0.988736 0.901422 -0.105790
C85   C     C_3   0.679041 0.554685 0.785288 -0.186430
C86   C     C_3   0.672769 0.578341 0.615784 -1.002515
H73   H     H_    0.625818 0.561591 0.538316 0.253323
H74   H     H_    0.673039 0.628339 0.610760 0.271189
H75   H     H_    0.715113 0.562744 0.571842 0.282064
H76   H     H_    0.676227 0.504320 0.780573 0.218525
H77   H     H_    0.636147 0.571200 0.828702 0.198087
C87   C     C_3   0.624147 0.507344 0.249655 -0.317537
C88   C     C_3   0.601048 0.490693 0.072627 -0.914545
H78   H     H_    0.643442 0.490459 0.016024 0.270708
H79   H     H_    0.578148 0.444964 0.060273 0.267767
H80   H     H_    0.563906 0.523748 0.010038 0.252956
H81   H     H_    0.585911 0.491763 0.312260 0.211502
H82   H     H_    0.627083 0.557572 0.261123 0.196587
C89   C     C_3   0.179788 0.053469 0.863311 -0.176840
C90   C     C_3   0.158529 0.046168 0.681586 -0.935369
H83   H     H_    0.105590 0.033447 0.647291 0.250200
H84   H     H_    0.165279 0.089445 0.620493 0.250030
H85   H     H_    0.187815 0.009973 0.641673 0.278088
H86   H     H_    0.175376 0.009145 0.921900 0.223440
H87   H     H_    0.145501 0.084807 0.902974 0.178308
C91   C     C_3   0.126962 0.005599 0.303475 -0.293086
C92   C     C_3   0.075388 0.999682 0.144593 -0.920914
H88   H     H_    0.087927 0.029873 0.052572 0.249569
H89   H     H_    0.071523 0.952223 0.100047 0.269607
H90   H     H_    0.026510 0.013195 0.162828 0.265079
H91   H     H_    0.106248 0.982992 0.396805 0.214685
H92   H     H_    0.133227 0.054385 0.336626 0.196581
C93   C     C_1   0.121098 0.195062 0.784555 0.186212
N5    N     N_1   0.174297 0.205144 0.855507 -0.083948
C94   C     C_1   0.109044 0.827551 0.206849 0.186333
N6    N     N_1   0.159692 0.829508 0.297530 -0.089614
C95   C     C_1   0.617820 0.695279 0.784452 0.197029
N7    N     N_1   0.671857 0.705868 0.847402 -0.082041
C96   C     C_1   0.614904 0.322923 0.211427 0.191131
N8    N     N_1   0.664346 0.323446 0.306708 -0.087098
C97   C     C_1   0.919720 0.174324 0.910301 0.267463
N9    N     N_1   0.912660 0.137788 0.810233 -0.083147
C98   C     C_1   0.036252 0.913543 0.625531 0.118678
N10   N     N_1   0.020537 0.946328 0.715455 -0.089125
C99   C     C_1   0.416926 0.673056 0.912996 0.261592
N11   N     N_1   0.410193 0.636356 0.813420 -0.085664
C100  C     C_1   0.537986 0.416723 0.607676 0.112756
N12   N     N_1   0.521739 0.452372 0.689857 -0.087790
C101  C     C_1   0.781196 0.244420 0.423348 0.160217
N13   N     N_1   0.759584 0.219504 0.518799 -0.055107
C102  C     C_1   0.842548 0.793244 0.840866 0.109346
N14   N     N_1   0.864115 0.840282 0.885182 -0.077943
C103  C     C_1   0.278285 0.746928 0.423385 0.160128
N15   N     N_1   0.255715 0.723034 0.518686 -0.050827
C104  C     C_1   0.340990 0.293642 0.842116 0.105275
N16   N     N_1   0.361528 0.340838 0.887742 -0.077494
C105  C     C_3   0.167624 0.806157 0.823877 -0.328377
C106  C     C_3   0.176038 0.866791 0.915736 -0.935705
H93   H     H_    0.128802 0.890765 0.902971 0.248449
H94   H     H_    0.197311 0.862103 0.045294 0.272605
H95   H     H_    0.207800 0.897160 0.862656 0.290746
H96   H     H_    0.198938 0.803957 0.735277 0.197547
H97   H     H_    0.117430 0.809321 0.753195 0.215261
C107  C     C_3   0.187550 0.212299 0.277281 -0.430566
C108  C     C_3   0.254514 0.214246 0.238753 -0.731505
H98   H     H_    0.252533 0.238033 0.123339 0.247420
H99   H     H_    0.291885 0.238063 0.332708 0.264389
H100  H     H_    0.269305 0.166841 0.227041 0.255428
H101  H     H_    0.171264 0.168152 0.314712 0.132535
H102  H     H_    0.153996 0.212809 0.158718 0.255614
C109  C     C_3   0.671152 0.304418 0.818356 -0.341472
C110  C     C_3   0.678492 0.365669 0.906964 -0.936048
H103  H     H_    0.631624 0.390804 0.880926 0.248659
H104  H     H_    0.695419 0.362010 0.038734 0.279403
H105  H     H_    0.713372 0.394336 0.859681 0.290014
H106  H     H_    0.703694 0.301148 0.732789 0.198884
H107  H     H_    0.621808 0.307523 0.743451 0.215651
C111  C     C_3   0.683611 0.711193 0.277266 -0.432889
C112  C     C_3   0.740881 0.722631 0.198074 -0.765221
H108  H     H_    0.727863 0.757263 0.103240 0.267318
H109  H     H_    0.784689 0.740626 0.285877 0.266836
H110  H     H_    0.752204 0.679812 0.142562 0.250917
H111  H     H_    0.679547 0.666826 0.334564 0.141550
H112  H     H_    0.641394 0.703975 0.176950 0.245167
C113  C     C_3   0.018296 0.157417 0.223992 -0.406406
C114  C     C_3   0.965938 0.126783 0.296475 -0.969714
H113  H     H_    0.946290 0.158978 0.372986 0.294182
H114  H     H_    0.924821 0.109355 0.199608 0.267544
H115  H     H_    0.988106 0.087666 0.371220 0.271936
H116  H     H_    0.030613 0.126580 0.132469 0.217455
H117  H     H_    0.063406 0.163460 0.321113 0.166177
C115  C     C_3   0.979714 0.794904 0.615283 -0.492834
C116  C     C_3   0.931897 0.743386 0.555447 -0.745438
H118  H     H_    0.880855 0.760576 0.521695 0.229968
H119  H     H_    0.942056 0.720156 0.449344 0.309838
H120  H     H_    0.938407 0.710119 0.652906 0.238372
H121  H     H_    0.009127 0.786009 0.737873 0.174069
H122  H     H_    0.949100 0.835289 0.623106 0.206187
C117  C     C_3   0.517151 0.657959 0.225552 -0.425726
C118  C     C_3   0.465412 0.626466 0.298514 -0.951162
H123  H     H_    0.445416 0.658273 0.375336 0.290704
H124  H     H_    0.424421 0.608602 0.202028 0.267620
H125  H     H_    0.488240 0.587483 0.372831 0.267030
H126  H     H_    0.530083 0.627011 0.134923 0.212484
H127  H     H_    0.562146 0.664848 0.322981 0.167655
C119  C     C_3   0.482189 0.298023 0.616858 -0.486925
C120  C     C_3   0.434794 0.245149 0.569330 -0.759953
H128  H     H_    0.383386 0.260477 0.552929 0.224769
H129  H     H_    0.439387 0.223126 0.456392 0.307553
H130  H     H_    0.447401 0.211469 0.665887 0.240274
H131  H     H_    0.512899 0.292025 0.739226 0.176390
H132  H     H_    0.451325 0.338677 0.619528 0.206023
C121  C     C_3   0.239149 0.422708 0.191723 -0.302391
C122  C     C_3   0.279142 0.388902 0.093365 -0.885890
H133  H     H_    0.261560 0.400157 0.964615 0.273446
H134  H     H_    0.332147 0.400960 0.134628 0.260012
H135  H     H_    0.273671 0.339448 0.109354 0.263794
H136  H     H_    0.262101 0.415512 0.320871 0.166390
H137  H     H_    0.189233 0.402306 0.170064 0.221322
C123  C     C_3   0.265834 0.562409 0.636176 -0.281046
C124  C     C_3   0.264748 0.600041 0.785987 -0.794988
H138  H     H_    0.216573 0.596299 0.818842 0.268558
H139  H     H_    0.273498 0.648618 0.763652 0.242780
H140  H     H_    0.304685 0.585413 0.887028 0.223812
H141  H     H_    0.315988 0.564913 0.613421 0.164821
H142  H     H_    0.235425 0.585927 0.532655 0.228656
C125  C     C_3   0.743131 0.923456 0.192516 -0.309103
C126  C     C_3   0.785293 0.891858 0.095375 -0.902407
H143  H     H_    0.764135 0.898899 0.965739 0.274875
H144  H     H_    0.836796 0.909051 0.128452 0.263211
H145  H     H_    0.786885 0.842736 0.121796 0.259361
H146  H     H_    0.765997 0.916732 0.321906 0.170141
H147  H     H_    0.694237 0.900797 0.169448 0.219589
C127  C     C_3   0.765655 0.063161 0.638880 -0.279830
C128  C     C_3   0.766355 0.100202 0.790793 -0.802716
H148  H     H_    0.773564 0.149025 0.768187 0.243402
H149  H     H_    0.808033 0.086284 0.888446 0.224560
H150  H     H_    0.719364 0.095391 0.828906 0.267425
H151  H     H_    0.815165 0.066043 0.612573 0.164875
H152  H     H_    0.734032 0.086920 0.537786 0.229600

loop_
_geom_bond_atom_site_label_1
_geom_bond_atom_site_label_2
_geom_bond_distance
_ccdc_geom_bond_type
C19   H27   1.097903 S    
C82   N2    1.157641 T    
P5    O37   1.767408 S    
C11   H19   1.106352 S    
C121  C122  1.514581 S    
P7    O39   1.768578 S    
C112  H109  1.108521 S    
P8    O40   1.743784 S    
C60   C104  1.431785 S    
P9    O33   1.544835 D    
C106  H93   1.105521 S    
C79   H67   1.082180 S    
C20   C84   1.471076 S    
C100  N12   1.157216 T    
C111  H112  1.086497 S    
O26   Ba2   2.908593 S    
C90   H83   1.108665 S    
C62   C78   1.388052 A    
C85   H76   1.110586 S    
C30   H50   1.110380 S    
C127  C128  1.528904 S    
C4    C32   1.524267 S    
C118  H123  1.108006 S    
C6    H10   1.104657 S    
P12   O36   1.538785 D    
C117  H127  1.108968 S    
C107  H102  1.088164 S    
P4    O8    1.607865 S    
H3    C31   1.111050 S    
C115  H122  1.110886 S    
P6    O45   1.602031 S    
C44   C111  1.511753 S    
C67   C79   1.391376 A    
P8    C55   1.893261 S    
P5    O25   1.553708 D    
C41   C45   1.447989 A    
C114  H114  1.109349 S    
P7    C56   1.903179 S    
C23   H39   1.110967 S    
C119  C120  1.513970 S    
Ba3   O47   2.840366 S    
C117  C118  1.528357 S    
C40   C44   1.422164 A    
C125  H146  1.106558 S    
C43   C47   1.449138 A    
C18   H26   1.101923 S    
C52   H64   1.074745 S    
O13   P14   1.545362 D    
C116  H120  1.093677 S    
C85   C86   1.514595 S    
C10   H14   1.107659 S    
C112  H108  1.100797 S    
O44   C8    1.440873 S    
C126  H143  1.102889 S    
C68   C80   1.382787 A    
O9    P14   1.741915 S    
C78   H66   1.082428 S    
C124  H140  1.100838 S    
C86   H74   1.102074 S    
P5    O46   1.613587 S    
P11   C40   1.873940 S    
P8    Ba4   3.488799 S    
C110  H103  1.105117 S    
P8    O47   1.602031 S    
C36   C40   1.395244 A    
C46   C50   1.440744 A    
O29   Ba1   2.788626 S    
O5    Ba2   2.841037 S    
C123  H141  1.109410 S    
C13   C121  1.540165 S    
Ba3   Ba4   4.671975 S    
O31   Ba3   2.788626 S    
O7    Ba4   2.841037 S    
C17   H29   1.105728 S    
P2    C66   1.851738 S    
C7    C117  1.547434 S    
C18   H30   1.094672 S    
C90   H85   1.109565 S    
O4    Ba4   2.922510 S    
C34   C54   1.390936 A    
C12   H20   1.107092 S    
C2    C30   1.526033 S    
O42   C6    1.440280 S    
C118  H125  1.110329 S    
C27   H43   1.100736 S    
P3    O7    1.596496 S    
P11   O35   1.543231 D    
C25   H41   1.102740 S    
C26   H46   1.111613 S    
C8    C119  1.539568 S    
C89   H86   1.109720 S    
C1    C93   1.458209 S    
C128  H148  1.107675 S    
O40   C15   1.390376 S    
C49   C53   1.409835 A    
C37   C41   1.433520 A    
C34   C38   1.393920 A    
Ba4   O48   2.856688 S    
C5    C9    1.536227 S    
C125  C126  1.515770 S    
C20   H28   1.102310 S    
C57   C73   1.435848 A    
C7    C11   1.536079 S    
C113  H117  1.106887 S    
C11   C99   1.467481 S    
C3    H55   1.105528 S    
C25   C85   1.536542 S    
C95   N7    1.152460 T    
C22   C26   1.539186 S    
C1    H53   1.104928 S    
O28   Ba4   2.908593 S    
C126  H145  1.104379 S    
C16   H24   1.097654 S    
C87   C88   1.518720 S    
O30   Ba2   2.782204 S    
O6    Ba1   2.857358 S    
C93   N5    1.153790 T    
O22   C30   1.402350 S    
C36   C56   1.393108 A    
O9    Ba1   2.782439 S    
C110  H105  1.104809 S    
C9    C97   1.467922 S    
C60   C76   1.442181 A    
C48   C74   1.580013 S    
C51   H63   1.074569 S    
C26   C87   1.543495 S    
P6    O38   1.741140 S    
C121  H136  1.106558 S    
P8    O28   1.554421 D    
C9    H17   1.106417 S    
P5    Ba1   3.496524 S    
C88   H78   1.102778 S    
P10   O34   1.539118 D    
P7    Ba3   3.496524 S    
C59   C103  1.441189 S    
C71   C75   1.430706 A    
C91   H92   1.109974 S    
C20   H32   1.093656 S    
C69   H57   1.070502 S    
C4    C96   1.463235 S    
C27   C89   1.533922 S    
O17   C21   1.389064 S    
C66   C78   1.380069 A    
C92   H90   1.110569 S    
C3    C31   1.517863 S    
C64   C80   1.388556 A    
C24   H36   1.106417 S    
Ba1   O46   3.000997 S    
C87   H81   1.111064 S    
C72   H60   1.046151 S    
C31   H51   1.114206 S    
P2    O18   1.758708 S    
C81   N1    1.156756 T    
O12   Ba4   2.788943 S    
C108  H98   1.108015 S    
P7    O48   1.613587 S    
C22   H34   1.109721 S    
P6    O26   1.554421 D    
C21   H33   1.106740 S    
C42   C46   1.460905 A    
C122  H134  1.109941 S    
C119  H131  1.099187 S    
P9    O41   1.754205 S    
O37   C14   1.410979 S    
O10   Ba2   2.788943 S    
P14   C61   1.851118 S    
O14   P13   1.535276 D    
C49   H61   1.076461 S    
C32   H52   1.109991 S    
C5    C113  1.543969 S    
C98   N10   1.157415 T    
O20   C24   1.407032 S    
C122  H135  1.105983 S    
C80   H68   1.082412 S    
C23   H35   1.106435 S    
C16   C127  1.560886 S    
C10   C98   1.472347 S    
C14   C123  1.561055 S    
P6    Ba2   3.488799 S    
C42   C107  1.519732 S    
C8    C12   1.568969 S    
C36   H72   1.082200 S    
C8    H12   1.105770 S    
O32   Ba4   2.782204 S    
O19   C23   1.389423 S    
C90   H84   1.110029 S    
C128  H150  1.107385 S    
C13   H21   1.103900 S    
C120  H130  1.095835 S    
C67   C71   1.411348 A    
C15   H23   1.103195 S    
C65   C69   1.410464 A    
C52   C56   1.422294 A    
C21   H37   1.111299 S    
C123  C124  1.528385 S    
C106  H95   1.106572 S    
C118  H124  1.109259 S    
C88   H80   1.110558 S    
C45   C49   1.436111 A    
P13   C62   1.849625 S    
C15   C19   1.539377 S    
C48   C52   1.442314 A    
P16   C63   1.850196 S    
P1    C65   1.877670 S    
O15   P16   1.544721 D    
C89   H87   1.106831 S    
P15   C64   1.849564 S    
P4    C68   1.863609 S    
C102  N14   1.153865 T    
C6    C115  1.539474 S    
C12   H16   1.106095 S    
C96   N8    1.155386 T    
P1    O1    1.554585 D    
C68   C72   1.401734 A    
O25   Ba1   2.924935 S    
C27   H47   1.103134 S    
P10   O42   1.786840 S    
P3    O3    1.554585 D    
C28   H48   1.112234 S    
H1    C29   1.111271 S    
P4    O20   1.760412 S    
C26   H42   1.107880 S    
C89   C90   1.518435 S    
O38   C13   1.388776 S    
C63   C79   1.393141 A    
C108  H100  1.102552 S    
C58   C62   1.426085 A    
C61   C77   1.394143 A    
C116  H119  1.103715 S    
P1    Ba1   3.487284 S    
C38   C42   1.424899 A    
O21   P14   1.755104 S    
P3    Ba3   3.487284 S    
P10   C37   1.887451 S    
C126  H144  1.109160 S    
C104  N16   1.153379 T    
C5    H9    1.115725 S    
C124  H139  1.107806 S    
O22   P13   1.738576 S    
C50   C54   1.421325 A    
C72   C76   1.429808 A    
C109  H107  1.080945 S    
C110  H104  1.100493 S    
C2    H6    1.109390 S    
C99   N11   1.156544 T    
O16   P15   1.529862 D    
C57   C101  1.441620 S    
Ba3   O48   3.000997 S    
C14   H22   1.097995 S    
C112  H110  1.107235 S    
C2    H54   1.103130 S    
C123  H142  1.093617 S    
O24   C32   1.400906 S    
C41   C105  1.524328 S    
O12   P15   1.732314 S    
P1    O5    1.596496 S    
C92   H88   1.104640 S    
C109  C110  1.535472 S    
C91   C92   1.526827 S    
C15   C125  1.542511 S    
C111  H111  1.104141 S    
C28   C91   1.548031 S    
C85   H77   1.109927 S    
C3    H7    1.103815 S    
P9    C38   1.870465 S    
C59   C63   1.411870 A    
C9    H13   1.107639 S    
P10   O30   1.774819 S    
C33   H69   1.082311 S    
O23   P16   1.753318 S    
O24   P15   1.737411 S    
C107  H101  1.099067 S    
P12   O44   1.787755 S    
C77   H65   1.082137 S    
C19   C83   1.468196 S    
C115  H121  1.101082 S    
C35   H71   1.082269 S    
C33   C37   1.399479 A    
C4    H56   1.099893 S    
C114  H113  1.107942 S    
P2    Ba2   3.494784 S    
C24   H40   1.099945 S    
C106  H94   1.096421 S    
Ba2   O45   3.003762 S    
C35   C55   1.395257 A    
C113  H116  1.110987 S    
C109  H106  1.110054 S    
H4    C32   1.114265 S    
C19   H31   1.103216 S    
C12   C100  1.471674 S    
C3    C95   1.455142 S    
C120  H128  1.105272 S    
Ba1   Ba2   4.671975 S    
C11   H15   1.107752 S    
P7    O27   1.553708 D    
O1    Ba1   2.906390 S    
O41   C5    1.412296 S    
O3    Ba3   2.906390 S    
O43   C7    1.412889 S    
C86   H73   1.106872 S    
C1    H5    1.105058 S    
C44   C48   1.459453 A    
C71   H59   1.071974 S    
C115  C116  1.512264 S    
C29   H49   1.113624 S    
C114  H115  1.110264 S    
C105  H97   1.083110 S    
P1    O17   1.745839 S    
C6    C10   1.566337 S    
P3    O19   1.734998 S    
C58   C74   1.441389 A    
P4    O4    1.553878 D    
C46   C76   1.576185 S    
P12   C39   1.889777 S    
C70   C74   1.429189 A    
C113  C114  1.528041 S    
C92   H89   1.108120 S    
C21   C25   1.531261 S    
P6    C53   1.890326 S    
C23   C27   1.526574 S    
C86   H75   1.095475 S    
Ba1   O45   2.840366 S    
C117  H126  1.111935 S    
C87   H82   1.110493 S    
C84   N4    1.157486 T    
O39   C16   1.410928 S    
C105  H96   1.110187 S    
C97   N9    1.156643 T    
C34   H70   1.082339 S    
C10   H18   1.108056 S    
P4    Ba4   3.494784 S    
O10   P13   1.742531 S    
C119  H132  1.111075 S    
O2    Ba2   2.922510 S    
Ba4   O47   3.003762 S    
P2    O2    1.553878 D    
C28   H44   1.107751 S    
P11   O43   1.755096 S    
H2    C30   1.113933 S    
C43   C109  1.523192 S    
C70   H58   1.034367 S    
O11   Ba3   2.782439 S    
P5    C54   1.899084 S    
C4    H8    1.109088 S    
C57   C61   1.411837 A    
C51   C55   1.408972 A    
C65   C77   1.391840 A    
C105  C106  1.536419 S    
C47   C51   1.435845 A    
C59   C75   1.434013 A    
C60   C64   1.421388 A    
C13   C17   1.538285 S    
C39   C43   1.433954 A    
P3    C67   1.875164 S    
O18   C22   1.405957 S    
C18   C82   1.471722 S    
C83   N3    1.156833 T    
C127  H151  1.108934 S    
C128  H149  1.100899 S    
C33   C53   1.394498 A    
C127  H152  1.092897 S    
C120  H129  1.103346 S    
C121  H137  1.106250 S    
C1    C29   1.522118 S    
Ba2   O46   2.856688 S    
C88   H79   1.105478 S    
C35   C39   1.401082 A    
C94   N6    1.155931 T    
P2    O6    1.607865 S    
C16   C20   1.541327 S    
P11   O31   1.716864 S    
C25   H45   1.106659 S    
C91   H91   1.107312 S    
P12   O32   1.773162 S    
C111  C112  1.523535 S    
O27   Ba3   2.924935 S    
C50   H62   1.075572 S    
C107  C108  1.509130 S    
C47   C73   1.549638 S    
C7    H11   1.115595 S    
C69   C73   1.430177 A    
C108  H99   1.108010 S    
C17   C81   1.467885 S    
C2    C94   1.464706 S    
C116  H118  1.107101 S    
C66   C70   1.384265 A    
P9    O29   1.725589 S    
O11   P16   1.747302 S    
C22   H38   1.100405 S    
C45   C75   1.547159 S    
O23   C31   1.403894 S    
C122  H133  1.103155 S    
C24   C28   1.540292 S    
O21   C29   1.405970 S    
C124  H138  1.107638 S    
C103  N15   1.155334 T    
C14   C18   1.540801 S    
O8    Ba3   2.857358 S    
C17   H25   1.098872 S    
C125  H147  1.107667 S    
C58   C102  1.432919 S    
C101  N13   1.155553 T    
