data_mof_unit_6690.cif
_audit_creation_date              2012-12-11T14:07:47-0500
_audit_creation_method            fapswitch 2.2
_symmetry_space_group_name_H-M    P1
_symmetry_Int_Tables_number       1
_space_group_crystal_system       triclinic
_cell_length_a                    19.730492
_cell_length_b                    17.025658
_cell_length_c                    15.407702
_cell_angle_alpha                 90.108521
_cell_angle_beta                  53.332168
_cell_angle_gamma                 89.752518
_cell_volume                      4151.48413324

loop_
_atom_site_label
_atom_site_type_symbol
_atom_type_description
_atom_site_fract_x
_atom_site_fract_y
_atom_site_fract_z
_atom_type_partial_charge
C1    C     C_R   0.338202 0.173065 0.054830 -0.199836
C2    C     C_R   0.646440 0.814109 0.078927 0.081487
C3    C     C_R   0.208351 0.648698 0.988138 0.075606
C4    C     C_R   0.146443 0.314110 0.078924 0.081465
C5    C     C_R   0.693355 0.863671 0.678900 0.145673
C6    C     C_R   0.618115 0.179519 0.690709 0.064562
C7    C     C_R   0.193354 0.363681 0.678889 0.145611
C8    C     C_R   0.118056 0.679544 0.690734 0.064495
C9    C     C_3   0.245207 0.215730 0.462519 0.973726
C10   C     C_3   0.174487 0.863306 0.514419 0.978389
C11   C     C_3   0.745207 0.715856 0.462397 0.973697
C12   C     C_R   0.376371 0.801781 0.995605 -0.267761
C13   C     C_3   0.674360 0.363126 0.514218 0.978501
C14   C     C_3   0.192630 0.265814 0.566365 -0.695002
C15   C     C_3   0.119836 0.809543 0.615606 -0.591283
C16   C     C_3   0.692632 0.765862 0.566312 -0.694815
C17   C     C_3   0.619757 0.309386 0.615440 -0.591326
C18   C     C_3   0.369672 0.219964 0.475821 -0.537998
C19   C     C_3   0.307533 0.782987 0.455004 -0.493091
C20   C     C_3   0.869558 0.719834 0.475936 -0.538032
C21   C     C_3   0.807516 0.283235 0.455261 -0.493297
C22   C     C_3   0.856854 0.823618 0.372241 -0.572779
C23   C     C_R   0.838201 0.673065 0.054830 -0.199841
C24   C     C_3   0.718065 0.240771 0.397454 -0.557881
C25   C     C_3   0.356702 0.323618 0.372211 -0.573055
C26   C     C_3   0.217639 0.741025 0.397620 -0.557883
C27   C     C_3   0.341418 0.234930 0.401685 0.180068
C28   C     C_3   0.252398 0.813998 0.420449 0.111976
C29   C     C_3   0.841430 0.734931 0.401690 0.179948
C30   C     C_3   0.752475 0.313940 0.420423 0.111980
C31   C     C_3   0.750629 0.819015 0.577860 0.155422
C32   C     C_3   0.663580 0.228110 0.593294 0.135391
C33   C     C_3   0.250624 0.319027 0.577845 0.155557
C34   C     C_R   0.876366 0.301783 0.995612 -0.267711
C35   C     C_3   0.163497 0.728152 0.593321 0.135444
C36   C     C_3   0.812348 0.765725 0.582593 -0.416555
C37   C     C_3   0.753020 0.240886 0.562688 -0.408206
C38   C     C_3   0.312413 0.265805 0.582522 -0.416586
C39   C     C_3   0.253051 0.740674 0.562465 -0.408221
C40   C     C_R   0.350094 0.829078 0.217543 -0.099962
C41   C     C_R   0.398537 0.199326 0.209128 -0.061067
C42   C     C_R   0.850111 0.329061 0.217536 -0.100242
C43   C     C_R   0.898538 0.699329 0.209133 -0.060914
C44   C     C_3   0.802019 0.873658 0.476504 0.418763
C45   C     C_R   0.632164 0.893879 0.106715 -0.244502
C46   C     C_3   0.669320 0.188044 0.497195 0.401013
C47   C     C_3   0.301935 0.373664 0.476478 0.418784
C48   C     C_3   0.168951 0.688245 0.497328 0.400954
C49   C     C_2   0.280997 0.685904 0.970953 -0.215833
C50   C     C_2   0.187700 0.258268 0.105586 -0.204333
C51   C     C_2   0.780991 0.185907 0.970961 -0.215811
C52   C     C_2   0.687693 0.758264 0.105590 -0.204343
C53   C     C_2   0.818079 0.246403 0.902976 -0.063715
C54   C     C_2   0.707700 0.685487 0.062916 -0.099227
C55   C     C_2   0.318085 0.746400 0.902968 -0.063706
C56   C     C_R   0.668371 0.082755 0.052920 -0.229228
C57   C     C_2   0.207695 0.185485 0.062931 -0.099211
C58   C     C_R   0.371798 0.884175 0.890636 0.561277
C59   C     C_R   0.327730 0.087852 0.956150 0.463709
C60   C     C_R   0.871794 0.384176 0.890640 0.561272
C61   C     C_R   0.827731 0.587853 0.956146 0.463703
C62   C     C_R   0.406744 0.107170 0.304062 -0.066171
C63   C     C_R   0.358284 0.921009 0.314729 -0.098378
C64   C     C_R   0.906754 0.607172 0.304059 -0.066357
C65   C     C_R   0.858288 0.421003 0.314729 -0.097858
C66   C     C_R   0.284195 0.146498 0.033316 0.041912
C67   C     C_R   0.132165 0.393879 0.106714 -0.244526
C68   C     C_R   0.351308 0.809074 0.930711 0.057587
C69   C     C_R   0.784196 0.646499 0.033312 0.041916
C70   C     C_R   0.851301 0.309077 0.930721 0.057569
C71   C     C_R   0.309710 0.859642 0.320933 0.048865
C72   C     C_R   0.388946 0.185102 0.304127 0.070481
C73   C     C_R   0.809755 0.359600 0.320926 0.048920
C74   C     C_R   0.888956 0.685107 0.304130 0.070467
C75   C     C_R   0.656675 0.181684 0.964301 0.483621
C76   C     C_R   0.618104 0.798698 0.017770 0.472504
C77   C     C_R   0.156677 0.681684 0.964299 0.483594
C78   C     C_R   0.168373 0.582754 0.052915 -0.229207
C79   C     C_R   0.118110 0.298699 0.017764 0.472540
C80   C     C_R   0.651825 0.830284 0.781082 -0.182325
C81   C     C_R   0.606336 0.196974 0.786498 -0.134033
C82   C     C_R   0.151830 0.330289 0.781070 -0.182337
C83   C     C_R   0.106327 0.696978 0.786500 -0.133982
C84   C     C_R   0.593595 0.103846 0.695713 -0.099251
C85   C     C_R   0.642477 0.923454 0.686034 -0.124021
C86   C     C_R   0.093559 0.603861 0.695731 -0.099578
C87   C     C_R   0.142472 0.423461 0.686031 -0.124054
C88   C     C_R   0.708347 0.148700 0.988143 0.075603
H1    H     H_    0.328307 0.221148 0.106756 0.138951
H2    H     H_    0.109440 0.838011 0.687744 0.178923
H3    H     H_    0.653899 0.727374 0.638437 0.201360
H4    H     H_    0.609223 0.337958 0.687603 0.178843
H5    H     H_    0.367373 0.157058 0.495688 0.175724
H6    H     H_    0.341798 0.830795 0.462851 0.176988
H7    H     H_    0.867091 0.656921 0.495860 0.175699
H8    H     H_    0.841526 0.331199 0.463284 0.176916
H9    H     H_    0.776809 0.722449 0.649177 0.179468
H10   H     H_    0.749192 0.276937 0.625913 0.185006
H11   H     H_    0.276924 0.222502 0.649079 0.179440
H12   H     H_    0.387002 0.747276 0.021698 0.130604
H13   H     H_    0.249433 0.776647 0.625606 0.184960
H14   H     H_    0.925137 0.837254 0.327579 0.196674
H15   H     H_    0.770326 0.205061 0.329431 0.197076
H16   H     H_    0.424987 0.337336 0.327380 0.196710
H17   H     H_    0.269701 0.705240 0.329463 0.196986
H18   H     H_    0.757612 0.907285 0.468636 0.107708
H19   H     H_    0.604135 0.181170 0.521046 0.084831
H20   H     H_    0.257486 0.407282 0.468684 0.107487
H21   H     H_    0.103689 0.681505 0.521390 0.084806
H22   H     H_    0.436380 0.238651 0.433670 0.199588
H23   H     H_    0.828304 0.721150 0.106755 0.138982
H24   H     H_    0.356865 0.741829 0.392187 0.206927
H25   H     H_    0.936299 0.738379 0.433846 0.199510
H26   H     H_    0.857045 0.242181 0.392521 0.206977
H27   H     H_    0.331244 0.780397 0.192156 0.104217
H28   H     H_    0.396912 0.255651 0.178316 0.089007
H29   H     H_    0.831266 0.280364 0.192161 0.104304
H30   H     H_    0.896896 0.755654 0.178334 0.089082
H31   H     H_    0.850978 0.800805 0.599009 0.187747
H32   H     H_    0.783632 0.184300 0.557824 0.199665
H33   H     H_    0.351007 0.300931 0.598953 0.187879
H34   H     H_    0.886996 0.247278 0.021706 0.130605
H35   H     H_    0.283557 0.683989 0.557517 0.199746
H36   H     H_    0.292406 0.672466 0.030013 0.135540
H37   H     H_    0.216128 0.282895 0.141717 0.143471
H38   H     H_    0.792400 0.172469 0.030022 0.135540
H39   H     H_    0.716108 0.782882 0.141744 0.143503
H40   H     H_    0.808936 0.257703 0.841332 0.204717
H41   H     H_    0.678717 0.658705 0.029394 0.237054
H42   H     H_    0.308940 0.757701 0.841326 0.204714
H43   H     H_    0.178697 0.158695 0.029433 0.237061
H44   H     H_    0.412044 0.076410 0.360955 0.082054
H45   H     H_    0.646498 0.802794 0.564959 0.187528
H46   H     H_    0.348665 0.955429 0.380126 0.141763
H47   H     H_    0.912075 0.576412 0.360934 0.081959
H48   H     H_    0.848638 0.455440 0.380135 0.141316
H49   H     H_    0.671572 0.780131 0.803676 0.127909
H50   H     H_    0.611010 0.254312 0.812017 0.128158
H51   H     H_    0.171584 0.280132 0.803648 0.127946
H52   H     H_    0.111025 0.754308 0.812014 0.128181
H53   H     H_    0.637286 0.921563 0.165786 0.131210
H54   H     H_    0.689307 0.047999 0.091509 0.136390
H55   H     H_    0.137286 0.421563 0.165786 0.131223
H56   H     H_    0.555857 0.300785 0.635704 0.188621
H57   H     H_    0.189312 0.547997 0.091503 0.136395
H58   H     H_    0.163535 0.214431 0.429841 0.342562
H59   H     H_    0.155357 0.929447 0.427394 0.340034
H60   H     H_    0.663624 0.714836 0.429564 0.342548
H61   H     H_    0.655233 0.428920 0.426926 0.339961
H62   H     H_    0.839574 0.839490 0.317812 0.183472
H63   H     H_    0.676785 0.259089 0.374094 0.181195
H64   H     H_    0.339256 0.339404 0.317922 0.183445
H65   H     H_    0.176229 0.759584 0.374546 0.181252
H66   H     H_    0.897874 0.900957 0.477759 0.335972
H67   H     H_    0.146507 0.302719 0.564951 0.187564
H68   H     H_    0.766360 0.117444 0.444282 0.343610
H69   H     H_    0.397890 0.400983 0.477513 0.336045
H70   H     H_    0.265950 0.617471 0.444017 0.343521
H71   H     H_    0.434980 0.942877 0.759322 0.288453
H72   H     H_    0.356584 0.047953 0.822939 0.317100
H73   H     H_    0.934979 0.442874 0.759324 0.288469
H74   H     H_    0.856587 0.547954 0.822935 0.317096
H75   H     H_    0.600549 0.272133 0.960896 0.303970
H76   H     H_    0.559801 0.735611 0.977856 0.312121
H77   H     H_    0.100550 0.772134 0.960897 0.303978
H78   H     H_    0.055880 0.801124 0.635969 0.188598
H79   H     H_    0.059819 0.235609 0.977835 0.312129
H80   H     H_    0.581371 0.074656 0.644089 0.130804
H81   H     H_    0.651788 0.958312 0.621513 0.122129
H82   H     H_    0.081298 0.574677 0.644141 0.131154
H83   H     H_    0.151773 0.458334 0.621526 0.122030
H84   H     H_    0.238623 0.122115 0.542534 0.308098
H85   H     H_    0.227646 0.913697 0.574987 0.293066
H86   H     H_    0.738474 0.622092 0.542269 0.308010
H87   H     H_    0.727165 0.413942 0.574971 0.293020
H88   H     H_    0.153883 0.227375 0.638542 0.201404
N1    N     N_R   0.408680 0.130160 0.995800 -0.069058
N2    N     N_R   0.403730 0.078230 0.935950 -0.114263
N3    N     N_R   0.903730 0.421770 0.935950 -0.112711
N4    N     N_R   0.903730 0.578230 0.935950 -0.114252
N5    N     N_R   0.426630 0.075970 0.212960 -0.041067
N6    N     N_R   0.426630 0.924030 0.212960 -0.048189
N7    N     N_R   0.926630 0.575970 0.212960 -0.041018
N8    N     N_R   0.926630 0.424030 0.212960 -0.048211
N9    N     N_R   0.591320 0.134600 0.004200 -0.109670
N10   N     N_R   0.591320 0.865400 0.004200 -0.099741
N11   N     N_R   0.091320 0.634600 0.004200 -0.109680
N12   N     N_R   0.408680 0.869840 0.995800 -0.064334
N13   N     N_R   0.091320 0.365400 0.004200 -0.099747
N14   N     N_R   0.578320 0.867660 0.846880 -0.048268
N15   N     N_R   0.578320 0.132340 0.846880 -0.044652
N16   N     N_R   0.078320 0.367660 0.846880 -0.048266
N17   N     N_R   0.078320 0.632340 0.846880 -0.044647
N18   N     N_R   0.573370 0.074390 0.787040 -0.050589
N19   N     N_R   0.573370 0.925610 0.787040 -0.057341
N20   N     N_R   0.073370 0.574390 0.787040 -0.050588
N21   N     N_R   0.073370 0.425610 0.787040 -0.057323
N22   N     N_R   0.596270 0.927870 0.064040 -0.051199
N23   N     N_R   0.908680 0.630160 0.995800 -0.069058
N24   N     N_R   0.596270 0.072130 0.064040 -0.059537
N25   N     N_R   0.096270 0.427870 0.064040 -0.051204
N26   N     N_R   0.096270 0.572130 0.064040 -0.059535
N27   N     N_R   0.908680 0.369840 0.995800 -0.064328
N28   N     N_R   0.421680 0.867580 0.153120 -0.042029
N29   N     N_R   0.421680 0.132420 0.153120 -0.046804
N30   N     N_R   0.921680 0.367580 0.153120 -0.042028
N31   N     N_R   0.921680 0.632420 0.153120 -0.046817
N32   N     N_R   0.403730 0.921770 0.935950 -0.112713
Ni1   Ni    Ni4+2 0.500000 0.131190 0.000000 0.197296
Ni2   Ni    Ni4+2 0.500000 0.868810 0.000000 0.213052
Ni3   Ni    Ni4+2 0.000000 0.631190 0.000000 0.197305
Ni4   Ni    Ni4+2 1.000000 0.368810 0.000000 0.213057
Ni5   Ni    Ni4+2 0.488650 0.000000 0.862740 0.193200
Ni6   Ni    Ni4+2 0.988650 0.500000 0.862740 0.193208
Ni7   Ni    Ni4+2 0.511350 0.000000 0.137260 0.210540
Ni8   Ni    Ni4+2 0.011350 0.500000 0.137260 0.210561
O1    O     O_3   0.221343 0.235098 0.395217 -0.783763
O2    O     O_3   0.303803 0.056847 0.896154 -0.738286
O3    O     O_3   0.888774 0.403891 0.793083 -0.756453
O4    O     O_3   0.803806 0.556846 0.896151 -0.738321
O5    O     O_3   0.658823 0.258139 0.934422 -0.774999
O6    O     O_3   0.593114 0.726633 0.005991 -0.787048
O7    O     O_3   0.158823 0.758140 0.934427 -0.774980
O8    O     O_3   0.093136 0.226632 0.005964 -0.787034
O9    O     O_3   0.229409 0.134873 0.487526 -0.739770
O10   O     O_3   0.200089 0.930663 0.541352 -0.756418
O11   O     O_3   0.729296 0.634994 0.487269 -0.739732
O12   O     O_3   0.124026 0.887881 0.482681 -0.760214
O13   O     O_3   0.699676 0.430677 0.541173 -0.756345
O14   O     O_3   0.721445 0.735428 0.395046 -0.783890
O15   O     O_3   0.623971 0.387362 0.482244 -0.760384
O16   O     O_3   0.850285 0.929001 0.485728 -0.736070
O17   O     O_3   0.706705 0.112453 0.471204 -0.768051
O18   O     O_3   0.350249 0.429016 0.485600 -0.736133
O19   O     O_3   0.206231 0.612597 0.471152 -0.768186
O20   O     O_3   0.388778 0.903891 0.793078 -0.756452

loop_
_geom_bond_atom_site_label_1
_geom_bond_atom_site_label_2
_ccdc_geom_bond_type
C6    C32   S    
C22   H62   S    
N32   Ni5   S    
H87   O13   S    
C40   C71   A    
C14   H67   S    
C8    C83   A    
N7    N31   A    
H71   O20   S    
C23   C69   A    
C35   C39   S    
C61   O4    S    
C57   C66   S    
H86   O11   S    
C67   H55   S    
N18   Ni5   S    
C55   C68   S    
C3    C49   S    
C65   C73   A    
C79   O8    S    
C61   C69   A    
C19   H24   S    
C16   C31   S    
C12   C68   A    
N11   N26   A    
C9    C27   S    
C22   C44   S    
C17   H56   S    
N6    N28   A    
C38   H11   S    
C22   C29   S    
C58   O20   S    
H85   O10   S    
C59   C66   A    
C20   H25   S    
C48   O19   S    
H69   O18   S    
C56   C88   A    
C40   H27   S    
C53   C70   S    
C9    O1    S    
C80   H49   S    
C12   N12   A    
C23   N23   A    
N24   Ni7   S    
C39   H35   S    
C45   H53   S    
H84   O9    S    
N1    Ni1   S    
N31   Ni3   S    
C36   H31   S    
N16   Ni4   S    
C81   N15   A    
C14   H88   S    
C78   H57   S    
C86   N20   A    
H58   O1    S    
N12   Ni2   S    
C77   O7    S    
C7    C87   A    
C40   N28   A    
C84   N18   A    
C11   O11   S    
C15   H78   S    
C36   H9    S    
C60   C70   A    
C54   C69   S    
C34   C70   A    
C8    C86   A    
C26   C48   S    
C47   O18   S    
C56   H54   S    
N17   N20   A    
C43   C74   A    
C48   H21   S    
C64   H47   S    
C34   H34   S    
C63   N6    A    
C16   H3    S    
C10   O12   S    
C7    C33   S    
C75   N9    A    
C17   H4    S    
C1    N1    A    
C14   C33   S    
C16   H45   S    
C26   H17   S    
C15   C35   S    
C37   H10   S    
C52   H39   S    
C52   C54   D    
C39   H13   S    
C20   C29   S    
H75   O5    S    
C2    C45   A    
C81   H50   S    
H74   O4    S    
C6    C84   A    
C31   C44   S    
N8    N30   A    
C43   N31   A    
N21   Ni6   S    
C38   H33   S    
C63   H46   S    
C62   H44   S    
C13   C30   S    
C4    C79   A    
C60   O3    S    
C30   C73   S    
C85   N19   A    
C76   N10   A    
C6    C81   A    
C29   C74   S    
N8    Ni8   S    
N13   N25   A    
C45   N22   A    
N16   N21   A    
C49   H36   S    
C13   O13   S    
C59   O2    S    
C85   H81   S    
C12   H12   S    
C4    C50   S    
C51   C53   D    
C8    C35   S    
H61   O15   S    
C83   N17   A    
N5    N29   A    
C9    C14   S    
C46   O17   S    
N25   Ni8   S    
C82   H51   S    
C67   N25   A    
C53   H40   S    
H76   O6    S    
H70   O19   S    
C13   O15   S    
N20   Ni6   S    
C11   C16   S    
C41   N29   A    
N29   Ni1   S    
C34   N27   A    
C18   H5    S    
C55   H42   S    
C87   H83   S    
C46   H19   S    
C1    C66   A    
C62   C72   A    
N5    Ni7   S    
C50   H37   S    
C32   C37   S    
C5    C80   A    
C19   C28   S    
C11   C29   S    
C35   C48   S    
C63   C71   A    
C19   H6    S    
C19   C39   S    
N14   N19   A    
N15   Ni1   S    
C41   C72   A    
C58   C68   A    
C42   H29   S    
C20   H7    S    
N11   Ni3   S    
N3    N27   A    
C11   O14   S    
H73   O3    S    
N6    Ni7   S    
C77   N11   A    
N9    Ni1   S    
N27   Ni4   S    
C28   C71   S    
H60   O14   S    
C87   N21   A    
C41   H28   S    
C3    C77   A    
C60   N3    A    
C2    C76   A    
H77   O7    S    
C80   N14   A    
C10   C28   S    
N7    Ni8   S    
C47   H20   S    
C54   H41   S    
C25   C47   S    
N12   N32   A    
C42   C73   A    
C1    H1    S    
N2    Ni5   S    
C24   H63   S    
C86   H82   S    
C51   H38   S    
C32   C46   S    
C57   H43   S    
C59   N2    A    
C18   C27   S    
C78   N26   A    
N22   Ni7   S    
C21   H26   S    
N13   Ni4   S    
C22   H14   S    
C51   C88   S    
C5    C31   S    
C4    C67   A    
H59   O12   S    
C25   H16   S    
C21   H8    S    
C44   H18   S    
C25   C27   S    
C23   H23   S    
C21   C30   S    
C26   C28   S    
C33   C38   S    
H68   O17   S    
C2    C52   S    
C13   C17   S    
C10   C15   S    
C24   H15   S    
C76   O6    S    
N10   Ni2   S    
C18   C38   S    
N15   N18   A    
C58   N32   A    
C25   H64   S    
N4    N23   A    
C49   C55   D    
C62   N5    A    
C50   C57   D    
C37   H32   S    
H66   O16   S    
C33   C47   S    
N3    Ni6   S    
N4    Ni6   S    
C42   N30   A    
N23   Ni3   S    
H72   O2    S    
N9    N24   A    
N14   Ni2   S    
C44   O16   S    
C24   C30   S    
H79   O8    S    
N19   Ni5   S    
C65   H48   S    
N17   Ni3   S    
C27   C72   S    
C43   H30   S    
C83   H52   S    
C20   C36   S    
N30   Ni4   S    
C75   C88   A    
C7    C82   A    
C21   C37   S    
C84   H80   S    
C75   O5    S    
C61   N4    A    
C18   H22   S    
N1    N2    A    
C79   N13   A    
N28   Ni2   S    
C10   O10   S    
C17   C32   S    
C64   C74   A    
C31   C36   S    
N10   N22   A    
C26   H65   S    
C9    O9    S    
N26   Ni8   S    
C3    C78   A    
C5    C85   A    
C82   N16   A    
C56   N24   A    
C24   C46   S    
C15   H2    S    
C65   N8    A    
C64   N7    A    
