data_mof_unit_31314.cif
_audit_creation_date              2012-12-10T18:48:41-0500
_audit_creation_method            fapswitch 2.2
_symmetry_space_group_name_H-M    P1
_symmetry_Int_Tables_number       1
_space_group_crystal_system       triclinic
_cell_length_a                    15.551394
_cell_length_b                    14.761365
_cell_length_c                    9.983781
_cell_angle_alpha                 89.998603
_cell_angle_beta                  89.9997
_cell_angle_gamma                 89.999987
_cell_volume                      2291.87479977

loop_
_atom_site_label
_atom_site_type_symbol
_atom_type_description
_atom_site_fract_x
_atom_site_fract_y
_atom_site_fract_z
_atom_type_partial_charge
C1    C     C_R   0.120240 0.380583 0.500133 0.897665
C2    C     C_R   0.995726 0.420424 0.928826 -0.039450
C3    C     C_R   0.004274 0.420425 0.071182 -0.039460
C4    C     C_R   0.004272 0.579575 0.928818 -0.039458
C5    C     C_R   0.495724 0.079575 0.071174 -0.039453
C6    C     C_R   0.495726 0.920425 0.928826 -0.039453
C7    C     C_R   0.504274 0.920425 0.071182 -0.039460
C8    C     C_R   0.504272 0.079575 0.928817 -0.039459
C9    C     C_R   0.781538 0.282413 0.377060 -0.137379
C10   C     C_R   0.219174 0.716957 0.621037 -0.184023
C11   C     C_R   0.218427 0.717631 0.377059 -0.137397
C12   C     C_R   0.879760 0.619418 0.500132 0.897664
C13   C     C_R   0.780866 0.282993 0.621039 -0.183994
C14   C     C_R   0.218426 0.282369 0.622941 -0.137392
C15   C     C_R   0.780859 0.716998 0.378961 -0.183996
C16   C     C_R   0.781545 0.717596 0.622940 -0.137379
C17   C     C_R   0.219176 0.283044 0.378961 -0.184026
C18   C     C_R   0.281544 0.782407 0.377060 -0.137378
C19   C     C_R   0.719180 0.216950 0.621037 -0.184028
C20   C     C_R   0.718421 0.217638 0.377059 -0.137397
C21   C     C_R   0.280859 0.783000 0.621039 -0.183999
C22   C     C_R   0.718429 0.782372 0.622941 -0.137392
C23   C     C_R   0.879760 0.380582 0.499868 0.897661
C24   C     C_R   0.280861 0.217001 0.378960 -0.183991
C25   C     C_R   0.281543 0.217593 0.622940 -0.137379
C26   C     C_R   0.719173 0.783042 0.378962 -0.184023
C27   C     C_R   0.187062 0.685256 0.499262 -0.031919
C28   C     C_R   0.812939 0.314742 0.499264 -0.031904
C29   C     C_R   0.812939 0.685258 0.500736 -0.031908
C30   C     C_R   0.187063 0.314744 0.500738 -0.031919
C31   C     C_R   0.687062 0.185256 0.499261 -0.031920
C32   C     C_R   0.312939 0.814742 0.499264 -0.031906
C33   C     C_R   0.312939 0.185258 0.500736 -0.031906
C34   C     C_R   0.120240 0.619417 0.499867 0.897663
C35   C     C_R   0.687063 0.814744 0.500738 -0.031919
C36   C     C_2   0.975210 0.666927 0.136944 0.965841
C37   C     C_2   0.975214 0.333072 0.863057 0.965843
C38   C     C_2   0.024784 0.333076 0.136965 0.965957
C39   C     C_2   0.024781 0.666925 0.863035 0.965967
C40   C     C_2   0.475209 0.166927 0.136942 0.965822
C41   C     C_2   0.475214 0.833073 0.863056 0.965853
C42   C     C_2   0.524783 0.833075 0.136964 0.965958
C43   C     C_2   0.524781 0.166924 0.863034 0.965981
C44   C     C_R   0.620240 0.880583 0.500133 0.897664
C45   C     C_R   0.379760 0.119418 0.500132 0.897665
C46   C     C_R   0.379760 0.880582 0.499868 0.897660
C47   C     C_R   0.620240 0.119417 0.499866 0.897664
C48   C     C_R   0.995724 0.579575 0.071174 -0.039455
H1    H     H_    0.805306 0.306932 0.281750 0.204100
H2    H     H_    0.696911 0.190990 0.716038 0.198157
H3    H     H_    0.694619 0.193162 0.281748 0.204132
H4    H     H_    0.303159 0.808921 0.716042 0.198138
H5    H     H_    0.694633 0.806855 0.718251 0.204130
H6    H     H_    0.303162 0.191080 0.283956 0.198130
H7    H     H_    0.305314 0.193080 0.718251 0.204111
H8    H     H_    0.696899 0.808994 0.283962 0.198154
H9    H     H_    0.900712 0.778894 0.135223 0.345178
H10   H     H_    0.900720 0.221104 0.864782 0.345176
H11   H     H_    0.099307 0.221127 0.135301 0.345180
H12   H     H_    0.196900 0.691003 0.716038 0.198155
H13   H     H_    0.099302 0.778873 0.864695 0.345181
H14   H     H_    0.400713 0.278896 0.135214 0.345178
H15   H     H_    0.400715 0.721107 0.864774 0.345178
H16   H     H_    0.599303 0.721126 0.135301 0.345180
H17   H     H_    0.599307 0.278870 0.864687 0.345182
H18   H     H_    0.194630 0.693150 0.281748 0.204127
H19   H     H_    0.803170 0.308909 0.716042 0.198137
H20   H     H_    0.194628 0.306850 0.718252 0.204133
H21   H     H_    0.803157 0.691075 0.283959 0.198134
H22   H     H_    0.805318 0.693084 0.718250 0.204112
H23   H     H_    0.196903 0.308999 0.283960 0.198152
H24   H     H_    0.305316 0.806920 0.281750 0.204108
N1    N     N_R   0.000000 0.500000 0.857200 -0.169412
N2    N     N_R   1.000000 0.500000 0.142800 -0.169411
N3    N     N_R   0.500000 0.000000 0.857200 -0.169415
N4    N     N_R   0.500000 0.000000 0.142800 -0.169407
O1    O     O_R   0.091610 0.408380 0.614620 -0.586837
O2    O     O_R   0.408390 0.091620 0.385380 -0.630065
O3    O     O_R   0.408390 0.091620 0.614620 -0.586859
O4    O     O_R   0.591610 0.908380 0.385380 -0.630095
O5    O     O_R   0.408390 0.908380 0.385380 -0.586856
O6    O     O_R   0.591610 0.091620 0.614620 -0.630101
O7    O     O_R   0.591610 0.091620 0.385380 -0.586832
O8    O     O_R   0.408390 0.908380 0.614620 -0.630073
O9    O     O_2   0.021581 0.698127 0.223705 -0.595930
O10   O     O_R   0.906149 0.718084 0.088740 -0.827626
O11   O     O_2   0.021588 0.301871 0.776300 -0.595935
O12   O     O_R   0.908390 0.591620 0.385380 -0.630070
O13   O     O_R   0.906154 0.281915 0.911262 -0.827628
O14   O     O_2   0.978387 0.301861 0.223686 -0.595890
O15   O     O_R   0.093870 0.281936 0.088809 -0.827654
O16   O     O_2   0.978383 0.698140 0.776317 -0.595902
O17   O     O_R   0.093866 0.718064 0.911186 -0.827658
O18   O     O_2   0.521577 0.198125 0.223710 -0.595935
O19   O     O_R   0.406151 0.218086 0.088730 -0.827622
O20   O     O_2   0.521589 0.801871 0.776302 -0.595933
O21   O     O_R   0.406150 0.781918 0.911255 -0.827630
O22   O     O_2   0.478386 0.801861 0.223685 -0.595902
O23   O     O_R   0.908390 0.591620 0.614620 -0.586857
O24   O     O_R   0.593867 0.781935 0.088810 -0.827654
O25   O     O_2   0.478380 0.198141 0.776321 -0.595898
O26   O     O_R   0.593870 0.218061 0.911179 -0.827661
O27   O     O_R   0.091610 0.408380 0.385380 -0.630096
O28   O     O_R   0.908390 0.408380 0.385380 -0.586856
O29   O     O_R   0.091610 0.591620 0.614620 -0.630098
O30   O     O_R   0.091610 0.591620 0.385380 -0.586835
O31   O     O_R   0.908390 0.408380 0.614620 -0.630073
O32   O     O_R   0.591610 0.908380 0.614620 -0.586838
Zn1   Zn    Zn3+2 0.000000 0.500000 0.653120 1.013898
Zn2   Zn    Zn3+2 1.000000 0.500000 0.346880 1.013899
Zn3   Zn    Zn3+2 0.500000 0.000000 0.653120 1.013896
Zn4   Zn    Zn3+2 0.500000 0.000000 0.346880 1.013900

loop_
_geom_bond_atom_site_label_1
_geom_bond_atom_site_label_2
_ccdc_geom_bond_type
C10   C27   A    
C11   C18   A    
C12   C29   S    
C1    O1    A    
C2    C37   S    
C8    C43   S    
C19   C31   A    
C6    N3    A    
C22   C35   A    
O27   Zn2   S    
C20   H3    S    
C42   O22   D    
O30   Zn2   S    
H13   O17   S    
C47   O6    A    
C41   O20   D    
C24   H6    S    
O23   Zn1   S    
C33   C45   S    
H9    O10   S    
C7    C42   S    
C3    N2    A    
C39   O17   S    
C12   O23   A    
C3    C38   S    
C6    C41   S    
O5    Zn4   S    
C13   C28   A    
C45   O2    A    
C47   O7    A    
C1    O27   A    
C11   H18   S    
O12   Zn2   S    
C10   C21   A    
C31   C47   S    
H14   O19   S    
C17   C30   A    
O31   Zn1   S    
H17   O26   S    
C14   C30   A    
C15   C29   A    
C22   H5    S    
C44   O32   A    
C27   C34   S    
C18   H24   S    
C15   H21   S    
C21   C32   A    
O8    Zn3   S    
C13   C19   A    
C17   C24   A    
C48   N2    A    
C44   O4    A    
C16   H22   S    
C12   O12   A    
C15   C26   A    
C36   O10   S    
C16   C29   A    
C38   O15   S    
C8    N3    A    
C34   O30   A    
C10   H12   S    
C43   O25   D    
C42   O24   S    
C46   O5    A    
C9    C20   A    
C23   O28   A    
C4    C39   S    
C11   C27   A    
N4    Zn4   S    
C23   O31   A    
O4    Zn4   S    
C9    H1    S    
C45   O3    A    
H11   O15   S    
C23   C28   S    
O1    Zn1   S    
C35   C44   S    
C4    N1    A    
C7    N4    A    
C2    N1    A    
C46   O8    A    
C17   H23   S    
C41   O21   S    
C18   C32   A    
C40   O19   S    
C39   O16   D    
C4    C48   A    
C13   H19   S    
O29   Zn1   S    
C16   C22   A    
C34   O29   A    
C32   C46   S    
C37   O11   D    
C25   H7    S    
C40   O18   D    
C26   H8    S    
N2    Zn2   S    
C5    C8    A    
N1    Zn1   S    
C6    C7    A    
O3    Zn3   S    
C36   O9    D    
C38   O14   D    
N3    Zn3   S    
C24   C33   A    
O32   Zn3   S    
C37   O13   S    
O6    Zn3   S    
C5    N4    A    
C2    C3    A    
C43   O26   S    
H15   O21   S    
O28   Zn2   S    
C19   H2    S    
C1    C30   S    
C36   C48   S    
C14   C25   A    
H10   O13   S    
C26   C35   A    
H16   O24   S    
C5    C40   S    
C14   H20   S    
O7    Zn4   S    
O2    Zn4   S    
C21   H4    S    
C9    C28   A    
C25   C33   A    
C20   C31   A    
