data_mof_unit_24747.cif
_audit_creation_date              2013-03-05T15:45:59-0500
_audit_creation_method            fapswitch 2.2
_symmetry_space_group_name_H-M    P1
_symmetry_Int_Tables_number       1
_space_group_crystal_system       triclinic
_cell_length_a                    19.065341
_cell_length_b                    11.128903
_cell_length_c                    18.88141
_cell_angle_alpha                 90.257469
_cell_angle_beta                  89.638411
_cell_angle_gamma                 89.629532
_cell_volume                      4005.98358181

loop_
_atom_site_label
_atom_site_type_symbol
_atom_site_description
_atom_site_fract_x
_atom_site_fract_y
_atom_site_fract_z
_atom_type_partial_charge
O1    O     O_R   0.787510 0.042610 0.670410 -0.450262
O2    O     O_R   0.212490 0.042610 0.329590 -0.448324
O3    O     O_R   0.287510 0.542610 0.670410 -0.450372
O4    O     O_R   0.712490 0.542610 0.329590 -0.448313
O5    O     O_R   0.765670 0.292090 0.675090 -0.474384
O6    O     O_R   0.234330 0.292090 0.324910 -0.500171
O7    O     O_R   0.265670 0.792090 0.675090 -0.474368
O8    O     O_R   0.734330 0.792090 0.324910 -0.500137
C1    C     C_R   0.729386 0.374043 0.644543 0.561564
C2    C     C_R   0.269046 0.378026 0.353355 0.554381
C3    C     C_R   0.229386 0.874034 0.644540 0.561621
C4    C     C_R   0.769039 0.878078 0.353335 0.554347
O9    O     O_R   0.670220 0.409020 0.668560 -0.487502
O10   O     O_R   0.329780 0.409020 0.331440 -0.497578
O11   O     O_R   0.170220 0.909020 0.668560 -0.487322
O12   O     O_R   0.829780 0.909020 0.331440 -0.497633
O13   O     O_R   0.556580 0.251590 0.674980 -0.484882
O14   O     O_R   0.443420 0.251590 0.325020 -0.477060
O15   O     O_R   0.056580 0.751590 0.674980 -0.484905
O16   O     O_R   0.943420 0.751590 0.325020 -0.477124
C5    C     C_R   0.529251 0.153990 0.649035 0.562184
C6    C     C_R   0.460559 0.152878 0.357621 0.590683
C7    C     C_R   0.029263 0.653981 0.649023 0.562165
C8    C     C_R   0.960633 0.652887 0.357589 0.590705
O17   O     O_R   0.545890 0.049670 0.670030 -0.446858
O18   O     O_R   0.454110 0.049670 0.329970 -0.468442
O19   O     O_R   0.045890 0.549670 0.670030 -0.446927
O20   O     O_R   0.954110 0.549670 0.329970 -0.468491
O21   O     O_R   0.681340 0.957860 0.676500 -0.436262
O22   O     O_R   0.318660 0.957860 0.323500 -0.464948
O23   O     O_R   0.181340 0.457860 0.676500 -0.436188
O24   O     O_R   0.818660 0.457860 0.323500 -0.464910
C9    C     C_R   0.742005 0.974156 0.645942 0.583695
C10   C     C_R   0.257257 0.971857 0.352510 0.599695
C11   C     C_R   0.242016 0.474116 0.645959 0.583749
C12   C     C_R   0.757259 0.471838 0.352505 0.599709
O25   O     O_R   0.787380 0.044010 0.830940 -0.484884
O26   O     O_R   0.212620 0.044010 0.169060 -0.507406
O27   O     O_R   0.287380 0.544010 0.830940 -0.484897
O28   O     O_R   0.712620 0.544010 0.169060 -0.507425
O29   O     O_R   0.765540 0.293390 0.823910 -0.516715
O30   O     O_R   0.234460 0.293390 0.176090 -0.514783
O31   O     O_R   0.265540 0.793390 0.823910 -0.516711
O32   O     O_R   0.734460 0.793390 0.176090 -0.514811
C13   C     C_R   0.728130 0.374932 0.853707 0.554254
C14   C     C_R   0.270107 0.377159 0.147695 0.551493
C15   C     C_R   0.228129 0.874931 0.853707 0.554274
C16   C     C_R   0.770107 0.877159 0.147695 0.551461
O33   O     O_R   0.670090 0.410410 0.829090 -0.473218
O34   O     O_R   0.329910 0.410410 0.170910 -0.453821
O35   O     O_R   0.170090 0.910410 0.829090 -0.473198
O36   O     O_R   0.829910 0.910410 0.170910 -0.453833
O37   O     O_R   0.556450 0.252890 0.823790 -0.456801
O38   O     O_R   0.443550 0.252890 0.176210 -0.441744
O39   O     O_R   0.056450 0.752890 0.823790 -0.456809
O40   O     O_R   0.943550 0.752890 0.176210 -0.441759
C17   C     C_R   0.534437 0.156692 0.854660 0.565266
C18   C     C_R   0.468613 0.157619 0.147248 0.567774
C19   C     C_R   0.034437 0.656692 0.854660 0.565262
C20   C     C_R   0.968613 0.657619 0.147248 0.567746
O41   O     O_R   0.545750 0.051070 0.830560 -0.508899
O42   O     O_R   0.454250 0.051070 0.169440 -0.489492
O43   O     O_R   0.045750 0.551070 0.830560 -0.508904
O44   O     O_R   0.954250 0.551070 0.169440 -0.489495
O45   O     O_R   0.681210 0.959150 0.825320 -0.469259
O46   O     O_R   0.318790 0.959150 0.174680 -0.451986
O47   O     O_R   0.181210 0.459150 0.825320 -0.469239
O48   O     O_R   0.818790 0.459150 0.174680 -0.451996
C21   C     C_R   0.739875 0.976637 0.856080 0.581867
C22   C     C_R   0.259234 0.970812 0.145670 0.573664
C23   C     C_R   0.239875 0.476637 0.856080 0.581872
C24   C     C_R   0.759234 0.470812 0.145670 0.573639
Cr1   Cr    Cr6+3 0.771950 0.169480 0.750100 1.146446
Cr2   Cr    Cr6+3 0.228050 0.169480 0.249900 1.123238
Cr3   Cr    Cr6+3 0.271950 0.669480 0.750100 1.146435
Cr4   Cr    Cr6+3 0.728050 0.669480 0.249900 1.123237
Cr5   Cr    Cr6+3 0.614930 0.323340 0.749170 1.173518
Cr6   Cr    Cr6+3 0.385070 0.323340 0.250830 1.168677
Cr7   Cr    Cr6+3 0.114930 0.823340 0.749170 1.173614
Cr8   Cr    Cr6+3 0.885070 0.823340 0.250830 1.168646
Cr9   Cr    Cr6+3 0.616590 0.010620 0.750610 1.173325
Cr10  Cr    Cr6+3 0.383410 0.010620 0.249390 1.162825
Cr11  Cr    Cr6+3 0.116590 0.510620 0.750610 1.173364
Cr12  Cr    Cr6+3 0.883410 0.510620 0.249390 1.162863
O49   O     O_3   0.667820 0.167810 0.749960 -0.341253
O50   O     O_3   0.332180 0.167810 0.250040 -0.333353
O51   O     O_3   0.167820 0.667810 0.749960 -0.341281
O52   O     O_3   0.832180 0.667810 0.250040 -0.333279
C25   C     C_R   0.475765 0.153643 0.434208 0.009537
C26   C     C_R   0.488408 0.157702 0.583516 -0.008385
C27   C     C_R   0.975882 0.653646 0.434161 0.009742
C28   C     C_R   0.988466 0.657652 0.583474 -0.008408
C29   C     C_R   0.477380 0.262249 0.471451 -0.067741
C30   C     C_R   0.488924 0.261261 0.543852 -0.026324
C31   C     C_R   0.977431 0.762243 0.471420 -0.067705
C32   C     C_R   0.988973 0.761212 0.543818 -0.026399
C33   C     C_R   0.469463 0.050782 0.548536 0.163397
C34   C     C_R   0.475035 0.045581 0.474295 0.160625
C35   C     C_R   0.969596 0.550717 0.548466 0.163328
C36   C     C_R   0.975207 0.545560 0.474228 0.160808
C37   C     C_3   0.532067 0.357476 0.464145 0.115114
C38   C     C_3   0.542162 0.356400 0.544837 0.095276
C39   C     C_3   0.032084 0.857551 0.464159 0.115072
C40   C     C_3   0.042166 0.856411 0.544857 0.095474
H1    H     H_    0.010093 0.940725 0.441389 0.231239
H2    H     H_    0.095044 0.826306 0.561480 0.142501
H3    H     H_    0.510080 0.440639 0.441359 0.231266
H4    H     H_    0.595033 0.326273 0.561464 0.142484
C41   C     C_R   0.702333 0.869533 0.538472 0.153844
C42   C     C_R   0.284666 0.844394 0.454127 0.189794
C43   C     C_R   0.202444 0.369183 0.538555 0.153781
C44   C     C_R   0.784722 0.344440 0.454148 0.189627
C45   C     C_R   0.699544 0.863641 0.464543 -0.100553
C46   C     C_R   0.285629 0.832027 0.527486 -0.092368
C47   C     C_R   0.199663 0.363180 0.464627 -0.100831
C48   C     C_R   0.785679 0.332122 0.527509 -0.092532
H5    H     H_    0.661357 0.809927 0.437921 0.229358
H6    H     H_    0.314804 0.760107 0.549953 0.221704
H7    H     H_    0.161573 0.309194 0.438049 0.229259
H8    H     H_    0.814901 0.260282 0.549990 0.221826
C49   C     C_R   0.749583 0.921477 0.423865 -0.036819
C50   C     C_R   0.245217 0.907308 0.571067 -0.057257
C51   C     C_R   0.249587 0.421274 0.423914 -0.036769
C52   C     C_R   0.745207 0.407334 0.571072 -0.057330
C53   C     C_R   0.797150 0.996154 0.456288 -0.078924
C54   C     C_R   0.202675 0.994133 0.540081 -0.134371
C55   C     C_R   0.297083 0.496092 0.456315 -0.078965
C56   C     C_R   0.702620 0.494080 0.540067 -0.134219
H9    H     H_    0.835634 0.039239 0.423700 0.252321
H10   H     H_    0.169827 0.048213 0.573455 0.257319
H11   H     H_    0.335510 0.539265 0.423707 0.252372
H12   H     H_    0.669702 0.548098 0.573418 0.257210
C57   C     C_R   0.805793 0.000272 0.528715 0.115756
C58   C     C_R   0.193986 0.000407 0.467350 0.142218
C59   C     C_R   0.305781 0.500172 0.528733 0.115641
C60   C     C_R   0.693993 0.500360 0.467330 0.142451
C61   C     C_R   0.754083 0.940109 0.571795 -0.016463
C62   C     C_R   0.241737 0.932212 0.423981 0.052648
C63   C     C_R   0.254127 0.439945 0.571839 -0.016329
C64   C     C_R   0.741761 0.432188 0.423981 0.052538
C65   C     C_R   0.527551 0.060707 0.970391 -0.166109
C66   C     C_R   0.521296 0.064235 0.042763 -0.160279
C67   C     C_R   0.027552 0.560707 0.970391 -0.166114
C68   C     C_R   0.021297 0.564235 0.042763 -0.160275
H13   H     H_    0.544257 0.976197 0.946878 0.201162
H14   H     H_    0.529396 0.981604 0.071835 0.197509
H15   H     H_    0.044257 0.476198 0.946879 0.201157
H16   H     H_    0.029396 0.481604 0.071835 0.197511
C69   C     C_R   0.500562 0.169963 0.076816 -0.021121
C70   C     C_R   0.513742 0.163167 0.929325 -0.022467
C71   C     C_R   0.000562 0.669963 0.076816 -0.021112
C72   C     C_R   0.013743 0.663168 0.929325 -0.022472
C73   C     C_R   0.493651 0.278101 0.037382 0.173805
C74   C     C_R   0.495687 0.272785 0.962698 0.170010
C75   C     C_R   0.993652 0.778101 0.037382 0.173808
C76   C     C_R   0.995687 0.772785 0.962698 0.170006
C77   C     C_R   0.780030 0.029660 0.974592 -0.108841
C78   C     C_R   0.188840 0.956535 0.039646 -0.147369
C79   C     C_R   0.280028 0.529662 0.974592 -0.108845
C80   C     C_R   0.688840 0.456539 0.039646 -0.147364
H17   H     H_    0.806351 0.107131 0.952809 0.169585
H18   H     H_    0.144591 0.995686 0.067744 0.212445
H19   H     H_    0.306348 0.607134 0.952809 0.169583
H20   H     H_    0.644591 0.495691 0.067743 0.212443
C81   C     C_R   0.781214 0.014590 0.047086 -0.089996
C82   C     C_R   0.184480 0.948193 0.967519 -0.110444
C83   C     C_R   0.281213 0.514590 0.047086 -0.089993
C84   C     C_R   0.684481 0.448197 0.967518 -0.110439
H21   H     H_    0.810114 0.077507 0.079401 0.207878
H22   H     H_    0.135824 0.975414 0.943368 0.230674
H23   H     H_    0.310111 0.577509 0.079401 0.207879
H24   H     H_    0.635825 0.475421 0.943367 0.230678
C85   C     C_R   0.749841 0.914202 0.076988 -0.010140
C86   C     C_R   0.240818 0.903383 0.927471 -0.001564
C87   C     C_R   0.249841 0.414201 0.076988 -0.010143
C88   C     C_R   0.740819 0.403384 0.927470 -0.001565
C89   C     C_R   0.710997 0.835066 0.034421 -0.109912
C90   C     C_R   0.301617 0.863673 0.961271 -0.118028
C91   C     C_R   0.211000 0.335063 0.034420 -0.109920
C92   C     C_R   0.801617 0.363672 0.961271 -0.118030
H25   H     H_    0.686378 0.756428 0.056982 0.172444
H26   H     H_    0.344288 0.823813 0.930932 0.174632
H27   H     H_    0.186382 0.256423 0.056981 0.172440
H28   H     H_    0.844287 0.323810 0.930932 0.174629
C93   C     C_R   0.708032 0.851302 0.961497 0.129238
C94   C     C_R   0.306959 0.872017 0.034602 0.127513
C95   C     C_R   0.208035 0.351299 0.961496 0.129238
C96   C     C_R   0.806959 0.372016 0.034602 0.127514
C97   C     C_R   0.745043 0.947070 0.930881 0.046068
C98   C     C_R   0.250636 0.923715 0.074164 0.023612
C99   C     C_R   0.245043 0.447069 0.930880 0.046066
C100  C     C_R   0.750636 0.423716 0.074164 0.023614
Br1   Br    Br    0.438991 0.911583 0.600513 -0.281745
Br2   Br    Br    0.507225 0.895778 0.434103 -0.223040
Br3   Br    Br    0.939152 0.411448 0.600392 -0.281514
Br4   Br    Br    0.007501 0.395825 0.434017 -0.223180
Br5   Br    Br    0.656285 0.736781 0.906708 -0.428091
Br6   Br    Br    0.392231 0.809949 0.074864 -0.427568
Br7   Br    Br    0.156290 0.236775 0.906706 -0.428013
Br8   Br    Br    0.892230 0.309947 0.074864 -0.427569
N1    N     N_R   0.592322 0.307299 0.424149 0.061527
O53   O     O_R   0.633533 0.227993 0.453208 -0.378819
O54   O     O_R   0.592439 0.314377 0.355371 -0.256977
N2    N     N_R   0.515198 0.456599 0.588429 0.132218
O55   O     O_R   0.471606 0.435026 0.640250 -0.247040
O56   O     O_R   0.546804 0.559164 0.589185 -0.180526
N3    N     N_R   0.092357 0.807453 0.424158 0.061470
O57   O     O_R   0.133554 0.728097 0.453191 -0.378805
O58   O     O_R   0.092478 0.814594 0.355381 -0.256966
N4    N     N_R   0.015148 0.956502 0.588513 0.132660
O59   O     O_R   0.971305 0.934800 0.640108 -0.247205
O60   O     O_R   0.047048 0.058830 0.589745 -0.181019
N5    N     N_R   0.654073 0.800645 0.579805 0.113386
O61   O     O_R   0.587437 0.823496 0.575586 -0.171014
O62   O     O_R   0.676885 0.735385 0.631985 -0.317758
N6    N     N_R   0.323702 0.763165 0.409799 0.068760
O63   O     O_R   0.388048 0.736040 0.424948 -0.230387
O64   O     O_R   0.295885 0.719211 0.352501 -0.307246
N7    N     N_R   0.154228 0.300273 0.579926 0.113001
O65   O     O_R   0.087588 0.323107 0.575740 -0.170826
O66   O     O_R   0.177082 0.235247 0.632190 -0.317860
N8    N     N_R   0.823822 0.263253 0.409849 0.068789
O67   O     O_R   0.888175 0.236209 0.425048 -0.230277
O68   O     O_R   0.796060 0.219246 0.352536 -0.307334
N9    N     N_R   0.872664 0.050838 0.551372 0.107556
O69   O     O_R   0.881166 0.117727 0.607110 -0.205691
O70   O     O_R   0.923666 0.053274 0.505514 -0.277385
N10   N     N_R   0.135291 0.072058 0.440595 0.067261
O71   O     O_R   0.101830 0.044587 0.383020 -0.248056
O72   O     O_R   0.103168 0.146852 0.482292 -0.253038
N11   N     N_R   0.372662 0.550725 0.551348 0.107422
O73   O     O_R   0.381200 0.617600 0.607085 -0.205586
O74   O     O_R   0.423619 0.553197 0.505441 -0.277382
N12   N     N_R   0.635363 0.572059 0.440515 0.067748
O75   O     O_R   0.601804 0.544350 0.383050 -0.248200
O76   O     O_R   0.603417 0.647255 0.482084 -0.253355
N13   N     N_R   0.484222 0.391719 0.072733 0.111817
O77   O     O_R   0.526991 0.423719 0.122724 -0.312424
O78   O     O_R   0.433395 0.463777 0.055226 -0.263718
N14   N     N_R   0.477033 0.375929 0.921018 0.108530
O79   O     O_R   0.430514 0.365992 0.871225 -0.290623
O80   O     O_R   0.505940 0.479712 0.932353 -0.267791
N15   N     N_R   0.984222 0.891719 0.072733 0.111818
O81   O     O_R   0.026991 0.923718 0.122724 -0.312422
O82   O     O_R   0.933396 0.963777 0.055227 -0.263717
N16   N     N_R   0.977032 0.875929 0.921018 0.108527
O83   O     O_R   0.930513 0.865990 0.871225 -0.290619
O84   O     O_R   0.005939 0.979713 0.932353 -0.267790

loop_
_geom_bond_atom_site_label_1
_geom_bond_atom_site_label_2
_geom_bond_distance
_ccdc_geom_bond_type
C37   H3    1.103725 S    
C78   H18   1.081907 S    
Cr11  O51   2.009104 S    
O4    C12   1.238993 A    
C18   O42   1.289901 A    
C29   C30   1.386100 A    
O39   C19   1.292420 A    
O20   Cr12  2.085215 S    
N1    O53   1.303136 A    
C66   H14   1.083786 S    
C42   N6    1.431172 S    
C31   C32   1.386036 A    
C40   N4    1.471234 S    
C60   C64   1.432142 A    
C69   C73   1.423828 A    
C40   H2    1.107997 S    
C33   C34   1.406036 A    
C89   C93   1.390980 A    
C68   H16   1.083787 S    
C19   C72   1.462878 S    
C80   C84   1.367696 A    
C57   C61   1.444019 A    
C78   C82   1.367697 A    
C37   C38   1.536984 S    
C5    O17   1.267510 A    
C72   C76   1.410217 A    
C80   H20   1.081909 S    
C35   Br3   1.928329 S    
C83   C87   1.390951 A    
C39   N3    1.476061 S    
C68   C71   1.392167 A    
C41   N5    1.431357 S    
C56   C60   1.386241 A    
O26   Cr2   2.087572 S    
O45   C21   1.279134 A    
C44   C48   1.392747 A    
C91   C95   1.390983 A    
C96   Br8   1.924546 S    
C81   C85   1.390951 A    
N15   O81   1.301203 A    
C74   N14   1.438690 S    
C39   C40   1.537071 S    
O8    Cr4   1.966979 S    
C1    C52   1.467467 S    
O23   Cr11  1.946326 S    
C34   Br2   1.923917 S    
C41   C61   1.414086 A    
O30   C14   1.275351 A    
C33   Br1   1.928359 S    
C17   O41   1.275134 A    
O32   Cr4   1.968769 S    
C44   C64   1.396244 A    
O44   Cr12  2.072141 S    
C1    O9    1.271157 A    
C92   C96   1.391715 A    
C14   C87   1.452921 S    
C11   C63   1.465086 S    
C49   C53   1.378445 A    
C3    O11   1.271217 A    
C6    C25   1.476616 S    
O11   Cr7   2.083928 S    
C4    C49   1.459431 S    
C4    O12   1.277089 A    
O21   C9    1.303366 A    
C9    C61   1.465143 S    
N15   O82   1.299122 A    
C60   N12   1.463470 S    
C93   Br5   1.919680 S    
O47   C23   1.279133 A    
C70   C74   1.410217 A    
C38   H4    1.107987 S    
O6    Cr2   1.966979 S    
O27   Cr3   2.094194 S    
C27   C36   1.423965 A    
O14   C6    1.302492 A    
O3    Cr3   2.077351 S    
C42   C46   1.392783 A    
C26   C33   1.408563 A    
C95   C99   1.406436 A    
O2    Cr2   2.089117 S    
C18   C69   1.466594 S    
C65   H13   1.083353 S    
C52   C56   1.391008 A    
Cr9   O49   2.009104 S    
O2    C10   1.238866 A    
N5    O62   1.301941 A    
O42   Cr10  2.072141 S    
C66   C69   1.392168 A    
O18   Cr10  2.085215 S    
C59   N11   1.462460 S    
N13   O77   1.301202 A    
O31   Cr3   1.958864 S    
N1    O54   1.301352 A    
N12   O76   1.291821 A    
C79   C83   1.380093 A    
C43   N7    1.431351 S    
C56   H12   1.067022 S    
C54   C58   1.386266 A    
Cr7   O51   1.997702 S    
N10   O71   1.300208 A    
C31   C39   1.497777 S    
C65   C70   1.406201 A    
C26   C30   1.377322 A    
C91   H27   1.083425 S    
C5    C26   1.466501 S    
C36   Br4   1.924015 S    
C28   C32   1.377244 A    
C81   H21   1.082372 S    
O24   Cr12  1.954918 S    
N16   O84   1.300409 A    
C82   C86   1.397720 A    
C47   C51   1.384956 A    
O22   C10   1.297507 A    
C43   C63   1.414025 A    
N3    O57   1.303138 A    
O48   Cr12  1.964589 S    
C79   C99   1.406768 A    
C42   C62   1.396251 A    
N6    O63   1.295517 A    
C80   C100  1.397319 A    
C39   H1    1.103753 S    
C2    C51   1.459399 S    
C2    O10   1.277250 A    
C13   C88   1.449091 S    
C77   C81   1.380091 A    
N7    O65   1.297048 A    
O16   Cr8   1.963589 S    
C83   H23   1.082371 S    
O27   C23   1.270563 A    
N5    O61   1.297031 A    
O7    Cr3   1.974721 S    
C10   C62   1.450963 S    
O13   C5    1.302697 A    
Cr4   O52   1.985261 S    
O40   C20   1.279244 A    
C47   H7    1.071303 S    
C95   Br7   1.919678 S    
O48   C24   1.269933 A    
O12   Cr8   2.071392 S    
C20   C71   1.466594 S    
C58   N10   1.463724 S    
C50   C54   1.390953 A    
O15   C7    1.302764 A    
O5    C1    1.282437 A    
C53   H9    1.071612 S    
O46   Cr10  1.964589 S    
O39   Cr7   1.960685 S    
O25   C21   1.270564 A    
C88   C92   1.396952 A    
O7    C3    1.282386 A    
C35   C36   1.406008 A    
C76   N16   1.438689 S    
O3    C11   1.247765 A    
O8    C4    1.284435 A    
C24   C100  1.456705 S    
C17   C70   1.462877 S    
N14   O80   1.300410 A    
C13   O33   1.264460 A    
C85   C89   1.406996 A    
N11   O74   1.298391 A    
C90   H26   1.083481 S    
O47   Cr11  1.963642 S    
Cr2   O50   1.985261 S    
O15   Cr7   1.964320 S    
C12   C64   1.450973 S    
O35   Cr7   2.083759 S    
Cr1   O49   1.985499 S    
C46   H6    1.063133 S    
O30   Cr2   1.968769 S    
C45   H5    1.071254 S    
Cr3   O51   1.985499 S    
O26   C22   1.277068 A    
N11   O73   1.297934 A    
N2    O56   1.294240 A    
O21   Cr9   1.946326 S    
C67   H15   1.083351 S    
O28   C24   1.277068 A    
C7    O19   1.267434 A    
N13   O78   1.299123 A    
O9    Cr5   2.083928 S    
C87   C91   1.406994 A    
N10   O72   1.291979 A    
C84   H24   1.078512 S    
C79   H19   1.081885 S    
C19   O43   1.275134 A    
C3    C50   1.467495 S    
N12   O75   1.300010 A    
C29   C37   1.497664 S    
C8    C27   1.476523 S    
C77   H17   1.081886 S    
C51   C55   1.378301 A    
O34   Cr6   2.083744 S    
C22   C98   1.456703 S    
O14   Cr6   1.963589 S    
C16   C85   1.452922 S    
O38   C18   1.279243 A    
O25   Cr1   2.094194 S    
C53   C57   1.379034 A    
C84   C88   1.397722 A    
C32   C40   1.471491 S    
C86   C90   1.396950 A    
N16   O83   1.301381 A    
N8    O68   1.302643 A    
O37   C17   1.292420 A    
O22   Cr10  1.954918 S    
C48   C52   1.396432 A    
N9    O69   1.297949 A    
C7    C28   1.466504 S    
C44   N8    1.431195 S    
O5    Cr1   1.974721 S    
C8    O20   1.266568 A    
N6    O64   1.302615 A    
C21   C97   1.455402 S    
O17   Cr9   2.084431 S    
C58   C62   1.432287 A    
C15   O35   1.264460 A    
O24   C12   1.297417 A    
C93   C97   1.406438 A    
C41   C45   1.398493 A    
C96   C100  1.421308 A    
C14   O34   1.280368 A    
N4    O60   1.294673 A    
C71   C75   1.423827 A    
O40   Cr8   1.949829 S    
O29   C13   1.276996 A    
C73   N13   1.436875 S    
C25   C34   1.423950 A    
C20   O44   1.289902 A    
C59   C63   1.443901 A    
O1    Cr1   2.077351 S    
C55   H11   1.071521 S    
C78   C98   1.397317 A    
C67   C68   1.371294 A    
C73   C74   1.411387 A    
Cr8   O52   2.008852 S    
O32   C16   1.275352 A    
C37   N1    1.476076 S    
C65   C66   1.371294 A    
C57   N9    1.462562 S    
Cr10  O50   1.997979 S    
O13   Cr5   1.964320 S    
Cr6   O50   2.008852 S    
O46   C22   1.269933 A    
Cr12  O52   1.997979 S    
Cr5   O49   1.997702 S    
C89   H25   1.083426 S    
C46   C50   1.396463 A    
O19   Cr11  2.084431 S    
N14   O79   1.301381 A    
N9    O70   1.298417 A    
C82   H22   1.078509 S    
O33   Cr5   2.083759 S    
O23   C11   1.303348 A    
N7    O66   1.301971 A    
O10   Cr6   2.071392 S    
C25   C29   1.396220 A    
N8    O67   1.295639 A    
C55   C59   1.378990 A    
C77   C97   1.406768 A    
O4    Cr4   2.089117 S    
C15   C86   1.449092 S    
O6    C2    1.284229 A    
O1    C9    1.247756 A    
O29   Cr1   1.958864 S    
C90   C94   1.391713 A    
C48   H8    1.063032 S    
C16   O36   1.280368 A    
C45   C49   1.384738 A    
N2    O55   1.303893 A    
C30   C38   1.471581 S    
C27   C31   1.396246 A    
C43   C47   1.398504 A    
N4    O59   1.304047 A    
C6    O18   1.266578 A    
O28   Cr4   2.087572 S    
O43   Cr11  2.065389 S    
C75   C76   1.411387 A    
N3    O58   1.301373 A    
C54   H10   1.066891 S    
O45   Cr9   1.963642 S    
C94   Br6   1.924546 S    
O41   Cr9   2.065389 S    
C94   C98   1.421308 A    
C23   C99   1.455401 S    
O37   Cr5   1.960685 S    
O36   Cr8   2.083744 S    
O31   C15   1.276996 A    
O16   C8    1.302461 A    
C67   C72   1.406199 A    
C92   H28   1.083482 S    
C28   C35   1.408583 A    
C38   N2    1.471123 S    
O38   Cr6   1.949829 S    
C75   N15   1.436876 S    
