data_mof_unit_66995.cif
_audit_creation_date              2013-03-05T15:58:13-0500
_audit_creation_method            fapswitch 2.2
_symmetry_space_group_name_H-M    P1
_symmetry_Int_Tables_number       1
_space_group_crystal_system       triclinic
_cell_length_a                    8.491375
_cell_length_b                    13.153104
_cell_length_c                    14.382335
_cell_angle_alpha                 94.574231
_cell_angle_beta                  92.100589
_cell_angle_gamma                 97.302194
_cell_volume                      1586.45092942

loop_
_atom_site_label
_atom_site_type_symbol
_atom_site_description
_atom_site_fract_x
_atom_site_fract_y
_atom_site_fract_z
_atom_type_partial_charge
P1    P     P_3+3 0.054400 0.427280 0.286870 0.578542
O1    O     O_2   0.887370 0.460630 0.272300 -0.297685
O2    O     O_3   0.129410 0.451380 0.388510 -0.365428
O3    O     O_3   0.670210 0.653170 0.329170 -0.338253
O4    O     O_2   0.693635 0.536064 0.172827 -0.328648
O5    O     O_3   0.018177 0.295286 0.247842 -0.514418
O6    O     O_3   0.714663 0.733628 0.151571 -0.490631
H1    H     H_    0.710299 0.871238 0.230853 0.119079
C1    C     C_3   0.632752 0.882528 0.087212 -0.894195
H2    H     H_    0.738321 0.941426 0.086750 0.259263
H3    H     H_    0.626494 0.830223 0.022478 0.328404
P2    P     P_3+3 0.668300 0.742890 0.573060 0.455436
P3    P     P_3+3 0.140329 0.837413 0.368148 0.487912
O7    O     O_2   0.845380 0.761330 0.544970 -0.358640
O8    O     O_3   0.088930 0.704860 0.376040 -0.349836
O9    O     O_2   0.028574 0.881369 0.439252 -0.319061
O10   O     O_3   0.687625 0.767333 0.694937 -0.571734
O11   O     O_3   0.055184 0.873382 0.261724 -0.513249
C2    C     C_3   0.119564 0.834344 0.177583 0.342454
H4    H     H_    0.250967 0.841395 0.185002 -0.050578
C3    C     C_3   0.062685 0.890905 0.092985 -0.636138
H5    H     H_    0.953301 0.848238 0.056575 0.226666
H6    H     H_    0.020001 0.963538 0.115420 0.199810
C4    C     C_3   0.230294 0.748386 0.652926 0.525623
H7    H     H_    0.318993 0.705943 0.617010 0.058915
H8    H     H_    0.124940 0.748158 0.605072 0.130260
C5    C     C_3   0.304495 0.858542 0.678456 -0.905373
H9    H     H_    0.427809 0.858249 0.705721 0.261840
H10   H     H_    0.305184 0.903792 0.616771 0.231988
H11   H     H_    0.236292 0.895566 0.732962 0.301919
Ba1   Ba    Ba6+2 0.855630 0.555280 0.454520 1.635173
C6    C     C_3   0.068670 0.230219 0.311737 0.223155
H12   H     H_    0.192638 0.256801 0.331999 0.104459
C7    C     C_3   0.055143 0.120918 0.264246 -0.778987
H13   H     H_    0.941823 0.101833 0.221478 0.207536
H14   H     H_    0.057675 0.064785 0.318049 0.213424
C8    C     C_3   0.765926 0.695359 0.739426 0.807102
H15   H     H_    0.825228 0.644417 0.690653 -0.053888
C9    C     C_3   0.646459 0.632529 0.794065 0.010692
H16   H     H_    0.706629 0.593533 0.847811 0.114835
H17   H     H_    0.576882 0.574584 0.744325 0.143846
P4    P     P_3+3 0.135310 0.572810 0.713130 0.508923
O12   O     O_2   0.302330 0.539400 0.727760 -0.361452
O13   O     O_3   0.060300 0.548700 0.611500 -0.415350
O14   O     O_3   0.519500 0.346920 0.670840 -0.393466
O15   O     O_3   0.184336 0.705464 0.735386 -0.481658
P5    P     P_3+3 0.042104 0.163930 0.631255 0.514196
O16   O     O_3   0.614310 0.373510 0.452640 -0.351039
O17   O     O_3   0.100780 0.295230 0.623970 -0.345192
O18   O     O_2   0.155237 0.109720 0.567610 -0.361861
O19   O     O_3   0.099908 0.136344 0.743821 -0.517368
Ba2   Ba    Ba6+2 0.334200 0.444810 0.545490 1.630556
P6    P     P_3+3 0.621491 0.632294 0.209743 0.535328
C10   C     C_3   0.640295 0.822217 0.173282 0.371952
H18   H     H_    0.516529 0.805283 0.196121 0.009919
H19   H     H_    0.525471 0.922390 0.086890 0.215498
O20   O     O_3   0.575400 0.626570 0.547370 -0.425746
C11   C     C_3   0.542775 0.222324 0.240423 0.675858
C12   C     C_3   0.587269 0.138549 0.168247 -0.943790
H20   H     H_    0.611875 0.070131 0.204087 0.247650
H21   H     H_    0.493066 0.115273 0.112978 0.252518
H22   H     H_    0.696834 0.162936 0.131530 0.305083
P7    P     P_3+3 0.522353 0.236559 0.432093 0.474011
O21   O     O_2   0.344320 0.238700 0.455090 -0.418019
O22   O     O_3   0.477423 0.176043 0.317450 -0.602526
C13   C     C_3   0.075756 0.220072 0.806664 0.200550
H23   H     H_    0.162143 0.288189 0.795036 0.126515
H24   H     H_    0.953074 0.240148 0.798172 0.051800
C14   C     C_3   0.103848 0.194411 0.906967 0.187245
H25   H     H_    0.213782 0.157835 0.913676 0.199405
H26   H     H_    0.119147 0.266096 0.954284 0.104336
P8    P     P_3+3 0.548152 0.354718 0.789799 0.435991
C15   C     C_3   0.541470 0.158367 0.778639 0.404971
H27   H     H_    0.673206 0.176741 0.781291 0.081282
O23   O     O_2   0.435689 0.428107 0.830959 -0.391922
O24   O     O_3   0.469535 0.236088 0.826300 -0.527177
H28   H     H_    0.494531 0.146158 0.704908 0.097313
H29   H     H_    0.548961 0.066695 0.897925 0.297815
C16   C     C_3   0.500124 0.059173 0.824848 -0.785179
H30   H     H_    0.552435 0.996693 0.786574 0.255358
H31   H     H_    0.369293 0.039015 0.824449 0.257438
C17   C     C_R   0.994418 0.434190 0.055923 -0.148969
C18   C     C_R   0.171930 0.497047 0.197082 0.259400
C19   C     C_R   0.307217 0.562217 0.231455 -0.351397
C20   C     C_R   0.417201 0.600861 0.170411 0.171108
C21   C     C_R   0.386220 0.589705 0.074329 -0.143966
C22   C     C_R   0.244724 0.535413 0.036478 0.141586
C23   C     C_R   0.137406 0.485083 0.096984 -0.020480
H32   H     H_    0.337748 0.571349 0.305696 0.152241
C24   C     C_R   0.058997 0.493129 0.899647 -0.017841
C25   C     C_R   0.951951 0.440464 0.959790 -0.001397
C26   C     C_R   0.013344 0.498908 0.802138 0.243631
C27   C     C_R   0.863628 0.447556 0.769386 -0.524326
C28   C     C_R   0.756283 0.400874 0.830115 0.121333
C29   C     C_R   0.800482 0.397580 0.923976 -0.213865
C30   C     C_R   0.206090 0.538229 0.940198 0.004402
H33   H     H_    0.475239 0.621666 0.028940 0.191945
H34   H     H_    0.825347 0.449923 0.697085 0.174162
H35   H     H_    0.912163 0.393950 0.100158 0.183269
H36   H     H_    0.288459 0.580426 0.898288 0.207838
C31   C     C_R   0.725478 0.178075 0.566193 -0.382992
C32   C     C_R   0.439444 0.817724 0.458970 -0.464199
C33   C     C_R   0.398470 0.992938 0.439063 -0.122628
C34   C     C_R   0.346761 0.887107 0.421319 0.177954
C35   C     C_R   0.576869 0.850076 0.517980 0.249607
C36   C     C_R   0.631275 0.960333 0.536235 -0.100311
C37   C     C_R   0.540045 0.031580 0.493725 -0.052812
C38   C     C_R   0.590274 0.140839 0.509041 0.346936
C39   C     C_R   0.827755 0.111631 0.596012 0.178610
C40   C     C_R   0.774120 0.005019 0.590800 -0.216903
H37   H     H_    0.321965 0.044962 0.413426 0.203124
H38   H     H_    0.765347 0.259905 0.574204 0.174671
H39   H     H_    0.397498 0.736348 0.447133 0.147227
C41   C     C_2   0.965618 0.225322 0.394603 1.092555
O25   O     O_2   0.981326 0.295568 0.455771 -0.547131
O26   O     O_R   0.850691 0.141037 0.403135 -0.830620
H40   H     H_    0.800801 0.102777 0.343510 0.306136
C42   C     C_2   0.184552 0.103281 0.203172 1.154073
O27   O     O_2   0.185448 0.135453 0.126036 -0.556127
O28   O     O_R   0.286493 0.034235 0.228763 -0.799865
H41   H     H_    0.341834 0.003980 0.174708 0.296370
Cl1   Cl    Cl    0.910397 0.761880 0.823390 -0.594486
Cl2   Cl    Cl    0.523550 0.713511 0.853988 -0.617459
C43   C     C_2   0.439114 0.295498 0.201681 1.016787
O29   O     O_2   0.394963 0.287243 0.119653 -0.580706
O30   O     O_R   0.398212 0.377806 0.257602 -0.818718
H42   H     H_    0.443170 0.385451 0.323527 0.327007
Cl3   Cl    Cl    0.713278 0.292483 0.271855 -0.636354
C44   C     C_2   0.184884 0.904202 0.019599 1.136132
O31   O     O_2   0.232837 0.989834 0.997277 -0.625186
O32   O     O_R   0.239211 0.818455 0.974299 -0.721117
H43   H     H_    0.313609 0.838289 0.923435 0.369723
Cl4   Cl    Cl    0.939539 0.111300 0.943446 -0.568756
C45   C     C_2   0.059305 0.724532 0.152520 0.941604
O33   O     O_2   0.064705 0.687588 0.072254 -0.630410
O34   O     O_R   0.981614 0.667355 0.216344 -0.678272
H44   H     H_    0.947394 0.597165 0.186207 0.344631
C46   C     C_2   0.682578 0.349713 0.983782 1.126054
O35   O     O_2   0.592447 0.401841 0.023588 -0.577378
O36   O     O_R   0.662907 0.243399 0.984357 -0.775610
H45   H     H_    0.551949 0.216117 0.000654 0.356869
C47   C     C_2   0.862034 0.953022 0.657664 1.157296
O37   O     O_2   0.985214 0.920832 0.636044 -0.591962
O38   O     O_R   0.825698 0.964921 0.751291 -0.763028
H46   H     H_    0.918430 0.955939 0.794625 0.399634

loop_
_geom_bond_atom_site_label_1
_geom_bond_atom_site_label_2
_geom_bond_distance
_ccdc_geom_bond_type
C7    C42   1.461489 S    
C13   H24   1.111580 S    
C22   C23   1.422185 A    
P7    O22   1.779082 S    
C11   Cl3   1.642535 S    
C27   C28   1.404405 A    
C41   O26   1.397099 S    
O3    P6    1.743738 S    
C5    H10   1.106826 S    
C17   H35   1.079370 S    
O5    C6    1.396642 S    
C2    H4    1.108318 S    
C4    C5    1.515655 S    
O7    Ba1   2.924203 S    
P8    O24   1.745708 S    
C41   O25   1.214837 D    
P5    O17   1.748062 S    
C20   C21   1.389800 A    
C2    C45   1.481059 S    
O30   H42   1.001669 S    
P3    O11   1.791841 S    
O4    P6    1.540455 D    
C2    C3    1.568362 S    
C4    H8    1.108093 S    
C7    H13   1.112596 S    
P4    O15   1.742594 S    
P2    C35   1.905044 S    
O12   Ba2   2.847915 S    
C13   C14   1.524738 S    
C36   C37   1.446822 A    
C31   C39   1.388297 A    
P1    Ba1   3.445338 S    
C9    Cl2   1.780074 S    
O26   H40   1.009176 S    
C32   C35   1.416566 A    
C33   H37   1.077919 S    
P1    O1    1.548863 D    
C15   H27   1.112585 S    
C14   H26   1.108623 S    
C21   H33   1.083241 S    
C42   O27   1.218424 D    
C19   C20   1.382742 A    
C29   C46   1.458709 S    
P2    O10   1.754562 S    
C37   C38   1.443079 A    
C1    H2    1.108380 S    
Ba1   Ba2   4.663833 S    
C7    H14   1.112795 S    
P8    C28   1.850452 S    
O13   Ba2   2.990102 S    
C31   C38   1.399016 A    
C13   H23   1.111120 S    
C12   H20   1.110451 S    
C3    H5    1.112134 S    
C5    H11   1.109585 S    
C28   C29   1.393341 A    
P4    O13   1.565000 S    
P8    O23   1.542337 D    
P5    O18   1.550371 D    
O14   P8    1.712336 S    
C12   H21   1.103530 S    
Ba1   O13   2.811944 S    
P1    O5    1.766354 S    
O36   H45   1.007513 S    
C9    H17   1.099679 S    
Ba2   O21   2.924460 S    
H1    C10   1.111754 S    
C9    H16   1.105693 S    
C16   H31   1.108564 S    
C21   C22   1.386301 A    
O34   H44   0.991667 S    
O16   P7    1.866140 S    
P5    O19   1.753375 S    
O14   Ba2   2.839194 S    
C11   C12   1.544870 S    
P5    C39   1.897745 S    
C24   C30   1.398270 A    
C17   C25   1.427467 A    
C8    Cl1   1.782922 S    
O1    Ba1   2.847371 S    
C31   H38   1.082153 S    
O19   C13   1.408557 S    
C6    C7    1.530421 S    
O2    Ba1   2.989307 S    
C6    C41   1.504880 S    
C8    H15   1.109628 S    
C40   C47   1.460098 S    
C11   O22   1.404471 S    
C24   C26   1.451707 A    
C18   C19   1.392583 A    
O17   Ba2   2.932629 S    
C22   C30   1.415777 A    
C15   C16   1.518615 S    
C1    H19   1.107376 S    
O10   C8    1.404674 S    
C4    H7    1.111375 S    
P3    C34   1.901431 S    
C32   C34   1.405565 A    
C1    H3    1.108079 S    
C3    C44   1.511574 S    
C46   O36   1.387790 S    
P2    O20   1.637458 S    
P2    O7    1.565398 D    
Ba1   O16   2.942115 S    
P3    O8    1.756373 S    
P2    Ba1   3.471576 S    
C15   O24   1.402030 S    
C47   O38   1.393582 S    
C16   H30   1.101934 S    
C19   H32   1.083088 S    
O6    P6    1.749504 S    
O32   H43   1.012287 S    
C5    H9    1.105156 S    
O28   H41   1.004279 S    
C43   O30   1.384456 S    
C44   O31   1.219903 D    
C36   C40   1.451901 A    
C10   H18   1.113312 S    
C12   H22   1.111075 S    
C14   Cl4   1.781658 S    
H29   C16   1.107893 S    
O38   H46   1.010863 S    
Ba2   O20   2.941417 S    
C45   O34   1.368130 S    
O2    Ba2   2.812526 S    
O8    Ba1   2.932012 S    
C45   O33   1.221049 D    
P1    C18   1.885832 S    
C35   C36   1.464777 A    
C11   C43   1.508831 S    
C33   C37   1.425929 A    
C4    O15   1.400812 S    
C6    H12   1.087636 S    
Ba1   O20   2.987502 S    
C3    H6    1.093435 S    
C8    C9    1.509471 S    
C32   H39   1.082154 S    
C39   C40   1.413447 A    
C24   C25   1.430885 A    
C17   C23   1.396005 A    
C30   H36   1.070583 S    
C26   C27   1.407610 A    
C18   C23   1.450688 A    
P4    C26   1.922489 S    
C14   H25   1.107762 S    
C42   O28   1.392592 S    
O3    Ba1   2.839794 S    
C46   O35   1.219225 D    
C25   C29   1.399436 A    
P7    O21   1.562547 D    
O16   Ba2   2.986683 S    
P4    O12   1.549213 D    
P3    O9    1.548182 D    
C33   C34   1.405462 A    
O11   C2    1.430989 S    
C15   H28   1.111194 S    
C47   O37   1.218778 D    
P6    C20   1.791245 S    
C1    C10   1.526266 S    
O6    C10   1.413324 S    
P1    O2    1.565120 S    
P7    C38   1.871514 S    
C27   H34   1.082084 S    
P4    Ba2   3.445829 S    
C43   O29   1.216941 D    
C44   O32   1.395142 S    
