data_mof_unit_36159.cif
_audit_creation_date              2012-12-10T17:22:09-0500
_audit_creation_method            fapswitch 2.2
_symmetry_space_group_name_H-M    P1
_symmetry_Int_Tables_number       1
_space_group_crystal_system       triclinic
_cell_length_a                    15.900291
_cell_length_b                    10.80397
_cell_length_c                    9.633319
_cell_angle_alpha                 89.808383
_cell_angle_beta                  89.977385
_cell_angle_gamma                 95.156883
_cell_volume                      1648.16389983

loop_
_atom_site_label
_atom_site_type_symbol
_atom_type_description
_atom_site_fract_x
_atom_site_fract_y
_atom_site_fract_z
_atom_type_partial_charge
C1    C     C_R   0.494103 0.262358 0.500275 0.786132
C2    C     C_3   0.945172 0.402363 0.617555 -0.094585
C3    C     C_3   0.916450 0.495339 0.502643 0.062239
C4    C     C_3   0.957635 0.629931 0.536388 -0.232735
C5    C     C_3   0.056357 0.629409 0.544060 -0.218119
C6    C     C_1   0.823810 0.496292 0.501452 -0.034544
C7    C     C_1   0.175837 0.499486 0.501780 -0.055496
C8    C     C_1   0.251190 0.499577 0.500720 -0.135548
C9    C     C_R   0.370856 0.112269 0.676533 -0.234017
C10   C     C_R   0.314831 0.040373 0.763564 0.038520
C11   C     C_R   0.316959 0.911273 0.765083 -0.172317
C12   C     C_R   0.340521 0.499321 0.500152 0.799508
C13   C     C_R   0.372809 0.854381 0.679919 -0.202369
C14   C     C_R   0.429783 0.925451 0.592165 0.103747
C15   C     C_R   0.429386 0.056587 0.591583 0.084799
C16   C     C_R   0.484528 0.127507 0.499712 -0.091785
C17   C     C_R   0.529918 0.068931 0.399577 -0.184388
C18   C     C_R   0.527542 0.941593 0.396599 -0.168756
C19   C     C_R   0.483567 0.869367 0.498221 -0.095445
C20   C     C_R   0.634416 0.656292 0.131271 -0.024577
C21   C     C_R   0.700154 0.708600 0.046789 -0.237916
C22   C     C_R   0.692487 0.709439 0.905791 -0.049411
C23   C     C_R   0.493550 0.736389 0.499771 0.801847
C24   C     C_R   0.620751 0.652401 0.846720 -0.163901
C25   C     C_R   0.560559 0.575747 0.922783 0.187873
C26   C     C_R   0.563223 0.576504 0.072993 0.160914
C27   C     C_R   0.442052 0.428550 0.074104 -0.033068
C28   C     C_R   0.442366 0.428209 0.926737 -0.038936
C29   C     C_R   0.659246 0.497320 0.500166 0.848022
C30   C     C_3   0.044685 0.400823 0.611271 -0.244684
C31   C     C_3   0.047906 0.463965 0.356445 -0.419856
C32   C     C_3   0.949680 0.459060 0.355232 -0.173434
C33   C     C_1   0.748524 0.496776 0.500668 -0.094291
C34   C     C_3   0.083250 0.498489 0.502844 0.145244
Cu1   Cu    Cu3+1 0.499990 0.499990 0.640660 0.947194
Cu2   Cu    Cu3+1 0.500010 0.500010 0.359340 0.970556
H1    H     H_    0.072449 0.428189 0.714173 0.141105
H2    H     H_    0.568851 0.122165 0.324083 0.176059
H3    H     H_    0.365680 0.211155 0.671764 0.170143
H4    H     H_    0.273721 0.853264 0.829719 0.184902
H5    H     H_    0.367909 0.754095 0.680136 0.169730
H6    H     H_    0.562273 0.900651 0.315369 0.169680
H7    H     H_    0.394452 0.369586 0.129091 0.147891
H8    H     H_    0.755914 0.759958 0.090956 0.172112
H9    H     H_    0.615855 0.670456 0.739459 0.210429
H10   H     H_    0.395027 0.368988 0.872244 0.167291
H11   H     H_    0.073807 0.534675 0.279676 0.176570
H12   H     H_    0.071478 0.375295 0.322292 0.222467
H13   H     H_    0.933153 0.530789 0.279126 0.146136
H14   H     H_    0.075393 0.646630 0.654049 0.137023
H15   H     H_    0.935404 0.658312 0.639985 0.161874
N1    N     N_R   0.500800 0.501210 0.147910 -0.198609
N2    N     N_R   0.500820 0.501290 0.852040 -0.200658
O1    O     O_R   0.499990 0.319640 0.618810 -0.577149
O2    O     O_R   0.500000 0.319660 0.381240 -0.577266
O3    O     O_R   0.379430 0.499990 0.618840 -0.587003
O4    O     O_R   0.379440 0.500020 0.381260 -0.575580
O5    O     O_R   0.500000 0.680340 0.618760 -0.611974
O6    O     O_R   0.500010 0.680360 0.381190 -0.580358
O7    O     O_R   0.620560 0.499980 0.618740 -0.593192
O8    O     O_R   0.620570 0.500010 0.381160 -0.565358
C35   C     C_1   0.899809 0.276871 0.601867 0.294312
N3    N     N_1   0.864273 0.179112 0.590318 -0.220414
C36   C     C_1   0.920939 0.442978 0.757761 0.204317
N4    N     N_1   0.902002 0.474721 0.867195 -0.250499
C37   C     C_1   0.928399 0.724388 0.439389 0.305715
N5    N     N_1   0.905414 0.797836 0.363960 -0.245397
C38   C     C_2   0.252338 0.099331 0.849983 0.840084
O9    O     O_2   0.248999 0.212006 0.846802 -0.628768
O10   O     O_R   0.196589 0.025958 0.935123 -0.754159
H16   H     H_    0.157056 0.076828 0.988591 0.350723
C39   C     C_1   0.073334 0.275763 0.584881 0.333157
N6    N     N_1   0.095816 0.178491 0.564435 -0.221950
C40   C     C_1   0.649405 0.707457 0.267412 0.331678
N7    N     N_1   0.667983 0.751911 0.373699 -0.320724
C41   C     C_1   0.756793 0.775269 0.820919 0.271099
N8    N     N_1   0.808303 0.827909 0.752699 -0.253977
C42   C     C_2   0.907813 0.337434 0.298607 0.871348
O11   O     O_2   0.835749 0.334138 0.253519 -0.578547
O12   O     O_R   0.950491 0.229667 0.296751 -0.748475
H17   H     H_    0.914979 0.155640 0.256781 0.353706
C43   C     C_1   0.102748 0.731144 0.463261 0.284205
N9    N     N_1   0.139069 0.810381 0.400466 -0.240113

loop_
_geom_bond_atom_site_label_1
_geom_bond_atom_site_label_2
_ccdc_geom_bond_type
C23   O5    A    
Cu1   N2    S    
Cu1   Cu2   S    
C22   C41   S    
C3    C6    S    
C13   H5    S    
C7    C8    T    
C23   O6    A    
C28   H10   S    
Cu1   O5    S    
C24   H9    S    
C25   N2    A    
C18   H6    S    
O12   H17   S    
C42   O12   S    
C15   C16   A    
C29   C33   S    
C9    H3    S    
C18   C19   A    
C38   O9    D    
O10   H16   S    
C9    C10   A    
Cu2   N1    S    
Cu2   O6    S    
C37   N5    T    
C31   H11   S    
C21   C22   A    
Cu1   O1    S    
C3    C32   S    
C2    C36   S    
C29   O8    A    
C40   N7    T    
C30   C34   S    
C4    H15   S    
C41   N8    T    
Cu2   O4    S    
C42   O11   D    
C4    C5    S    
C25   C26   A    
C30   H1    S    
Cu1   O7    S    
C19   C23   S    
C1    O1    A    
C35   N3    T    
C26   N1    A    
C21   H8    S    
C31   C32   S    
C29   O7    A    
C8    C12   S    
C5    C34   S    
C17   C18   A    
C31   C34   S    
C20   C40   S    
C1    C16   S    
C24   C25   A    
C12   O3    A    
C12   O4    A    
C31   H12   S    
C7    C34   S    
C22   C24   A    
C5    H14   S    
Cu2   O8    S    
C27   N1    A    
Cu1   O3    S    
C14   C19   A    
C39   N6    T    
C30   C39   S    
C28   N2    A    
C10   C38   S    
C6    C33   T    
C2    C30   S    
C36   N4    T    
C2    C3    S    
C1    O2    A    
Cu2   O2    S    
C4    C37   S    
C5    C43   S    
C11   C13   A    
C16   C17   A    
C20   C26   A    
C17   H2    S    
C9    C15   A    
C11   H4    S    
C32   H13   S    
C10   C11   A    
C32   C42   S    
C27   H7    S    
C20   C21   A    
C38   O10   S    
C43   N9    T    
C27   C28   A    
C14   C15   A    
C13   C14   A    
C2    C35   S    
C3    C4    S    
