data_mof_unit_47898.cif
_audit_creation_date              2012-12-10T17:50:15-0500
_audit_creation_method            fapswitch 2.2
_symmetry_space_group_name_H-M    P1
_symmetry_Int_Tables_number       1
_space_group_crystal_system       triclinic
_cell_length_a                    10.649518
_cell_length_b                    14.713297
_cell_length_c                    14.681242
_cell_angle_alpha                 64.825894
_cell_angle_beta                  104.045034
_cell_angle_gamma                 102.816142
_cell_volume                      2001.15581723

loop_
_atom_site_label
_atom_site_type_symbol
_atom_type_description
_atom_site_fract_x
_atom_site_fract_y
_atom_site_fract_z
_atom_type_partial_charge
C1    C     C_R   0.479413 0.119666 0.311353 0.847444
C2    C     C_R   0.478863 0.534203 0.949087 -0.145431
C3    C     C_R   0.412203 0.496032 0.874017 0.787910
C4    C     C_R   0.571362 0.503458 0.126347 0.666895
C5    C     C_R   0.399011 0.392389 0.894171 -0.178118
C6    C     C_R   0.587479 0.607302 0.105248 -0.129702
C7    C     C_R   0.737010 0.292099 0.656340 -0.172676
C8    C     C_R   0.261164 0.707326 0.345147 -0.209175
C9    C     C_R   0.695960 0.208291 0.629444 0.740530
C10   C     C_R   0.303764 0.791750 0.370869 0.785734
C11   C     C_R   0.514503 0.283433 0.513716 0.116329
C12   C     C_R   0.519552 0.880308 0.688670 0.848583
C13   C     C_R   0.484868 0.716221 0.486734 0.121763
C14   C     C_R   0.551116 0.371769 0.536150 -0.035332
C15   C     C_R   0.447146 0.627335 0.465298 0.000345
C16   C     C_R   0.259903 0.000491 0.499905 0.993274
C17   C     C_R   0.740096 0.999524 0.500073 0.991067
C18   C     C_R   0.654424 0.368872 0.618921 -0.051559
C19   C     C_R   0.342396 0.629432 0.383476 -0.091615
C20   C     C_R   0.486074 0.460568 0.481801 -0.105861
C21   C     C_R   0.512140 0.538530 0.519954 -0.052358
C22   C     C_R   0.595889 0.522082 0.614838 0.574445
C23   C     C_R   0.465430 0.289199 0.173284 0.729133
C24   C     C_R   0.402434 0.476946 0.387039 0.613211
C25   C     C_R   0.666667 0.439438 0.663963 -0.075488
C26   C     C_R   0.328103 0.557774 0.339355 -0.084108
C27   C     C_3   0.014433 0.010601 0.407892 0.474694
C28   C     C_3   0.985576 0.989435 0.592063 0.469654
C29   C     C_3   0.960823 0.087106 0.429490 0.442569
C30   C     C_3   0.039183 0.912929 0.570465 0.436385
C31   C     C_3   0.875866 0.998855 0.499821 -0.577197
C32   C     C_3   0.124137 0.001179 0.500135 -0.573356
C33   C     C_3   0.929237 0.922288 0.478204 0.479290
C34   C     C_R   0.522196 0.709593 0.826545 0.706819
C35   C     C_3   0.070771 0.077748 0.521750 0.483853
C36   C     C_R   0.469845 0.186661 0.201142 -0.271564
C37   C     C_R   0.524658 0.813208 0.798734 -0.234125
C38   C     C_R   0.451592 0.219697 0.019978 -0.013716
C39   C     C_R   0.536559 0.780166 0.979175 0.023691
C40   C     C_R   0.469182 0.151778 0.124515 -0.086402
C41   C     C_R   0.526613 0.848888 0.875158 -0.175156
C42   C     C_2   0.872610 0.301793 0.711887 0.563496
C43   C     C_2   0.125468 0.698825 0.289502 0.461353
C44   C     C_2   0.320398 0.356871 0.813901 0.484184
C45   C     C_R   0.474177 0.359558 0.073824 -0.009159
C46   C     C_2   0.669480 0.640659 0.185914 0.555680
C47   C     C_2   0.513177 0.956401 0.846137 0.490837
C48   C     C_2   0.494147 0.046824 0.154433 0.547974
C49   C     C_2   0.462902 0.187267 0.939243 0.413758
C50   C     C_2   0.519290 0.814793 0.056728 0.498956
C51   C     C_2   0.736766 0.422807 0.769539 0.509947
C52   C     C_2   0.251837 0.574209 0.235289 0.599448
C53   C     C_R   0.511298 0.639786 0.925983 -0.067181
C54   C     C_R   0.442969 0.323530 0.994513 -0.198658
C55   C     C_R   0.543525 0.676088 0.005000 -0.048461
C56   C     C_R   0.505138 0.465131 0.051170 -0.087184
Cu1   Cu    Cu3+1 0.465750 0.918270 0.475680 1.119579
Cu2   Cu    Cu3+1 0.534250 0.081730 0.524320 1.115934
F1    F     F_    0.918552 0.176676 0.356806 -0.542923
F2    F     F_    0.144506 0.157987 0.544162 -0.556326
F3    F     F_    0.546316 0.677429 0.759296 -0.561147
F4    F     F_    0.437596 0.319223 0.240772 -0.547452
F5    F     F_    0.346980 0.557644 0.784603 -0.551311
F6    F     F_    0.634172 0.441902 0.217095 -0.599605
F7    F     F_    0.081470 0.823363 0.643147 -0.552633
F8    F     F_    0.232481 0.870075 0.328932 -0.594906
F9    F     F_    0.768147 0.130547 0.670812 -0.598308
F10   F     F_    0.598727 0.579158 0.667468 -0.620602
F11   F     F_    0.403849 0.421968 0.333367 -0.584305
F12   F     F_    0.031144 0.021669 0.313046 -0.526929
F13   F     F_    0.968874 0.978370 0.686910 -0.530389
F14   F     F_    0.855507 0.842051 0.455787 -0.562087
H1    H     H_    0.573664 0.726331 0.537280 0.241310
H2    H     H_    0.556513 0.891169 0.051783 0.155981
H3    H     H_    0.780271 0.487235 0.789712 0.160060
H4    H     H_    0.236803 0.650092 0.180209 0.076232
H5    H     H_    0.426064 0.273491 0.462729 0.249925
H6    H     H_    0.917703 0.234488 0.762987 0.137699
H7    H     H_    0.083264 0.766540 0.235334 0.166548
H8    H     H_    0.261522 0.282968 0.835069 0.091584
H9    H     H_    0.665812 0.592988 0.265796 0.125835
H10   H     H_    0.430363 0.989010 0.790640 0.107165
H11   H     H_    0.587944 0.023965 0.198240 0.064608
H12   H     H_    0.511256 0.240069 0.875873 0.116683
N1    N     N_R   0.585750 0.204560 0.560800 -0.272873
N2    N     N_R   0.414250 0.795440 0.439200 -0.274286
O1    O     O_R   0.454850 0.022100 0.338110 -0.575513
O2    O     O_2   0.057028 0.616699 0.307912 -0.468955
O3    O     O_2   0.320334 0.409724 0.723370 -0.433820
O4    O     O_2   0.746721 0.718609 0.164365 -0.507567
O5    O     O_2   0.597327 0.010174 0.880559 -0.495043
O6    O     O_2   0.407814 0.984102 0.135646 -0.457851
O7    O     O_2   0.414087 0.103802 0.939871 -0.476399
O8    O     O_2   0.459218 0.758658 0.125850 -0.595829
O9    O     O_2   0.740800 0.337643 0.836216 -0.563936
O10   O     O_2   0.204329 0.503197 0.209901 -0.405456
O11   O     O_R   0.545150 0.977900 0.661890 -0.580094
O12   O     O_R   0.512700 0.160150 0.379180 -0.513259
O13   O     O_R   0.487300 0.839850 0.620820 -0.512209
O14   O     O_R   0.287930 0.931000 0.479440 -0.494715
O15   O     O_R   0.712070 0.069000 0.520560 -0.493263
O16   O     O_R   0.345780 0.069050 0.520520 -0.585990
O17   O     O_R   0.654220 0.930950 0.479480 -0.587330
O18   O     O_2   0.937746 0.384811 0.696966 -0.491501

loop_
_geom_bond_atom_site_label_1
_geom_bond_atom_site_label_2
_ccdc_geom_bond_type
C1    O1    A    
C38   C40   A    
C23   C45   A    
C27   C29   S    
C34   C37   A    
C14   C18   A    
Cu2   O12   S    
C8    C43   S    
C6    C55   A    
C9    F9    S    
C39   C41   A    
C38   C49   S    
C27   C33   S    
C15   C19   A    
C18   C25   A    
C43   O2    D    
C49   H12   S    
C24   C26   A    
C50   H2    S    
C11   C14   A    
C7    C42   S    
C43   H7    S    
Cu1   O13   S    
Cu1   N2    S    
C40   C48   S    
C47   H10   S    
C12   C37   S    
C19   C26   A    
C17   O15   A    
C12   O13   A    
C11   H5    S    
C33   F14   S    
C9    N1    A    
C23   F4    S    
C39   C55   A    
C20   C24   A    
C45   C56   A    
C22   C25   A    
C13   N2    A    
C31   C33   S    
Cu2   O16   S    
C10   F8    S    
C21   C22   A    
C4    C56   A    
Cu2   O11   S    
C24   F11   S    
C53   C55   A    
Cu1   O17   S    
C8    C19   A    
C32   C35   S    
C14   C20   A    
C5    C54   A    
C36   C40   A    
C28   C35   S    
C4    C6    A    
C50   O8    D    
C3    C5    A    
Cu1   O14   S    
C34   F3    S    
Cu1   O1    S    
C35   F2    S    
C25   C51   S    
C26   C52   S    
C46   H9    S    
C38   C54   A    
C44   H8    S    
C7    C18   A    
C41   C47   S    
Cu2   O15   S    
C22   F10   S    
C12   O11   A    
C27   F12   S    
C16   O16   A    
C5    C44   S    
C13   H1    S    
C45   C54   A    
C42   H6    S    
C13   C15   A    
C17   C31   S    
C28   F13   S    
Cu2   N1    S    
C7    C9    A    
C4    F6    S    
C10   N2    A    
C6    C46   S    
C30   C33   S    
C27   C32   S    
C47   O5    D    
C28   C31   S    
C16   O14   A    
C51   H3    S    
C52   H4    S    
C2    C53   A    
C42   O18   D    
C1    O12   A    
C46   O4    D    
C3    F5    S    
C16   C32   S    
C29   C35   S    
C48   H11   S    
C28   C30   S    
C2    C3    A    
C17   O17   A    
C29   C31   S    
C2    C56   A    
C30   C32   S    
Cu1   Cu2   S    
C11   N1    A    
C52   O10   D    
C37   C41   A    
C30   F7    S    
C15   C21   A    
C39   C50   S    
C20   C21   A    
C34   C53   A    
C8    C10   A    
C23   C36   A    
C48   O6    D    
C29   F1    S    
C49   O7    D    
C44   O3    D    
C1    C36   S    
C51   O9    D    
