data_mof_unit_31940.cif
_audit_creation_date              2012-12-10T18:59:12-0500
_audit_creation_method            fapswitch 2.2
_symmetry_space_group_name_H-M    P1
_symmetry_Int_Tables_number       1
_space_group_crystal_system       triclinic
_cell_length_a                    9.862416
_cell_length_b                    10.540465
_cell_length_c                    16.836209
_cell_angle_alpha                 88.769905
_cell_angle_beta                  92.882538
_cell_angle_gamma                 89.063821
_cell_volume                      1747.3156336

loop_
_atom_site_label
_atom_site_type_symbol
_atom_type_description
_atom_site_fract_x
_atom_site_fract_y
_atom_site_fract_z
_atom_type_partial_charge
C1    C     C_R   0.500536 0.260399 0.489050 0.896506
C2    C     C_R   0.499464 0.739601 0.510949 0.896498
C3    C     C_R   0.373298 0.943289 0.510973 -0.123960
C4    C     C_R   0.626701 0.056712 0.489025 -0.123956
C5    C     C_R   0.497039 0.875148 0.524324 -0.183259
C6    C     C_R   0.502960 0.124852 0.475674 -0.183259
C7    C     C_R   0.066220 0.581089 0.450633 0.315863
C8    C     C_R   0.933780 0.418911 0.549367 0.315863
C9    C     C_R   0.922383 0.580783 0.450470 0.334784
C10   C     C_R   0.077617 0.419217 0.549530 0.334775
C11   C     C_R   0.515491 0.501231 0.652792 0.896795
C12   C     C_R   0.484509 0.498769 0.347207 0.896794
C13   C     C_R   0.517611 0.502380 0.738508 -0.171885
C14   C     C_R   0.482387 0.497630 0.261491 -0.171899
C15   C     C_R   0.431680 0.587382 0.777004 -0.068883
C16   C     C_R   0.568341 0.412656 0.222990 -0.068887
C17   C     C_R   0.413274 0.568663 0.858869 -0.123949
C18   C     C_R   0.586732 0.431386 0.141124 -0.123942
C19   C     C_R   0.482452 0.466217 0.899884 0.132038
C20   C     C_R   0.517518 0.533817 0.100114 0.132055
C21   C     C_R   0.564284 0.381674 0.859759 0.406988
C22   C     C_R   0.435663 0.618333 0.140243 0.406998
C23   C     C_R   0.583682 0.401492 0.779758 -0.179421
C24   C     C_R   0.416280 0.598503 0.220245 -0.179419
C25   C     C_R   0.377875 0.062327 0.473716 0.011365
C26   C     C_R   0.622125 0.937674 0.526283 0.011369
H1    H     H_    0.644640 0.333991 0.748657 0.223270
H2    H     H_    0.355304 0.665984 0.251350 0.223289
N1    N     N_2   0.478186 0.452165 0.982831 -0.151303
N2    N     N_2   0.521774 0.547876 0.017167 -0.151323
N3    N     N_R   0.857210 0.499970 0.500020 -0.199898
N4    N     N_R   0.142790 0.500030 0.499980 -0.199898
O1    O     O_R   0.614620 0.316750 0.500010 -0.632216
O2    O     O_R   0.385380 0.683250 0.499990 -0.632219
O3    O     O_R   0.385290 0.316780 0.500000 -0.535860
O4    O     O_R   0.614710 0.683220 0.500000 -0.535860
O5    O     O_R   0.627460 0.498830 0.616130 -0.541968
O6    O     O_R   0.372540 0.501170 0.383870 -0.541968
O7    O     O_R   0.398130 0.498850 0.616130 -0.597492
O8    O     O_R   0.601870 0.501150 0.383870 -0.597495
Zn1   Zn    Zn3+2 0.653130 0.499980 0.500000 1.078004
Zn2   Zn    Zn3+2 0.346870 0.500020 0.500000 1.078003
C27   C     C_2   0.639415 0.308073 0.270082 0.574208
H3    H     H_    0.586487 0.257999 0.315862 0.001199
O9    O     O_2   0.758676 0.281827 0.261278 -0.507849
C28   C     C_2   0.360640 0.691977 0.729905 0.574142
H4    H     H_    0.413583 0.742023 0.684119 0.001224
O10   O     O_2   0.241390 0.718269 0.738713 -0.507870
C29   C     C_2   0.678103 0.347738 0.097144 0.640477
H5    H     H_    0.738480 0.388307 0.051150 0.091965
O11   O     O_2   0.682057 0.233021 0.108999 -0.445016
C30   C     C_2   0.321922 0.652339 0.902841 0.640496
H6    H     H_    0.261506 0.611786 0.948822 0.091985
O12   O     O_2   0.318025 0.767059 0.890994 -0.445003
Cl1   Cl    Cl    0.643540 0.248898 0.908399 -0.467136
Cl2   Cl    Cl    0.356358 0.751090 0.091610 -0.467171
C31   C     C_2   0.258692 0.112688 0.423516 0.545560
H7    H     H_    0.161006 0.067465 0.424049 0.163439
O13   O     O_2   0.270750 0.200431 0.375947 -0.561717
C32   C     C_2   0.741306 0.887313 0.576483 0.545554
H8    H     H_    0.838992 0.932537 0.575951 0.163444
O14   O     O_2   0.729248 0.799571 0.624053 -0.561730
C33   C     C_2   0.245892 0.897719 0.546272 0.514256
H9    H     H_    0.241430 0.804623 0.574185 0.107087
O15   O     O_2   0.146743 0.967464 0.551007 -0.522126
C34   C     C_2   0.754107 0.102283 0.453726 0.514244
H10   H     H_    0.758566 0.195377 0.425810 0.107070
O16   O     O_2   0.853261 0.032542 0.448996 -0.522138
Cl3   Cl    Cl    0.146314 0.687336 0.386812 -0.488865
Cl4   Cl    Cl    0.853686 0.312665 0.613189 -0.488849
Cl5   Cl    Cl    0.827432 0.684877 0.385281 -0.430962
Cl6   Cl    Cl    0.172568 0.315123 0.614719 -0.430959

loop_
_geom_bond_atom_site_label_1
_geom_bond_atom_site_label_2
_ccdc_geom_bond_type
C7    Cl3   S    
C34   O16   D    
C27   H3    S    
C33   O15   D    
C12   O8    A    
N1    N2    D    
C14   C16   A    
C3    C33   S    
C5    C26   A    
C11   C13   S    
C4    C26   A    
O2    Zn2   S    
C12   C14   S    
C3    C5    A    
O1    Zn1   S    
C7    C9    A    
C2    O2    A    
C13   C15   A    
C34   H10   S    
C31   H7    S    
C1    O1    A    
C20   N2    S    
C12   O6    A    
C27   O9    D    
C16   C27   S    
C13   C23   A    
O4    Zn1   S    
C26   C32   S    
C25   C31   S    
C17   C30   S    
C16   C18   A    
O8    Zn1   S    
C19   C21   A    
C10   Cl6   S    
C20   C22   A    
O6    Zn2   S    
O7    Zn2   S    
C18   C20   A    
C23   H1    S    
C21   C23   A    
O5    Zn1   S    
C11   O7    A    
C29   H5    S    
C22   C24   A    
C31   O13   D    
C2    C5    S    
C9    N3    A    
C2    O4    A    
C33   H9    S    
C6    C25   A    
C28   O10   D    
C10   N4    A    
C3    C25   A    
C30   H6    S    
C1    O3    A    
C24   H2    S    
C32   O14   D    
C4    C6    A    
C14   C24   A    
C1    C6    S    
C11   O5    A    
O3    Zn2   S    
N4    Zn2   S    
C28   H4    S    
C21   Cl1   S    
C22   Cl2   S    
C7    N4    A    
N3    Zn1   S    
C15   C28   S    
C17   C19   A    
C4    C34   S    
C15   C17   A    
C8    N3    A    
C8    Cl4   S    
C8    C10   A    
C9    Cl5   S    
C18   C29   S    
C30   O12   D    
C32   H8    S    
C29   O11   D    
C19   N1    S    
