data_mof_unit_28980.cif
_audit_creation_date              2012-12-10T17:04:00-0500
_audit_creation_method            fapswitch 2.2
_symmetry_space_group_name_H-M    P1
_symmetry_Int_Tables_number       1
_space_group_crystal_system       triclinic
_cell_length_a                    18.938914
_cell_length_b                    18.77345
_cell_length_c                    18.870887
_cell_angle_alpha                 109.933224
_cell_angle_beta                  110.091681
_cell_angle_gamma                 109.968935
_cell_volume                      5061.75442317

loop_
_atom_site_label
_atom_site_type_symbol
_atom_type_description
_atom_site_fract_x
_atom_site_fract_y
_atom_site_fract_z
_atom_type_partial_charge
C1    C     C_R   0.997624 0.116996 0.620576 0.861314
C2    C     C_R   0.180274 0.168403 0.418366 0.069631
C3    C     C_R   0.315487 0.310055 0.497988 -0.164172
C4    C     C_R   0.330014 0.318569 0.579805 0.012517
C5    C     C_R   0.261996 0.259839 0.581406 0.076587
C6    C     C_R   0.188063 0.184412 0.500321 -0.181771
C7    C     C_R   0.411225 0.384240 0.660194 -0.206091
C8    C     C_R   0.421008 0.397279 0.741098 0.450565
C9    C     C_R   0.349438 0.345660 0.743064 -0.223223
C10   C     C_R   0.270594 0.277940 0.664339 -0.205551
C11   C     C_R   0.992886 0.097108 0.767093 -0.146131
C12   C     C_R   0.120487 0.120560 0.501092 0.849307
C13   C     C_R   0.000264 0.094004 0.841946 -0.070109
C14   C     C_R   0.013909 0.165112 0.912342 -0.109379
C15   C     C_R   0.017152 0.238201 0.906832 -0.169568
C16   C     C_R   0.006232 0.241020 0.830028 0.091462
C17   C     C_R   0.998585 0.171895 0.761278 0.102062
C18   C     C_R   0.995908 0.179706 0.688465 -0.106060
C19   C     C_R   0.996567 0.251641 0.681966 -0.199047
C20   C     C_R   0.000700 0.317266 0.747478 -0.147448
C21   C     C_R   0.004344 0.311819 0.820339 -0.113740
C22   C     C_R   0.753909 0.703480 0.337386 -0.210718
C23   C     C_R   0.002175 0.882717 0.379566 0.834814
C24   C     C_R   0.686218 0.625262 0.257902 -0.222954
C25   C     C_R   0.610796 0.569902 0.252484 0.467666
C26   C     C_R   0.605113 0.591529 0.328213 -0.200575
C27   C     C_R   0.675080 0.668545 0.410622 -0.001005
C28   C     C_R   0.747650 0.727349 0.413566 0.105888
C29   C     C_R   0.811470 0.809297 0.492527 -0.139496
C30   C     C_R   0.801341 0.835401 0.564592 -0.274291
C31   C     C_R   0.729729 0.779646 0.562497 0.377192
C32   C     C_R   0.672359 0.691054 0.489230 -0.246215
C33   C     C_R   0.168803 0.915189 0.390777 -0.174133
C34   C     C_R   0.879587 0.876791 0.496165 0.880906
C35   C     C_R   0.248674 0.923939 0.402308 -0.113866
C36   C     C_R   0.249929 0.853388 0.347281 -0.111261
C37   C     C_R   0.171191 0.774952 0.278464 -0.162146
C38   C     C_R   0.089222 0.766099 0.263314 0.092503
C39   C     C_R   0.088322 0.835070 0.323117 0.094515
C40   C     C_R   0.006555 0.821921 0.312881 -0.104921
C41   C     C_R   0.927326 0.746168 0.241230 -0.196919
C42   C     C_R   0.927928 0.680571 0.180463 -0.188240
C43   C     C_R   0.007771 0.689791 0.191125 -0.107071
C44   C     C_R   0.622918 0.503541 0.620928 0.875390
C45   C     C_R   0.113263 0.087172 0.337847 -0.145492
C46   C     C_R   0.379126 0.378967 0.498173 0.837543
C47   C     C_R   0.381568 0.501039 0.379716 0.854047
C48   C     C_R   0.615357 0.621554 0.496165 0.868172
C49   C     C_R   0.879316 0.499140 0.879688 0.954468
C50   C     C_R   0.002327 0.379402 0.882983 0.903163
C51   C     C_R   0.119925 0.492405 0.112633 0.868684
C52   C     C_R   0.003332 0.621047 0.122650 0.836211
C53   C     C_R   0.774100 0.670594 0.781334 -0.104317
C54   C     C_R   0.839318 0.748205 0.862442 -0.096818
C55   C     C_R   0.892339 0.744105 0.931374 -0.143448
C56   C     C_R   0.101684 0.076677 0.257260 -0.134854
C57   C     C_R   0.882734 0.662855 0.918108 -0.115307
C58   C     C_R   0.818917 0.583680 0.834961 0.057088
C59   C     C_R   0.760346 0.587065 0.767918 0.098236
C60   C     C_R   0.690802 0.506698 0.688872 -0.176100
C61   C     C_R   0.682166 0.425687 0.674718 -0.244569
C62   C     C_R   0.742828 0.421721 0.737035 0.449274
C63   C     C_R   0.812021 0.501212 0.817012 -0.247624
C64   C     C_R   0.200405 0.392784 0.320628 -0.174475
C65   C     C_R   0.113540 0.326611 0.281006 -0.127486
C66   C     C_R   0.050851 0.303487 0.198882 -0.148545
C67   C     C_R   0.156390 0.146164 0.254984 -0.132635
C68   C     C_R   0.073698 0.350250 0.158869 -0.126967
C69   C     C_R   0.160199 0.423418 0.201553 0.078679
C70   C     C_R   0.225084 0.438679 0.279328 0.099226
C71   C     C_R   0.313523 0.496869 0.312019 -0.147818
C72   C     C_R   0.338337 0.538971 0.269617 -0.241797
C73   C     C_R   0.275647 0.530725 0.197299 0.375275
C74   C     C_R   0.185414 0.479983 0.168431 -0.301142
C75   C     C_R   0.225484 0.224562 0.333488 -0.159940
C76   C     C_R   0.240952 0.235247 0.416673 0.066866
H1    H     H_    0.981976 0.040126 0.714154 0.147918
H2    H     H_    0.021605 0.163522 0.971253 0.137398
H3    H     H_    0.847460 0.902165 0.621050 0.176413
H4    H     H_    0.810545 0.745527 0.338447 0.149188
H5    H     H_    0.691779 0.608986 0.199976 0.168384
H6    H     H_    0.544131 0.549972 0.321056 0.184466
H7    H     H_    0.864814 0.736912 0.233340 0.161096
H8    H     H_    0.170871 0.971982 0.434530 0.154090
H9    H     H_    0.309816 0.985363 0.454665 0.164300
H10   H     H_    0.312118 0.859602 0.357590 0.167978
H11   H     H_    0.175707 0.721549 0.238549 0.170771
H12   H     H_    0.865699 0.622424 0.124516 0.180541
H13   H     H_    0.627305 0.364934 0.614026 0.206690
H14   H     H_    0.735859 0.676825 0.729089 0.192280
H15   H     H_    0.848377 0.811598 0.871951 0.174760
H16   H     H_    0.049544 0.014740 0.196403 0.141185
H17   H     H_    0.941855 0.804142 0.994945 0.140615
H18   H     H_    0.925198 0.662913 0.973777 0.141832
H19   H     H_    0.407608 0.578015 0.293145 0.176039
H20   H     H_    0.248190 0.406703 0.383014 0.129720
H21   H     H_    0.095582 0.290954 0.312514 0.156819
H22   H     H_    0.146149 0.138938 0.192255 0.147002
H23   H     H_    0.265515 0.275952 0.327108 0.162814
H24   H     H_    0.468425 0.424859 0.661113 0.181756
H25   H     H_    0.217153 0.240300 0.669804 0.179750
O1    O     O_R   0.051710 0.091600 0.643330 -0.632162
O2    O     O_R   0.591640 0.448340 0.539940 -0.610487
O3    O     O_R   0.408370 0.460150 0.551730 -0.615340
O4    O     O_R   0.408410 0.356720 0.448320 -0.622901
O5    O     O_R   0.408360 0.551760 0.460120 -0.605898
O6    O     O_R   0.408400 0.448330 0.356700 -0.616963
O7    O     O_R   0.591600 0.643380 0.551740 -0.533605
O8    O     O_R   0.591640 0.539950 0.448320 -0.625099
O9    O     O_R   0.960070 0.551730 0.908390 -0.634431
O10   O     O_R   0.856640 0.448280 0.908400 -0.549352
O11   O     O_R   0.051720 0.460120 0.908370 -0.585956
O12   O     O_R   0.948270 0.091620 0.539910 -0.604558
O13   O     O_R   0.948290 0.356670 0.908380 -0.609560
O14   O     O_R   0.143340 0.551720 0.091580 -0.533616
O15   O     O_R   0.039910 0.448270 0.091590 -0.652211
O16   O     O_R   0.051690 0.643330 0.091600 -0.639358
O17   O     O_R   0.948270 0.539880 0.091610 -0.609921
O18   O     O_R   0.143340 0.091610 0.551710 -0.623927
O19   O     O_R   0.039890 0.091630 0.448290 -0.619394
O20   O     O_R   0.051730 0.908380 0.460090 -0.611767
O21   O     O_R   0.948290 0.908400 0.356670 -0.628978
O22   O     O_R   0.960110 0.908370 0.551710 -0.621733
O23   O     O_R   0.856660 0.908390 0.448290 -0.603568
O24   O     O_R   0.591600 0.551770 0.643360 -0.604968
Zn1   Zn    Zn3+2 0.069070 0.999990 0.569050 0.985835
Zn2   Zn    Zn3+2 0.930930 0.000010 0.430950 0.998559
Zn3   Zn    Zn3+2 0.499980 0.569110 0.569080 1.097059
Zn4   Zn    Zn3+2 0.500030 0.430990 0.430980 1.021306
Zn5   Zn    Zn3+2 0.069050 0.569070 0.999980 1.074195
Zn6   Zn    Zn3+2 0.930930 0.430930 0.000000 1.049154
H26   H     H_    0.354808 0.356352 0.805253 0.197569
H27   H     H_    0.996223 0.036565 0.845635 0.147841
H28   H     H_    0.029555 0.292650 0.963567 0.126055
H29   H     H_    0.999645 0.372003 0.740632 0.187127
S1    S     S_3+6 0.523070 0.474445 0.150058 0.073453
O25   O     O_2   0.449341 0.423971 0.159449 -0.261474
O26   O     O_2   0.489217 0.501361 0.085413 -0.235798
O27   O     O_3   0.559058 0.408521 0.111499 -0.508014
H30   H     H_    0.594198 0.438050 0.090661 0.369454
H31   H     H_    0.069724 0.030490 0.335895 0.148445
S2    S     S_3+6 0.710241 0.829211 0.647047 0.047087
O28   O     O_2   0.730783 0.798141 0.710732 -0.300180
O29   O     O_2   0.767348 0.928621 0.697278 -0.293316
O30   O     O_3   0.604343 0.801484 0.602598 -0.487184
H32   H     H_    0.593603 0.817987 0.557033 0.348345
S3    S     S_3+6 0.730895 0.316388 0.710755 0.048496
O31   O     O_2   0.706320 0.288772 0.768817 -0.245117
O32   O     O_2   0.660365 0.247762 0.615787 -0.291944
O33   O     O_3   0.826404 0.322859 0.727478 -0.590749
H33   H     H_    0.814281 0.261901 0.709814 0.389230
H34   H     H_    0.984305 0.248647 0.165634 0.149873
H35   H     H_    0.023365 0.324455 0.092616 0.157021
S4    S     S_3+6 0.314234 0.578447 0.141627 0.077245
O34   O     O_2   0.319872 0.666341 0.170011 -0.253804
O35   O     O_2   0.404245 0.593364 0.164121 -0.243128
O36   O     O_3   0.245372 0.511288 0.031645 -0.503216
H36   H     H_    0.237735 0.452532 0.018853 0.342787
S5    S     S_3+6 0.523375 0.478764 0.839162 0.045478
O37   O     O_2   0.589629 0.452086 0.838791 -0.250186
O38   O     O_2   0.553558 0.565984 0.843181 -0.289705
O39   O     O_3   0.516568 0.489790 0.928454 -0.496045
H37   H     H_    0.482789 0.519793 0.932140 0.376979
H38   H     H_    0.995037 0.257624 0.626371 0.169401

loop_
_geom_bond_atom_site_label_1
_geom_bond_atom_site_label_2
_ccdc_geom_bond_type
C8    C9    A    
C66   C68   A    
C16   C21   A    
C49   C63   S    
C11   C13   A    
C73   C74   A    
S3    O31   D    
C51   C74   S    
O6    Zn4   S    
O30   H32   S    
C53   C59   A    
O19   Zn2   S    
C7    C8    A    
C23   O20   A    
C15   H28   S    
C48   O7    A    
C53   C54   A    
C67   C75   A    
C1    C18   S    
C33   C39   A    
C22   C24   A    
C28   C29   A    
S3    O32   D    
C37   C38   A    
C44   C60   S    
C4    C7    A    
S5    O37   D    
C6    C12   S    
C30   C31   A    
C43   C52   S    
C15   C16   A    
C41   H7    S    
C46   O4    A    
O5    Zn3   S    
C18   C19   A    
C41   C42   A    
O21   Zn2   S    
C25   S1    S    
O17   Zn6   S    
C11   H1    S    
C67   H22   S    
C12   O19   A    
C72   H19   S    
O36   H36   S    
C11   C17   A    
C35   C36   A    
C45   C56   A    
C16   C17   A    
C73   S4    S    
O24   Zn3   S    
S5    O38   D    
C70   C71   A    
C64   C70   A    
C9    C10   A    
S4    O35   D    
C61   C62   A    
C55   H17   S    
C49   O10   A    
C52   O16   A    
C48   O8    A    
C59   C60   A    
C26   H6    S    
C22   C28   A    
C13   C14   A    
C45   H31   S    
C32   C48   S    
S2    O30   S    
C2    C6    A    
C1    O12   A    
S1    O27   S    
C50   O11   A    
C21   C50   S    
C44   O2    A    
C61   H13   S    
C23   O21   A    
C2    C45   A    
C38   C39   A    
C44   O24   A    
C7    H24   S    
S3    O33   S    
C24   C25   A    
C64   H20   S    
S4    O36   S    
S1    O26   D    
C68   H35   S    
C39   C40   A    
C68   C69   A    
O22   Zn1   S    
O4    Zn4   S    
C36   H10   S    
C25   C26   A    
C46   O3    A    
C29   C34   S    
C51   O14   A    
C60   C61   A    
C50   O13   A    
C75   C76   A    
O13   Zn6   S    
C66   H34   S    
C29   C30   A    
O16   Zn5   S    
C12   O18   A    
C31   C32   A    
O3    Zn3   S    
C24   H5    S    
C56   H16   S    
C47   O5    A    
C62   C63   A    
C75   H23   S    
C17   C18   A    
C26   C27   A    
S5    O39   S    
C69   C74   A    
O7    Zn3   S    
C3    C76   A    
O2    Zn4   S    
C47   C71   S    
S4    O34   D    
O23   Zn2   S    
C30   H3    S    
O10   Zn6   S    
C40   C41   A    
C47   O6    A    
C62   S3    S    
C55   C57   A    
O8    Zn4   S    
C38   C43   A    
C42   H12   S    
C42   C43   A    
C54   H15   S    
C3    C4    A    
C53   H14   S    
C2    C76   A    
O39   H37   S    
C9    H26   S    
C58   C63   A    
C54   C55   A    
C36   C37   A    
C34   O23   A    
C27   C32   A    
O33   H33   S    
C13   H27   S    
C37   H11   S    
C10   H25   S    
C14   C15   A    
S1    O25   D    
O1    Zn1   S    
O27   H30   S    
O12   Zn2   S    
C56   C67   A    
C3    C46   S    
C51   O15   A    
C57   H18   S    
C64   C65   A    
C19   C20   A    
C58   C59   A    
C65   H21   S    
C5    C10   A    
C35   H9    S    
C57   C58   A    
C5    C6    A    
O15   Zn6   S    
C31   S2    S    
C72   C73   A    
C4    C5    A    
C33   C35   A    
O9    Zn5   S    
S2    O29   D    
C19   H38   S    
C14   H2    S    
C20   H29   S    
C69   C70   A    
C33   H8    S    
C22   H4    S    
O18   Zn1   S    
O20   Zn1   S    
C71   C72   A    
C20   C21   A    
C65   C66   A    
C27   C28   A    
C34   O22   A    
S2    O28   D    
O11   Zn5   S    
C8    S5    S    
C1    O1    A    
C23   C40   S    
C49   O9    A    
O14   Zn5   S    
C52   O17   A    
