data_mof_unit_64374.cif
_audit_creation_date              2012-12-10T16:35:13-0500
_audit_creation_method            fapswitch 2.2
_symmetry_space_group_name_H-M    P1
_symmetry_Int_Tables_number       1
_space_group_crystal_system       triclinic
_cell_length_a                    10.86369
_cell_length_b                    10.863378
_cell_length_c                    10.850785
_cell_angle_alpha                 80.456607
_cell_angle_beta                  98.733556
_cell_angle_gamma                 90.311128
_cell_volume                      1247.94893228

loop_
_atom_site_label
_atom_site_type_symbol
_atom_type_description
_atom_site_fract_x
_atom_site_fract_y
_atom_site_fract_z
_atom_type_partial_charge
C1    C     C_R   0.834819 0.469660 0.530803 0.553084
C2    C     C_2   0.465798 0.027918 0.537556 -0.012012
C3    C     C_2   0.529429 0.968372 0.467199 -0.080355
C4    C     C_2   0.027811 0.541699 0.457309 -0.008104
C5    C     C_2   0.385283 0.963690 0.628414 0.226022
C6    C     C_2   0.964319 0.640629 0.354562 0.231924
C7    C     C_2   0.967844 0.464367 0.537259 -0.077552
C8    C     C_2   0.466505 0.539362 0.023277 -0.109154
C9    C     C_2   0.532536 0.461858 0.974034 -0.098491
C10   C     C_R   0.163428 0.528190 0.471638 0.483251
C11   C     C_R   0.523591 0.472476 0.839108 0.505336
C12   C     C_R   0.476035 0.527976 0.159918 0.518536
C13   C     C_R   0.525925 0.835258 0.473183 0.575126
C14   C     C_R   0.476148 0.163750 0.524533 0.464911
H1    H     H_    0.585625 0.018836 0.401530 0.106312
H2    H     H_    0.017807 0.394404 0.610737 0.099025
H3    H     H_    0.405546 0.611048 0.962471 0.126928
H4    H     H_    0.593919 0.389460 0.032790 0.126305
H5    H     H_    0.340926 0.017559 0.685775 0.137239
H6    H     H_    0.019043 0.697855 0.292163 0.137894
O1    O     O_3   0.500000 0.500000 0.500000 -0.449564
O2    O     O_R   0.597340 0.765700 0.560080 -0.500640
O3    O     O_R   0.548200 0.222430 0.451790 -0.547839
O4    O     O_R   0.441590 0.789440 0.401000 -0.514639
O5    O     O_R   0.412860 0.222430 0.587130 -0.560955
O6    O     O_2   0.366533 0.851730 0.640593 -0.506985
O7    O     O_2   0.851992 0.660303 0.337780 -0.504354
O8    O     O_R   0.441590 0.410520 0.779910 -0.534084
O9    O     O_R   0.548210 0.443940 0.230290 -0.530346
O10   O     O_R   0.787780 0.544200 0.591150 -0.519287
O11   O     O_R   0.222430 0.601350 0.398650 -0.548930
O12   O     O_R   0.767360 0.410530 0.454140 -0.516751
O13   O     O_R   0.222430 0.443930 0.556060 -0.538434
O14   O     O_R   0.597340 0.544190 0.781580 -0.523149
O15   O     O_R   0.412870 0.601350 0.208220 -0.538189
Zn1   Zn    Zn3+2 0.396020 0.396030 0.603970 0.951970
Zn2   Zn    Zn3+2 0.618560 0.587010 0.606350 1.013866
Zn3   Zn    Zn3+2 0.396030 0.620930 0.379070 0.993370
Zn4   Zn    Zn3+2 0.589390 0.396030 0.410610 0.968714

loop_
_geom_bond_atom_site_label_1
_geom_bond_atom_site_label_2
_ccdc_geom_bond_type
C14   O3    A    
O4    Zn3   S    
C5    H5    S    
C12   O9    A    
O14   Zn2   S    
C6    H6    S    
C8    H3    S    
O1    Zn4   S    
O11   Zn3   S    
C8    C12   S    
O9    Zn4   S    
C2    C3    D    
C3    H1    S    
O1    Zn1   S    
O10   Zn2   S    
C12   O15   A    
C9    C11   S    
C11   O8    A    
C4    C7    D    
O3    Zn4   S    
C7    H2    S    
C13   O2    A    
C10   O13   A    
C11   O14   A    
C14   O5    A    
C2    C14   S    
C2    C5    S    
O5    Zn1   S    
C4    C10   S    
C5    O6    D    
C9    H4    S    
O13   Zn1   S    
O1    Zn2   S    
O8    Zn1   S    
C4    C6    S    
O12   Zn4   S    
O15   Zn3   S    
C1    O10   A    
C1    C7    S    
O2    Zn2   S    
C10   O11   A    
C1    O12   A    
O1    Zn3   S    
C6    O7    D    
C13   O4    A    
C8    C9    D    
C3    C13   S    
