data_mof_unit_67601.cif
_audit_creation_date              2012-12-10T18:04:30-0500
_audit_creation_method            fapswitch 2.2
_symmetry_space_group_name_H-M    P1
_symmetry_Int_Tables_number       1
_space_group_crystal_system       triclinic
_cell_length_a                    10.770241
_cell_length_b                    9.747211
_cell_length_c                    9.07969
_cell_angle_alpha                 88.770589
_cell_angle_beta                  95.108986
_cell_angle_gamma                 91.919163
_cell_volume                      948.701307423

loop_
_atom_site_label
_atom_site_type_symbol
_atom_type_description
_atom_site_fract_x
_atom_site_fract_y
_atom_site_fract_z
_atom_type_partial_charge
C1    C     C_R   0.263012 0.498064 0.496521 0.860259
C2    C     C_R   0.055085 0.544178 0.370872 -0.093426
C3    C     C_R   0.871875 0.505763 0.505405 -0.196749
C4    C     C_R   0.128204 0.493353 0.495160 -0.188136
C5    C     C_R   0.413942 0.072642 0.408794 0.148039
C6    C     C_R   0.591852 0.930119 0.580369 0.159529
C7    C     C_R   0.579077 0.074362 0.597364 0.143335
C8    C     C_R   0.418366 0.924752 0.403231 0.155379
C9    C     C_2   0.156776 0.405656 0.754546 0.899515
C10   C     C_2   0.847140 0.610103 0.250159 0.873200
C11   C     C_2   0.887556 0.402612 0.764992 0.833217
C12   C     C_R   0.737062 0.501833 0.503209 0.850195
C13   C     C_2   0.113328 0.576163 0.231252 0.827243
C14   C     C_3   0.303275 0.141545 0.323538 -0.361288
C15   C     C_3   0.183153 0.116971 0.402844 -0.352903
C16   C     C_3   0.067401 0.159046 0.305220 -0.765894
C17   C     C_3   0.725854 0.883319 0.605691 -0.348543
C18   C     C_3   0.757118 0.809164 0.754928 -0.348806
C19   C     C_3   0.897760 0.795061 0.787597 -0.741822
C20   C     C_3   0.646546 0.140480 0.733889 -0.345182
C21   C     C_3   0.572101 0.116316 0.869345 -0.386971
C22   C     C_3   0.642119 0.175242 0.008839 -0.794446
C23   C     C_R   0.500308 0.500912 0.221311 0.875095
C24   C     C_3   0.345032 0.854005 0.272619 -0.332741
C25   C     C_3   0.408579 0.880714 0.128283 -0.419296
C26   C     C_3   0.324991 0.835294 0.992300 -0.737616
C27   C     C_R   0.500487 0.499191 0.778766 0.906152
C28   C     C_1   0.500374 0.501404 0.065682 -0.189107
C29   C     C_1   0.500367 0.499102 0.934372 -0.141264
C30   C     C_R   0.074386 0.445317 0.622509 -0.068442
C31   C     C_R   0.926396 0.555413 0.378460 -0.074924
C32   C     C_R   0.944812 0.449306 0.628046 -0.087844
Cu1   Cu    Cu3+1 0.500000 0.640660 0.500000 0.955831
Cu2   Cu    Cu3+1 0.500000 0.359340 0.500000 0.945218
H1    H     H_    0.238593 0.254349 0.878756 0.325691
H2    H     H_    0.319714 0.250558 0.301767 0.272317
H3    H     H_    0.287321 0.104863 0.208960 0.174367
H4    H     H_    0.937037 0.741881 0.696208 0.256703
H5    H     H_    0.944400 0.897962 0.801266 0.254661
H6    H     H_    0.917344 0.734538 0.891544 0.291686
H7    H     H_    0.722248 0.866412 0.846181 0.213009
H8    H     H_    0.712510 0.705890 0.755209 0.274421
H9    H     H_    0.753467 0.829863 0.509375 0.252399
H10   H     H_    0.791831 0.972664 0.597770 0.160178
H11   H     H_    0.727216 0.116216 0.040116 0.252908
H12   H     H_    0.765465 0.579285 0.045990 0.346583
H13   H     H_    0.669328 0.284578 0.990711 0.289034
H14   H     H_    0.581951 0.168756 0.101859 0.245785
H15   H     H_    0.479166 0.162681 0.850737 0.250580
H16   H     H_    0.556172 0.004523 0.887647 0.208137
H17   H     H_    0.740572 0.100834 0.762678 0.191558
H18   H     H_    0.667163 0.249234 0.715482 0.265229
H19   H     H_    0.305633 0.723354 0.997514 0.283836
H20   H     H_    0.235665 0.889858 0.984734 0.268490
H21   H     H_    0.372257 0.858970 0.890623 0.233452
H22   H     H_    0.432152 0.991158 0.113823 0.207864
H23   H     H_    0.891711 0.272755 0.941550 0.344332
H24   H     H_    0.498002 0.826986 0.132296 0.260782
H25   H     H_    0.330551 0.744335 0.289148 0.255016
H26   H     H_    0.247580 0.887474 0.258382 0.195808
H27   H     H_    0.239980 0.522432 0.094752 0.354903
H28   H     H_    0.076277 0.268039 0.269651 0.286542
H29   H     H_    0.054176 0.093931 0.205765 0.260433
H30   H     H_    0.983827 0.145785 0.368108 0.244100
H31   H     H_    0.170618 0.007183 0.434893 0.210880
H32   H     H_    0.188990 0.174630 0.507075 0.272979
N1    N     N_R   0.500000 0.852070 0.500000 -0.199662
N2    N     N_R   0.500000 0.147930 0.500000 -0.203535
O1    O     O_R   0.319640 0.618740 0.499990 -0.596334
O2    O     O_R   0.178772 0.267373 0.787180 -0.738750
O3    O     O_2   0.805314 0.724876 0.254491 -0.605510
O4    O     O_R   0.821389 0.530542 0.124603 -0.754431
O5    O     O_2   0.800399 0.463685 0.806669 -0.660755
O6    O     O_R   0.933758 0.289505 0.847081 -0.738856
O7    O     O_2   0.083050 0.676439 0.154804 -0.597453
O8    O     O_R   0.203311 0.489350 0.187802 -0.803075
O9    O     O_R   0.680360 0.381260 0.500010 -0.595369
O10   O     O_R   0.680360 0.618740 0.500010 -0.576117
O11   O     O_R   0.319640 0.381260 0.499990 -0.586782
O12   O     O_R   0.500000 0.618760 0.288390 -0.586515
O13   O     O_R   0.500000 0.381240 0.711610 -0.588224
O14   O     O_R   0.500000 0.618760 0.711610 -0.586566
O15   O     O_R   0.500000 0.381240 0.288390 -0.594109
O16   O     O_2   0.209176 0.495413 0.830809 -0.649427

loop_
_geom_bond_atom_site_label_1
_geom_bond_atom_site_label_2
_ccdc_geom_bond_type
C22   H14   S    
C27   C29   S    
C25   H22   S    
C26   H21   S    
C21   H15   S    
C23   O15   A    
C28   C29   T    
C20   H17   S    
C18   H8    S    
Cu2   O9    S    
C14   H2    S    
Cu1   O10   S    
C15   C16   S    
C15   H31   S    
C18   C19   S    
C2    C13   S    
C3    C12   S    
C7    N2    A    
C10   C31   S    
C13   O7    D    
H1    O2    S    
C12   O10   A    
Cu2   O13   S    
C23   O12   A    
Cu1   O14   S    
H12   O4    S    
Cu1   O1    S    
C10   O3    D    
C22   H13   S    
C21   C22   S    
C16   H28   S    
C5    N2    A    
C26   H20   S    
C21   H16   S    
C17   C18   S    
H27   O8    S    
C27   O13   A    
C9    O2    S    
C11   O5    D    
C18   H7    S    
Cu2   N2    S    
C25   C26   S    
C15   H32   S    
C1    O1    A    
C2    C31   A    
H23   O6    S    
C2    C4    A    
C17   H9    S    
C19   H4    S    
Cu2   O11   S    
C13   O8    S    
C24   H26   S    
C12   O9    A    
Cu1   Cu2   S    
C23   C28   S    
C24   C25   S    
C3    C31   A    
C5    C14   S    
C19   H5    S    
C9    C30   S    
C6    N1    A    
C16   H29   S    
C11   C32   S    
C1    O11   A    
Cu2   O15   S    
C26   H19   S    
Cu1   N1    S    
C6    C17   S    
C27   O14   A    
C11   O6    S    
C5    C8    A    
Cu1   O12   S    
C6    C7    A    
C1    C4    S    
C17   H10   S    
C20   H18   S    
C14   H3    S    
C30   C32   A    
C24   H25   S    
C8    C24   S    
C3    C32   A    
C19   H6    S    
C9    O16   D    
C22   H11   S    
C20   C21   S    
C8    N1    A    
C7    C20   S    
C25   H24   S    
C14   C15   S    
C16   H30   S    
C4    C30   A    
C10   O4    S    
