data_mof_unit_39808.cif
_audit_creation_date              2012-10-26T20:43:03-0400
_audit_creation_method            fapswitch 2.2
_symmetry_space_group_name_H-M    P1
_symmetry_Int_Tables_number       1
_space_group_crystal_system       triclinic
_cell_length_a                    11.003728
_cell_length_b                    9.63483
_cell_length_c                    15.158677
_cell_angle_alpha                 90.026474
_cell_angle_beta                  89.108808
_cell_angle_gamma                 90.036884
_cell_volume                      1606.91361374

loop_
_atom_site_label
_atom_site_type_symbol
_atom_type_description
_atom_site_fract_x
_atom_site_fract_y
_atom_site_fract_z
_atom_type_partial_charge
Br1   Br    Br    0.754143 0.486138 0.732710 -0.437800
Br2   Br    Br    0.672475 0.833829 0.641846 -0.285006
Br3   Br    Br    0.675273 0.165602 0.639625 -0.261531
Br4   Br    Br    0.327303 0.833262 0.358258 -0.284233
Br5   Br    Br    0.245436 0.481248 0.265008 -0.373240
Br6   Br    Br    0.143680 0.369544 0.899469 -0.501971
Br7   Br    Br    0.855400 0.367251 0.100202 -0.472598
Br8   Br    Br    0.130655 0.201167 0.549410 -0.267779
Br9   Br    Br    0.867240 0.803698 0.457706 -0.280288
Br10  Br    Br    0.869156 0.201207 0.450674 -0.266456
Br11  Br    Br    0.133215 0.803604 0.543125 -0.282840
Br12  Br    Br    0.324663 0.165054 0.360510 -0.254508
C1    C     C_R   0.262166 0.500037 0.503247 0.566914
C2    C     C_R   0.127553 0.500724 0.508379 -0.064571
C3    C     C_R   0.428996 0.073552 0.442769 0.284276
C4    C     C_R   0.570538 0.926147 0.557629 0.286720
C5    C     C_R   0.570987 0.073773 0.557259 0.285693
C6    C     C_R   0.429424 0.925928 0.442390 0.285752
C7    C     C_R   0.503914 0.500092 0.329011 0.585604
C8    C     C_R   0.496166 0.500078 0.670992 0.590009
C9    C     C_R   0.611631 0.484789 0.810240 0.143360
C10   C     C_R   0.390001 0.484886 0.189258 0.167764
C11   C     C_R   0.499160 0.498226 0.767989 0.061794
C12   C     C_R   0.737845 0.500084 0.496838 0.570260
C13   C     C_R   0.501893 0.498512 0.232025 0.050079
C14   C     C_R   0.390085 0.504615 0.817480 0.123048
C15   C     C_R   0.611155 0.505858 0.182722 0.118115
C16   C     C_R   0.391340 0.474454 0.908100 0.023440
C17   C     C_R   0.610229 0.476360 0.091915 0.011105
C18   C     C_R   0.502300 0.473546 0.952905 -0.049174
C19   C     C_R   0.499843 0.474493 0.046783 -0.056668
C20   C     C_R   0.614929 0.477100 0.904429 0.008982
C21   C     C_R   0.387646 0.478430 0.095153 0.028112
C22   C     C_R   0.282562 0.451453 0.955720 0.161596
C23   C     C_R   0.278434 0.468739 0.047374 0.170643
C24   C     C_R   0.718733 0.453082 0.044673 0.196113
C25   C     C_3   0.220402 0.516825 0.712611 -0.228759
C26   C     C_3   0.780869 0.515772 0.287550 -0.227159
C27   C     C_3   0.114722 0.623239 0.085579 -0.226054
C28   C     C_3   0.888219 0.619538 0.905807 -0.224676
C29   C     C_R   0.724107 0.467789 0.953305 0.176766
C30   C     C_R   0.061986 0.374445 0.508715 0.175841
C31   C     C_R   0.937718 0.627726 0.492830 0.162398
C32   C     C_R   0.937916 0.374464 0.491610 0.176172
C33   C     C_R   0.062469 0.627692 0.507837 0.161556
C34   C     C_R   0.872488 0.500773 0.492032 -0.063797
Cu1   Cu    Cu3+1 0.500000 0.640660 0.500000 1.141391
Cu2   Cu    Cu3+1 0.500000 0.359340 0.500000 1.135650
H1    H     H_    0.238189 0.637477 0.826768 0.276949
H2    H     H_    0.025941 0.627481 0.121282 0.186012
H3    H     H_    0.101916 0.654999 0.015990 0.139036
H4    H     H_    0.177725 0.697469 0.117444 0.197757
H5    H     H_    0.871250 0.403485 0.871995 0.340219
H6    H     H_    0.981042 0.617407 0.876233 0.180965
H7    H     H_    0.891812 0.670246 0.971502 0.148287
H8    H     H_    0.828658 0.682248 0.862887 0.202023
H9    H     H_    0.124380 0.500093 0.733405 0.199339
H10   H     H_    0.259557 0.416436 0.690064 0.181813
H11   H     H_    0.220172 0.592898 0.658826 0.172283
H12   H     H_    0.763617 0.637942 0.174216 0.277090
H13   H     H_    0.876398 0.497431 0.266141 0.204464
H14   H     H_    0.740469 0.416045 0.310180 0.181038
H15   H     H_    0.782927 0.591658 0.341426 0.171105
H16   H     H_    0.101697 0.407844 0.074435 0.344587
N1    N     N_R   0.500000 0.852070 0.500000 -0.274498
N2    N     N_R   0.500000 0.147930 0.500000 -0.277527
N3    N     N_2   0.288528 0.577728 0.783096 -0.505891
N4    N     N_2   0.712840 0.578224 0.217647 -0.505225
N5    N     N_2   0.163378 0.483870 0.089569 -0.439809
N6    N     N_2   0.841968 0.479451 0.915031 -0.451586
O1    O     O_R   0.319640 0.618740 0.499990 -0.454843
O2    O     O_R   0.680360 0.381260 0.500010 -0.450180
O3    O     O_R   0.680360 0.618740 0.500010 -0.452911
O4    O     O_R   0.319640 0.381260 0.499990 -0.451381
O5    O     O_R   0.499970 0.618800 0.370260 -0.462123
O6    O     O_R   0.500030 0.381200 0.629740 -0.477442
O7    O     O_R   0.500030 0.618800 0.629740 -0.460726
O8    O     O_R   0.499970 0.381200 0.370260 -0.478867

loop_
_geom_bond_atom_site_label_1
_geom_bond_atom_site_label_2
_ccdc_geom_bond_type
C3    C6    A    
C27   H3    S    
Br1   C9    S    
C15   C17   A    
Br7   C24   S    
Cu2   O6    S    
C6    N1    A    
C17   C24   A    
C5    N2    A    
C28   N6    S    
C8    O7    A    
C14   N3    S    
Br8   C30   S    
C18   C19   A    
C12   O3    A    
C8    O6    A    
C22   C23   A    
C11   C14   A    
Cu2   O8    S    
C15   N4    S    
Br5   C10   S    
C4    C5    A    
C28   H8    S    
C10   C13   A    
C20   C29   A    
C19   C21   A    
Br2   C4    S    
C25   H10   S    
C2    C30   A    
C26   H13   S    
Br4   C6    S    
C27   H4    S    
C16   C22   A    
C1    C2    S    
C24   C29   A    
C30   C32   A    
Cu2   O2    S    
H5    N6    S    
C32   C34   A    
C2    C33   A    
C9    C20   A    
Br9   C31   S    
Br10  C32   S    
Cu2   O4    S    
Cu1   O3    S    
C1    O1    A    
C8    C11   S    
Br6   C22   S    
C7    O8    A    
Cu1   Cu2   S    
Br12  C3    S    
C28   H7    S    
Cu1   O1    S    
C27   N5    S    
H16   N5    S    
C31   C33   A    
H12   N4    S    
C25   H11   S    
C26   N4    S    
C28   H6    S    
C9    C11   A    
Br11  C33   S    
Cu1   O7    S    
C12   O2    A    
C26   H15   S    
C10   C21   A    
H1    N3    S    
C13   C15   A    
C14   C16   A    
C12   C34   S    
C16   C18   A    
Cu1   O5    S    
C17   C19   A    
C18   C20   A    
C3    N2    A    
C25   N3    S    
C7    O5    A    
C21   C23   A    
Br3   C5    S    
C7    C13   S    
C31   C34   A    
C27   H2    S    
C1    O4    A    
C23   N5    S    
C4    N1    A    
Cu2   N2    S    
Cu1   N1    S    
C25   H9    S    
C29   N6    S    
C26   H14   S    
