data_mof_unit_22353.cif
_audit_creation_date              2012-12-10T19:01:21-0500
_audit_creation_method            fapswitch 2.2
_symmetry_space_group_name_H-M    P1
_symmetry_Int_Tables_number       1
_space_group_crystal_system       triclinic
_cell_length_a                    9.585009
_cell_length_b                    10.807455
_cell_length_c                    15.494101
_cell_angle_alpha                 88.961012
_cell_angle_beta                  73.936797
_cell_angle_gamma                 91.121698
_cell_volume                      1541.60316636

loop_
_atom_site_label
_atom_site_type_symbol
_atom_type_description
_atom_site_fract_x
_atom_site_fract_y
_atom_site_fract_z
_atom_type_partial_charge
C1    C     C_R   0.998546 0.262625 0.501079 0.786246
C2    C     C_R   0.669409 0.546091 0.905030 0.102125
C3    C     C_R   0.765009 0.598057 0.950074 0.047685
C4    C     C_R   0.518137 0.535255 0.949886 0.020146
C5    C     C_R   0.467675 0.564854 0.042582 0.044816
C6    C     C_R   0.565034 0.628351 0.082881 0.175204
C7    C     C_R   0.712432 0.638007 0.037639 -0.211023
C8    C     C_R   0.414558 0.501752 0.904074 -0.150490
C9    C     C_R   0.267550 0.490616 0.948743 -0.165363
C10   C     C_R   0.219755 0.503498 0.041238 0.144034
C11   C     C_R   0.320919 0.532759 0.089654 0.091915
C12   C     C_R   0.918593 0.507896 0.671967 0.826047
C13   C     C_R   0.072316 0.483413 0.086465 -0.206768
C14   C     C_R   0.025627 0.485780 0.179925 -0.188721
C15   C     C_R   0.274209 0.519123 0.183551 -0.258371
C16   C     C_R   0.125129 0.068674 0.464801 0.150542
C17   C     C_R   0.997345 0.129351 0.504660 -0.122307
C18   C     C_R   0.873036 0.060391 0.551126 -0.210909
C19   C     C_R   0.875030 0.931311 0.550874 -0.187269
C20   C     C_R   0.001171 0.870995 0.503901 -0.080078
C21   C     C_R   0.127291 0.940796 0.463881 0.097390
C22   C     C_3   0.217242 0.942093 0.367829 -0.506523
C23   C     C_R   0.001173 0.737607 0.499563 0.821684
C24   C     C_3   0.215568 0.082394 0.369548 -0.049244
C25   C     C_R   0.602375 0.572633 0.439900 0.203005
C26   C     C_R   0.545660 0.418031 0.553224 0.280812
C27   C     C_R   0.398575 0.417938 0.551223 0.011656
C28   C     C_R   0.455418 0.572443 0.439993 0.218899
C29   C     C_3   0.457093 0.709401 0.429834 -0.478287
C30   C     C_3   0.614866 0.710189 0.430565 -0.471821
C31   C     C_R   0.082107 0.499240 0.327833 0.782890
C32   C     C_R   0.874543 0.532895 0.769373 -0.182945
C33   C     C_R   0.127160 0.501008 0.229125 -0.056462
C34   C     C_R   0.911906 0.618523 0.905358 -0.268470
C35   C     C_R   0.967089 0.592373 0.814462 0.341527
C36   C     C_R   0.728864 0.507245 0.816427 -0.270932
Cu1   Cu    Cu3+1 0.140670 0.499980 0.500000 0.988075
Cu2   Cu    Cu3+1 0.859330 0.500020 0.500000 0.948874
H1    H     H_    0.786103 0.683947 0.069610 0.154493
H2    H     H_    0.993541 0.464412 0.049642 0.138687
H3    H     H_    0.774509 0.105790 0.585993 0.157799
H4    H     H_    0.777544 0.878880 0.585583 0.165614
H5    H     H_    0.326524 0.905167 0.359758 0.210064
H6    H     H_    0.157935 0.902125 0.322053 0.173163
H7    H     H_    0.156371 0.124301 0.324238 0.161957
H8    H     H_    0.319841 0.353861 0.593912 0.145092
H9    H     H_    0.443351 0.736804 0.363693 0.178126
H10   H     H_    0.352465 0.519234 0.221905 0.175205
H11   H     H_    0.384997 0.754997 0.488816 0.252422
H12   H     H_    0.690981 0.741586 0.365451 0.189299
H13   H     H_    0.632344 0.755018 0.490839 0.228107
H14   H     H_    0.911229 0.471147 0.213586 0.155345
H15   H     H_    0.191201 0.466563 0.911363 0.149029
H16   H     H_    0.982211 0.661659 0.940765 0.184228
H17   H     H_    0.663110 0.457157 0.781911 0.161564
H18   H     H_    0.442959 0.488602 0.832647 0.179731
N1    N     N_R   0.648210 0.500930 0.499430 -0.184948
N2    N     N_R   0.352300 0.500890 0.499430 -0.187678
O1    O     O_R   0.118810 0.319640 0.500000 -0.592484
O2    O     O_R   0.881230 0.319680 0.499990 -0.589574
O3    O     O_R   0.055580 0.499970 0.629840 -0.520364
O4    O     O_R   0.818000 0.500010 0.629830 -0.586145
O5    O     O_R   0.118770 0.680320 0.500010 -0.542720
O6    O     O_R   0.881190 0.680360 0.500000 -0.593160
O7    O     O_R   0.182000 0.499990 0.370170 -0.594065
O8    O     O_R   0.944420 0.500030 0.370160 -0.583254
C37   C     C_3   0.364148 0.144129 0.360954 -0.814102
H19   H     H_    0.351618 0.244996 0.371896 0.246007
H20   H     H_    0.416142 0.104288 0.410695 0.239759
H21   H     H_    0.436186 0.130815 0.292285 0.233756
C38   C     C_3   0.576442 0.325265 0.618892 -0.819317
H22   H     H_    0.687303 0.324664 0.624183 0.271357
H23   H     H_    0.505557 0.342994 0.687241 0.207752
H24   H     H_    0.550098 0.230732 0.600117 0.193149
S1    S     S_3+6 0.147251 0.646402 0.760304 0.008882
O9    O     O_2   0.146925 0.725184 0.679483 -0.257261
O10   O     O_2   0.206404 0.723132 0.822764 -0.281240
O11   O     O_3   0.257288 0.526691 0.727494 -0.531070
H25   H     H_    0.200335 0.451867 0.755624 0.302527
C39   C     C_3   0.517388 0.704897 0.166127 -0.908591
H26   H     H_    0.401756 0.730333 0.181377 0.243733
H27   H     H_    0.539702 0.654241 0.223556 0.222259
H28   H     H_    0.579555 0.794385 0.156409 0.239275

loop_
_geom_bond_atom_site_label_1
_geom_bond_atom_site_label_2
_ccdc_geom_bond_type
C31   O8    A    
C30   H13   S    
C16   C21   A    
C39   H26   S    
C19   C20   A    
C4    C8    A    
C8    H18   S    
C14   C33   A    
C29   H11   S    
C25   C28   A    
C35   S1    S    
C26   C27   A    
Cu1   Cu2   S    
C29   H9    S    
C24   H7    S    
C32   C36   A    
C28   C29   S    
C5    C11   A    
C3    C7    A    
C1    O1    A    
C5    C6    A    
C34   C35   A    
C18   C19   A    
C13   H2    S    
C24   C37   S    
C11   C15   A    
C22   H6    S    
Cu2   O8    S    
C16   C17   A    
Cu1   O7    S    
C31   C33   S    
C9    C10   A    
Cu1   N2    S    
C19   H4    S    
C23   O5    A    
C30   H12   S    
C16   C24   S    
C21   C22   S    
C12   C32   S    
C26   C38   S    
C25   N1    A    
C15   H10   S    
C39   H28   S    
Cu1   O5    S    
Cu2   O6    S    
C14   H14   S    
C37   H19   S    
C32   C35   A    
C39   H27   S    
C18   H3    S    
C38   H23   S    
O11   H25   S    
C8    C9    A    
C3    C34   A    
S1    O11   S    
C10   C13   A    
C37   H20   S    
C2    C4    A    
S1    O9    D    
C29   C30   S    
Cu2   N1    S    
C12   O4    A    
C6    C39   S    
C22   H5    S    
C20   C23   S    
C17   C18   A    
S1    O10   D    
Cu1   O1    S    
Cu2   O2    S    
C27   H8    S    
C23   O6    A    
C34   H16   S    
C22   C24   S    
C1    O2    A    
C9    H15   S    
C2    C36   A    
C25   C30   S    
C31   O7    A    
C4    C5    A    
C27   N2    A    
C38   H24   S    
Cu1   O3    S    
C6    C7    A    
C28   N2    A    
C1    C17   S    
C37   H21   S    
C2    C3    A    
C38   H22   S    
C36   H17   S    
C12   O3    A    
C26   N1    A    
C10   C11   A    
C20   C21   A    
C7    H1    S    
C13   C14   A    
C15   C33   A    
Cu2   O4    S    
