data_mof_unit_33865.cif
_audit_creation_date              2012-10-26T21:21:35-0400
_audit_creation_method            fapswitch 2.2
_symmetry_space_group_name_H-M    P1
_symmetry_Int_Tables_number       1
_space_group_crystal_system       triclinic
_cell_length_a                    14.342355
_cell_length_b                    10.793918
_cell_length_c                    9.609187
_cell_angle_alpha                 90.096956
_cell_angle_beta                  90.009308
_cell_angle_gamma                 92.490357
_cell_volume                      1486.19306245

loop_
_atom_site_label
_atom_site_type_symbol
_atom_type_description
_atom_site_fract_x
_atom_site_fract_y
_atom_site_fract_z
_atom_type_partial_charge
C1    C     C_R   0.497655 0.262592 0.499887 0.592179
C2    C     C_R   0.561160 0.067122 0.424563 0.227992
C3    C     C_R   0.559691 0.938169 0.425408 -0.138230
C4    C     C_R   0.331195 0.499531 0.500032 0.521870
C5    C     C_R   0.491860 0.870462 0.500429 -0.016915
C6    C     C_R   0.624802 0.664302 0.143823 -0.085340
C7    C     C_R   0.686693 0.744832 0.071494 0.218497
C8    C     C_R   0.685152 0.744571 0.928014 -0.092726
C9    C     C_R   0.623924 0.664692 0.856303 -0.132982
C10   C     C_R   0.560836 0.581088 0.925342 0.146412
C11   C     C_R   0.561010 0.580996 0.074750 0.128502
C12   C     C_1   0.771157 0.500544 0.500013 -0.020102
C13   C     C_R   0.442103 0.422783 0.073676 0.019309
C14   C     C_R   0.442147 0.422778 0.925884 0.012553
C15   C     C_R   0.497399 0.737077 0.500150 0.525112
C16   C     C_R   0.668798 0.500352 0.499985 0.545954
C17   C     C_1   0.228846 0.499752 0.500114 -0.042231
C18   C     C_1   0.143416 0.499993 0.500196 -0.030153
C19   C     C_1   0.042730 0.500277 0.500206 0.019030
C20   C     C_1   0.957290 0.500468 0.500155 0.021479
C21   C     C_1   0.856597 0.500583 0.500068 -0.018965
C22   C     C_R   0.347355 0.121196 0.638943 -0.108853
C23   C     C_R   0.276182 0.052820 0.708915 0.263942
C24   C     C_R   0.277104 0.923889 0.709465 -0.046734
C25   C     C_R   0.347617 0.862914 0.641367 -0.141756
C26   C     C_R   0.420619 0.930274 0.572556 0.004123
C27   C     C_R   0.420758 0.061142 0.571588 -0.053981
C28   C     C_R   0.492752 0.128271 0.499369 0.041890
Cu1   Cu    Cu3+1 0.499990 0.499990 0.640660 0.921997
Cu2   Cu    Cu3+1 0.500010 0.500010 0.359340 0.962049
H1    H     H_    0.732497 0.806676 0.870830 0.156308
H2    H     H_    0.394667 0.359407 0.128588 0.123560
H3    H     H_    0.629755 0.670913 0.253448 0.159614
H4    H     H_    0.745398 0.811048 0.240168 0.309111
H5    H     H_    0.629905 0.672679 0.746676 0.180610
H6    H     H_    0.394742 0.359377 0.870657 0.114202
H7    H     H_    0.343076 0.762737 0.641553 0.145058
H8    H     H_    0.613074 0.890106 0.369942 0.098589
H9    H     H_    0.672267 0.078354 0.307458 0.340539
H10   H     H_    0.343379 0.220895 0.635869 0.105833
H11   H     H_    0.213602 0.200472 0.766640 0.319385
H12   H     H_    0.221993 0.870241 0.761649 0.147421
N1    N     N_R   0.500820 0.501210 0.147910 -0.232623
N2    N     N_R   0.500850 0.501290 0.852040 -0.229654
O1    O     O_R   0.499990 0.319640 0.618810 -0.503722
O2    O     O_3   0.204305 0.109276 0.776000 -0.685068
O3    O     O_3   0.749769 0.824767 0.138368 -0.684209
O4    O     O_R   0.500000 0.319660 0.381240 -0.448151
O5    O     O_R   0.376050 0.499990 0.618810 -0.499605
O6    O     O_R   0.376060 0.500010 0.381240 -0.480509
O7    O     O_R   0.500000 0.680340 0.618760 -0.519447
O8    O     O_R   0.500010 0.680360 0.381190 -0.513540
O9    O     O_R   0.623940 0.499990 0.618760 -0.493140
O10   O     O_R   0.623950 0.500010 0.381190 -0.484802
O11   O     O_3   0.630017 0.135566 0.354425 -0.669684

loop_
_geom_bond_atom_site_label_1
_geom_bond_atom_site_label_2
_ccdc_geom_bond_type
C1    C28   S    
H11   O2    S    
C1    O4    A    
C11   N1    A    
C6    C7    A    
C15   O7    A    
C24   H12   S    
C9    C10   A    
C13   H2    S    
C19   C20   T    
C6    H3    S    
C4    O5    A    
C23   C24   A    
C22   H10   S    
C17   C18   T    
Cu2   O6    S    
C7    C8    A    
C23   O2    S    
Cu1   O5    S    
C15   O8    A    
C24   C25   A    
Cu2   O10   S    
C1    O1    A    
C26   C27   A    
Cu1   Cu2   S    
Cu1   O9    S    
C4    C17   S    
Cu2   O4    S    
C2    C3    A    
C2    O11   S    
C22   C23   A    
Cu1   N2    S    
C14   H6    S    
C22   C27   A    
C16   O10   A    
Cu2   N1    S    
C5    C15   S    
C10   C11   A    
C10   N2    A    
C5    C26   A    
C3    C5    A    
C13   N1    A    
C20   C21   S    
C14   N2    A    
C18   C19   S    
Cu1   O7    S    
C4    O6    A    
C6    C11   A    
C9    H5    S    
Cu2   O8    S    
C16   O9    A    
C2    C28   A    
H4    O3    S    
C25   H7    S    
C25   C26   A    
C13   C14   A    
C8    H1    S    
C12   C21   T    
H9    O11   S    
C12   C16   S    
C3    H8    S    
Cu1   O1    S    
C8    C9    A    
C27   C28   A    
C7    O3    S    
