data_mof_unit_65280.cif
_audit_creation_date              2012-12-10T20:11:24-0500
_audit_creation_method            fapswitch 2.2
_symmetry_space_group_name_H-M    P1
_symmetry_Int_Tables_number       1
_space_group_crystal_system       triclinic
_cell_length_a                    15.943815
_cell_length_b                    15.943818
_cell_length_c                    51.460009
_cell_angle_alpha                 90.005446
_cell_angle_beta                  90.005443
_cell_angle_gamma                 90.083327
_cell_volume                      13081.3922802

loop_
_atom_site_label
_atom_site_type_symbol
_atom_type_description
_atom_site_fract_x
_atom_site_fract_y
_atom_site_fract_z
_atom_type_partial_charge
C1    C     C_R   0.040482 0.567071 0.637397 -0.130556
C2    C     C_R   0.448204 0.943263 0.862996 -0.128594
C3    C     C_1   0.276571 0.223429 0.250000 -0.124395
C4    C     C_1   0.223412 0.723418 0.750000 -0.123899
C5    C     C_1   0.776588 0.276582 0.250000 -0.123899
C6    C     C_1   0.276572 0.223428 0.750000 -0.125472
C7    C     C_1   0.723428 0.776572 0.250000 -0.125472
C8    C     C_1   0.776572 0.723428 0.250000 -0.125266
C9    C     C_1   0.223428 0.276572 0.750000 -0.125266
C10   C     C_1   0.723414 0.223415 0.250001 -0.121561
C11   C     C_1   0.276586 0.776585 0.749999 -0.121561
C12   C     C_1   0.223428 0.276572 0.250000 -0.124534
C13   C     C_R   0.935732 0.459239 0.137025 -0.121898
C14   C     C_1   0.776572 0.723428 0.750000 -0.124534
C15   C     C_1   0.276585 0.776586 0.249999 -0.121561
C16   C     C_1   0.723415 0.223414 0.750001 -0.121561
C17   C     C_R   0.453951 0.058795 0.944961 0.551872
C18   C     C_R   0.546049 0.941205 0.055038 0.551872
C19   C     C_R   0.960213 0.563790 0.944975 0.602037
C20   C     C_R   0.039787 0.436209 0.055025 0.602038
C21   C     C_R   0.547136 0.942478 0.944952 0.597628
C22   C     C_R   0.452864 0.057522 0.055048 0.597628
C23   C     C_R   0.034153 0.434335 0.944700 0.551693
C24   C     C_R   0.064268 0.540761 0.862975 -0.121898
C25   C     C_R   0.965847 0.565665 0.055300 0.551692
C26   C     C_R   0.934335 0.534153 0.444700 0.551692
C27   C     C_R   0.065665 0.465847 0.555300 0.551692
C28   C     C_R   0.442478 0.047135 0.444952 0.597627
C29   C     C_R   0.557522 0.952865 0.555048 0.597628
C30   C     C_R   0.063790 0.460213 0.444975 0.602038
C31   C     C_R   0.936210 0.539787 0.555025 0.602037
C32   C     C_R   0.558795 0.953951 0.444961 0.551872
C33   C     C_R   0.441205 0.046049 0.555038 0.551872
C34   C     C_R   0.541906 0.935668 0.972374 -0.057694
C35   C     C_R   0.447883 0.942586 0.137112 -0.117246
C36   C     C_R   0.458094 0.064332 0.027626 -0.057694
C37   C     C_R   0.041244 0.435178 0.972244 -0.080507
C38   C     C_R   0.958756 0.564822 0.027756 -0.080507
C39   C     C_R   0.458471 0.065003 0.972436 -0.089182
C40   C     C_R   0.541529 0.934997 0.027564 -0.089182
C41   C     C_R   0.954303 0.562309 0.972471 -0.051055
C42   C     C_R   0.045697 0.437691 0.027529 -0.051054
C43   C     C_R   0.062309 0.454303 0.472471 -0.051055
C44   C     C_R   0.937691 0.545697 0.527529 -0.051054
C45   C     C_R   0.565003 0.958471 0.472436 -0.089182
C46   C     C_R   0.552117 0.057414 0.862888 -0.117246
C47   C     C_R   0.434996 0.041529 0.527564 -0.089182
C48   C     C_R   0.935178 0.541244 0.472244 -0.080507
C49   C     C_R   0.064822 0.458756 0.527756 -0.080507
C50   C     C_R   0.435667 0.041905 0.472374 -0.057695
C51   C     C_R   0.564332 0.958095 0.527626 -0.057694
C52   C     C_2   0.603579 0.789597 0.972241 0.588117
C53   C     C_2   0.396421 0.210403 0.027759 0.588117
C54   C     C_2   0.141162 0.311922 0.972088 0.561433
C55   C     C_2   0.858838 0.688078 0.027912 0.561433
C56   C     C_2   0.395576 0.210265 0.972251 0.512543
C57   C     C_R   0.067071 0.540482 0.137397 -0.130556
C58   C     C_2   0.604423 0.789735 0.027749 0.512543
C59   C     C_2   0.842437 0.675007 0.973139 0.538755
C60   C     C_2   0.157563 0.324993 0.026861 0.538755
C61   C     C_2   0.175007 0.342436 0.473139 0.538756
C62   C     C_2   0.824993 0.657564 0.526861 0.538755
C63   C     C_2   0.710265 0.895577 0.472251 0.512544
C64   C     C_2   0.289734 0.104422 0.527749 0.512545
C65   C     C_2   0.811922 0.641163 0.472088 0.561433
C66   C     C_2   0.188077 0.358837 0.527912 0.561433
C67   C     C_2   0.289596 0.103578 0.472241 0.588120
C68   C     C_R   0.932929 0.459518 0.862603 -0.130556
C69   C     C_2   0.710403 0.896422 0.527759 0.588117
C70   C     C_2   0.081545 0.637822 0.651364 0.470973
C71   C     C_2   0.918455 0.362178 0.348635 0.470971
C72   C     C_2   0.378667 0.896315 0.650830 0.482722
C73   C     C_2   0.621333 0.103685 0.349170 0.482720
C74   C     C_2   0.918037 0.364262 0.650590 0.469755
C75   C     C_2   0.081963 0.635738 0.349410 0.469753
C76   C     C_2   0.620751 0.103580 0.650607 0.486325
C77   C     C_2   0.379249 0.896420 0.349393 0.486325
C78   C     C_2   0.603580 0.120751 0.150607 0.486325
C79   C     C_R   0.500119 0.000189 0.986227 -0.005364
C80   C     C_2   0.396419 0.879249 0.849393 0.486325
C81   C     C_2   0.864261 0.418038 0.150590 0.469753
C82   C     C_2   0.135739 0.581962 0.849410 0.469753
C83   C     C_2   0.396315 0.878667 0.150830 0.482722
C84   C     C_2   0.603685 0.121333 0.849170 0.482722
C85   C     C_2   0.137822 0.581544 0.151364 0.470972
C86   C     C_2   0.862178 0.418456 0.848635 0.470972
C87   C     C_R   0.499881 0.999811 0.013773 -0.005364
C88   C     C_R   0.999086 0.499493 0.986198 -0.006758
C89   C     C_R   0.959518 0.432929 0.362602 -0.130555
C90   C     C_R   0.000914 0.500507 0.013802 -0.006759
C91   C     C_R   0.999493 0.499086 0.486198 -0.006758
C92   C     C_R   0.000507 0.500914 0.513802 -0.006758
C93   C     C_R   0.500189 0.000119 0.486227 -0.005364
C94   C     C_R   0.499811 0.999881 0.513773 -0.005364
C95   C     C_R   0.576658 0.866696 0.986162 -0.078299
C96   C     C_R   0.423342 0.133304 0.013838 -0.078299
C97   C     C_R   0.089106 0.374542 0.986095 -0.114358
C98   C     C_R   0.910894 0.625458 0.013905 -0.114358
C99   C     C_R   0.422989 0.133442 0.986322 -0.068017
C100  C     C_R   0.442585 0.947883 0.637112 -0.117246
C101  C     C_R   0.577011 0.866558 0.013678 -0.068016
C102  C     C_R   0.906140 0.622101 0.986478 -0.046457
C103  C     C_R   0.093860 0.377899 0.013522 -0.046457
C104  C     C_R   0.122101 0.406139 0.486478 -0.046457
C105  C     C_R   0.877899 0.593861 0.513522 -0.046456
C106  C     C_R   0.633442 0.922990 0.486322 -0.068017
C107  C     C_R   0.366557 0.077010 0.513678 -0.068017
C108  C     C_R   0.874542 0.589106 0.486095 -0.114358
C109  C     C_R   0.125457 0.410894 0.513905 -0.114358
C110  C     C_R   0.366696 0.076657 0.486162 -0.078299
C111  C     C_R   0.557414 0.052117 0.362888 -0.117245
C112  C     C_R   0.633304 0.923342 0.513838 -0.078300
C113  C     C_R   0.040554 0.567012 0.609963 0.115208
C114  C     C_R   0.959446 0.432988 0.390037 0.115208
C115  C     C_R   0.444328 0.946660 0.609704 0.096364
C116  C     C_R   0.555671 0.053341 0.390296 0.096363
C117  C     C_R   0.959189 0.437407 0.609595 0.096248
C118  C     C_R   0.040811 0.562593 0.390405 0.096248
C119  C     C_R   0.554716 0.052661 0.609597 0.112634
C120  C     C_R   0.445284 0.947339 0.390403 0.112634
C121  C     C_R   0.552661 0.054716 0.109597 0.112634
C122  C     C_R   0.959239 0.435733 0.637025 -0.121899
C123  C     C_R   0.447339 0.945284 0.890403 0.112634
C124  C     C_R   0.937407 0.459190 0.109595 0.096248
C125  C     C_R   0.062593 0.540810 0.890405 0.096248
C126  C     C_R   0.446659 0.944328 0.109704 0.096364
C127  C     C_R   0.553341 0.055672 0.890296 0.096364
C128  C     C_R   0.067012 0.540553 0.109963 0.115208
C129  C     C_R   0.932988 0.459447 0.890037 0.115208
C130  C     C_R   0.999942 0.502575 0.596178 0.232707
C131  C     C_R   0.000057 0.497425 0.403822 0.232707
C132  C     C_R   0.499466 0.999556 0.596056 0.233376
C133  C     C_R   0.040761 0.564267 0.362975 -0.121899
C134  C     C_R   0.500534 0.000444 0.403944 0.233376
C135  C     C_R   0.499555 0.999466 0.096056 0.233376
C136  C     C_R   0.500444 0.000534 0.903944 0.233376
C137  C     C_R   0.002575 0.499943 0.096178 0.232707
C138  C     C_R   0.997425 0.500057 0.903822 0.232707
C139  C     C_R   0.999897 0.500009 0.820135 0.977451
C140  C     C_R   0.000103 0.499991 0.179865 0.977451
C141  C     C_R   0.500013 0.000039 0.820174 0.957640
C142  C     C_R   0.499987 0.999961 0.179826 0.957640
C143  C     C_R   0.500039 0.000013 0.320174 0.957640
C144  C     C_R   0.556737 0.051796 0.637004 -0.128594
C145  C     C_R   0.499961 0.999987 0.679826 0.957640
C146  C     C_R   0.000009 0.499897 0.320135 0.977451
C147  C     C_R   0.999991 0.500103 0.679865 0.977450
C148  C     C_R   0.839671 0.660329 0.750000 0.874917
C149  C     C_R   0.160328 0.339671 0.250000 0.874917
C150  C     C_R   0.339693 0.839691 0.749999 0.895065
C151  C     C_R   0.660307 0.160309 0.250001 0.895066
C152  C     C_R   0.160327 0.339673 0.750000 0.873456
C153  C     C_R   0.839673 0.660327 0.250000 0.873456
C154  C     C_R   0.660309 0.160307 0.750001 0.895066
C155  C     C_R   0.443262 0.948204 0.362996 -0.128594
C156  C     C_R   0.339691 0.839692 0.249999 0.895065
C157  C     C_R   0.839694 0.339689 0.250000 0.893552
C158  C     C_R   0.160306 0.660311 0.750000 0.893553
C159  C     C_R   0.339671 0.160329 0.250000 0.869192
C160  C     C_R   0.660329 0.839671 0.750000 0.869192
C161  C     C_R   0.160311 0.660306 0.250000 0.893553
C162  C     C_R   0.839689 0.339694 0.750000 0.893552
C163  C     C_R   0.660327 0.839673 0.250000 0.868644
C164  C     C_R   0.339673 0.160327 0.750000 0.868644
C165  C     C_R   0.999950 0.500934 0.651056 -0.111808
C166  C     C_R   0.551796 0.056737 0.137004 -0.128593
C167  C     C_R   0.000050 0.499066 0.348944 -0.111808
C168  C     C_R   0.499750 0.999913 0.650953 -0.116804
C169  C     C_R   0.500250 0.000087 0.349047 -0.116804
C170  C     C_R   0.499913 0.999750 0.150953 -0.116804
C171  C     C_R   0.500087 0.000250 0.849047 -0.116804
C172  C     C_R   0.000934 0.499950 0.151056 -0.111808
C173  C     C_R   0.999066 0.500050 0.848944 -0.111808
C174  C     C_1   0.776582 0.276588 0.750000 -0.123899
C175  C     C_1   0.223418 0.723412 0.250000 -0.123899
C176  C     C_1   0.723429 0.776571 0.750000 -0.124395
H1    H     H_    0.666367 0.765097 0.974875 0.115663
H2    H     H_    0.757793 0.659291 0.523707 0.107482
H3    H     H_    0.736993 0.935266 0.457239 0.123855
H4    H     H_    0.263007 0.064733 0.542761 0.123855
H5    H     H_    0.832624 0.686859 0.457826 0.140980
H6    H     H_    0.167376 0.313140 0.542174 0.140980
H7    H     H_    0.265096 0.166366 0.474875 0.115663
H8    H     H_    0.734904 0.833634 0.525124 0.115662
H9    H     H_    0.137269 0.667173 0.643411 0.104403
H10   H     H_    0.862731 0.332827 0.356589 0.104404
H11   H     H_    0.362436 0.834424 0.643684 0.100628
H12   H     H_    0.333632 0.234903 0.025125 0.115663
H13   H     H_    0.637563 0.165576 0.356316 0.100628
H14   H     H_    0.862314 0.335422 0.642454 0.107949
H15   H     H_    0.137686 0.664578 0.357546 0.107949
H16   H     H_    0.636843 0.165405 0.643381 0.095815
H17   H     H_    0.363158 0.834595 0.356619 0.095815
H18   H     H_    0.665405 0.136842 0.143381 0.095815
H19   H     H_    0.334595 0.863158 0.856618 0.095815
H20   H     H_    0.835421 0.362315 0.142454 0.107949
H21   H     H_    0.164578 0.637685 0.857546 0.107949
H22   H     H_    0.334423 0.862437 0.143684 0.100628
H23   H     H_    0.186859 0.332623 0.957826 0.140980
H24   H     H_    0.665576 0.137563 0.856316 0.100628
H25   H     H_    0.167174 0.637268 0.143411 0.104404
H26   H     H_    0.832826 0.362732 0.856589 0.104404
H27   H     H_    0.813141 0.667377 0.042174 0.140980
H28   H     H_    0.435265 0.236993 0.957239 0.123855
H29   H     H_    0.564735 0.763007 0.042761 0.123855
H30   H     H_    0.840710 0.742207 0.976293 0.107482
H31   H     H_    0.159290 0.257793 0.023707 0.107482
H32   H     H_    0.242206 0.340709 0.476293 0.107482
I1    I     I_    0.097676 0.666580 0.588326 -0.189706
I2    I     I_    0.368649 0.862359 0.912308 -0.185930
I3    I     I_    0.839014 0.402166 0.087409 -0.244609
I4    I     I_    0.160986 0.597834 0.912591 -0.244609
I5    I     I_    0.367777 0.861136 0.087957 -0.265969
I6    I     I_    0.632222 0.138864 0.912043 -0.265969
I7    I     I_    0.166580 0.597676 0.088326 -0.189705
I8    I     I_    0.833419 0.402324 0.911674 -0.189705
I9    I     I_    0.902323 0.333420 0.411674 -0.189705
I10   I     I_    0.361136 0.867778 0.587956 -0.265970
I11   I     I_    0.638863 0.132222 0.412043 -0.265969
I12   I     I_    0.902166 0.339014 0.587409 -0.244609
I13   I     I_    0.097834 0.660986 0.412591 -0.244609
I14   I     I_    0.637641 0.131351 0.587692 -0.185930
I15   I     I_    0.362359 0.868649 0.412308 -0.185931
I16   I     I_    0.631351 0.137641 0.087692 -0.185930
N1    N     N_R   0.500588 0.000669 0.931984 -0.334448
N2    N     N_R   0.499411 0.999331 0.068016 -0.334448
N3    N     N_R   0.997076 0.499315 0.931886 -0.335154
N4    N     N_R   0.002924 0.500685 0.068114 -0.335154
N5    N     N_R   0.999315 0.497075 0.431886 -0.335154
N6    N     N_R   0.000685 0.502924 0.568114 -0.335154
N7    N     N_R   0.500669 0.000589 0.431984 -0.334447
N8    N     N_R   0.499331 0.999412 0.568016 -0.334447
O1    O     O_3   0.000000 0.500000 0.750000 -0.511704
O2    O     O_R   0.000000 0.430630 0.192350 -0.623980
O3    O     O_2   0.834224 0.447547 0.828473 -0.577056
O4    O     O_R   0.430630 1.000000 0.807650 -0.625092
O5    O     O_R   0.569370 1.000000 0.192350 -0.625092
O6    O     O_R   0.500000 0.930630 0.307650 -0.625092
O7    O     O_R   0.500000 0.069370 0.692350 -0.625092
O8    O     O_R   0.069370 0.500000 0.307650 -0.623980
O9    O     O_R   0.930630 0.500000 0.692350 -0.623980
O10   O     O_R   0.500000 0.069370 0.307650 -0.624446
O11   O     O_R   0.500000 0.930630 0.692350 -0.624446
O12   O     O_R   0.930630 0.500000 0.307650 -0.624567
O13   O     O_3   0.000000 0.500000 0.250000 -0.511704
O14   O     O_R   0.069370 0.500000 0.692350 -0.624567
O15   O     O_R   0.902350 0.666510 0.764820 -0.633020
O16   O     O_R   0.097650 0.333490 0.235180 -0.633020
O17   O     O_R   0.333490 0.902350 0.764820 -0.627030
O18   O     O_R   0.666510 0.097650 0.235180 -0.627030
O19   O     O_R   0.097650 0.333490 0.764820 -0.633386
O20   O     O_R   0.902350 0.666510 0.235180 -0.633386
O21   O     O_R   0.666510 0.097650 0.764820 -0.626985
O22   O     O_R   0.333490 0.902350 0.235180 -0.626985
O23   O     O_R   0.902350 0.333490 0.235180 -0.628988
O24   O     O_3   0.500000 0.000000 0.750000 -0.510695
O25   O     O_R   0.097650 0.666510 0.764820 -0.628989
O26   O     O_R   0.333490 0.097650 0.235180 -0.634398
O27   O     O_R   0.666510 0.902350 0.764820 -0.634398
O28   O     O_R   0.097650 0.666510 0.235180 -0.628899
O29   O     O_R   0.902350 0.333490 0.764820 -0.628899
O30   O     O_R   0.666510 0.902350 0.235180 -0.634587
O31   O     O_R   0.333490 0.097650 0.764820 -0.634587
O32   O     O_R   0.402350 0.166510 0.264820 -0.634398
O33   O     O_R   0.597650 0.833490 0.735180 -0.634398
O34   O     O_R   0.833490 0.402350 0.264820 -0.628899
O35   O     O_3   0.500000 0.000000 0.250000 -0.510695
O36   O     O_R   0.166510 0.597650 0.735180 -0.628899
O37   O     O_R   0.597650 0.833490 0.264820 -0.634587
O38   O     O_R   0.402350 0.166510 0.735180 -0.634587
O39   O     O_R   0.166510 0.597650 0.264820 -0.628989
O40   O     O_R   0.833490 0.402350 0.735180 -0.628988
O41   O     O_R   0.402350 0.833490 0.735180 -0.626985
O42   O     O_R   0.597650 0.166510 0.264820 -0.626985
O43   O     O_R   0.833490 0.597650 0.735180 -0.633019
O44   O     O_R   0.166510 0.402350 0.264820 -0.633019
O45   O     O_R   0.597650 0.166510 0.735180 -0.627030
O46   O     O_R   0.000000 0.430630 0.807650 -0.624567
O47   O     O_R   0.402350 0.833490 0.264820 -0.627030
O48   O     O_R   0.166510 0.402350 0.735180 -0.633386
O49   O     O_R   0.833490 0.597650 0.264820 -0.633387
O50   O     O_2   0.402841 0.109299 0.931153 -0.525107
O51   O     O_2   0.597159 0.890700 0.068847 -0.525107
O52   O     O_2   0.931370 0.629815 0.931259 -0.497184
O53   O     O_2   0.068630 0.370184 0.068741 -0.497184
O54   O     O_2   0.598845 0.892426 0.931199 -0.500036
O55   O     O_2   0.401155 0.107574 0.068801 -0.500036
O56   O     O_2   0.063428 0.369423 0.930582 -0.533707
O57   O     O_R   0.000000 0.569370 0.192350 -0.624567
O58   O     O_2   0.936572 0.630577 0.069418 -0.533707
O59   O     O_2   0.869423 0.563428 0.430582 -0.533706
O60   O     O_2   0.130577 0.436571 0.569418 -0.533706
O61   O     O_2   0.392426 0.098845 0.431199 -0.500037
O62   O     O_2   0.607574 0.901155 0.568801 -0.500036
O63   O     O_2   0.129815 0.431370 0.431259 -0.497185
O64   O     O_2   0.870185 0.568630 0.568741 -0.497184
O65   O     O_2   0.609300 0.902841 0.431153 -0.525107
O66   O     O_2   0.390700 0.097159 0.568847 -0.525107
O67   O     O_2   0.554567 0.751996 0.958189 -0.482114
O68   O     O_R   0.569370 1.000000 0.807650 -0.624446
O69   O     O_2   0.445433 0.248004 0.041811 -0.482114
O70   O     O_2   0.131858 0.236965 0.976005 -0.512621
O71   O     O_2   0.868142 0.763035 0.023995 -0.512621
O72   O     O_2   0.328073 0.242966 0.976854 -0.585316
O73   O     O_2   0.671927 0.757034 0.023146 -0.585316
O74   O     O_2   0.789331 0.642851 0.959215 -0.499555
O75   O     O_2   0.210669 0.357149 0.040785 -0.499555
O76   O     O_2   0.142850 0.289331 0.459215 -0.499555
O77   O     O_2   0.857150 0.710669 0.540785 -0.499555
O78   O     O_2   0.742967 0.828074 0.476854 -0.585315
O79   O     O_R   0.430630 1.000000 0.192350 -0.624446
O80   O     O_2   0.257032 0.171925 0.523146 -0.585317
O81   O     O_2   0.736966 0.631859 0.476005 -0.512621
O82   O     O_2   0.263034 0.368140 0.523995 -0.512621
O83   O     O_2   0.251996 0.054566 0.458189 -0.482114
O84   O     O_2   0.748004 0.945434 0.541811 -0.482113
O85   O     O_2   0.052453 0.665776 0.671527 -0.577057
O86   O     O_2   0.947547 0.334224 0.328473 -0.577056
O87   O     O_2   0.341392 0.923465 0.669768 -0.570909
O88   O     O_2   0.658608 0.076535 0.330232 -0.570908
O89   O     O_2   0.946993 0.335166 0.670615 -0.577698
O90   O     O_R   0.000000 0.569370 0.807650 -0.623980
O91   O     O_2   0.053007 0.664834 0.329385 -0.577697
O92   O     O_2   0.658256 0.076683 0.669537 -0.568292
O93   O     O_2   0.341744 0.923317 0.330463 -0.568292
O94   O     O_2   0.576683 0.158256 0.169537 -0.568292
O95   O     O_2   0.423317 0.841744 0.830463 -0.568292
O96   O     O_2   0.835166 0.446993 0.170615 -0.577697
O97   O     O_2   0.164834 0.553006 0.829384 -0.577697
O98   O     O_2   0.423465 0.841392 0.169768 -0.570909
O99   O     O_2   0.576535 0.158608 0.830232 -0.570909
O100  O     O_2   0.165776 0.552453 0.171527 -0.577056
Zn1   Zn    Zn3+2 0.900880 0.500000 0.727850 1.052979
Zn2   Zn    Zn3+2 0.599120 0.000000 0.772150 1.046910
Zn3   Zn    Zn3+2 0.000000 0.400880 0.227850 1.052979
Zn4   Zn    Zn3+2 0.000000 0.599120 0.772150 1.052979
Zn5   Zn    Zn3+2 0.599120 1.000000 0.227850 1.046196
Zn6   Zn    Zn3+2 0.400880 0.000000 0.772150 1.046196
Zn7   Zn    Zn3+2 0.000000 0.599120 0.227850 1.051814
Zn8   Zn    Zn3+2 0.000000 0.400880 0.772150 1.051814
Zn9   Zn    Zn3+2 0.099120 0.500000 0.272150 1.052979
Zn10  Zn    Zn3+2 0.500000 0.900880 0.727850 1.046910
Zn11  Zn    Zn3+2 0.500000 0.099120 0.272150 1.046910
Zn12  Zn    Zn3+2 0.099120 0.500000 0.727850 1.051814
Zn13  Zn    Zn3+2 0.900880 0.500000 0.272150 1.051814
Zn14  Zn    Zn3+2 0.500000 0.099120 0.727850 1.046196
Zn15  Zn    Zn3+2 0.500000 0.900880 0.272150 1.046196
Zn16  Zn    Zn3+2 0.400880 1.000000 0.227850 1.046910

loop_
_geom_bond_atom_site_label_1
_geom_bond_atom_site_label_2
_ccdc_geom_bond_type
C135  N2    S    
C32   C45   A    
C88   C90   A    
C54   O70   D    
C57   C128  A    
C79   C87   A    
C74   O89   D    
C2    C123  A    
C62   O77   D    
C121  C166  A    
C52   O67   D    
C137  N4    S    
C157  O23   A    
C71   O86   D    
C96   C99   A    
O21   Zn2   S    
C50   C110  A    
C145  O11   A    
O40   Zn1   S    
C17   C39   A    
C41   C88   A    
C18   C40   A    
C89   C167  A    
C164  O38   A    
C118  C131  A    
C70   H9    S    
C140  O57   A    
C74   H14   S    
C141  O68   A    
C159  O32   A    
C48   C91   A    
O4    Zn6   S    
O20   Zn7   S    
C27   O60   S    
C33   N8    A    
C86   H26   S    
C65   C108  S    
C44   C92   A    
C2    C171  A    
C142  C170  S    
C81   O96   D    
C66   H6    S    
C59   C102  S    
C69   O84   D    
C100  C115  A    
C1    C113  A    
C12   C149  S    
C125  I4    S    
C30   O63   S    
O33   Zn10  S    
O41   Zn10  S    
C124  C137  A    
C61   C104  S    
C127  C136  A    
C156  O47   A    
C13   C124  A    
O15   Zn4   S    
C76   O92   D    
C162  O29   A    
C98   C102  A    
C7    C163  S    
C120  C155  A    
O46   Zn8   S    
C82   O97   D    
C126  I5    S    
C10   C151  S    
C155  C169  A    
C11   C150  S    
C55   H27   S    
C143  O10   A    
C58   C101  S    
C121  C135  A    
O48   Zn12  S    
C97   C103  A    
C46   C84   S    
C17   O50   S    
C76   C144  S    
C59   H30   S    
C146  O8    A    
C61   O76   D    
C33   C47   A    
C107  C110  A    
O47   Zn15  S    
C30   C43   A    
C31   O64   S    
O24   Zn6   S    
C80   O95   D    
C29   N8    A    
C20   C42   A    
C60   H31   S    
C124  I3    S    
C125  C138  A    
C158  O25   A    
C22   C36   A    
C38   C90   A    
O49   Zn13  S    
C1    C70   S    
C129  I8    S    
C55   C98   S    
C57   C85   S    
C160  O27   A    
C151  O42   A    
C61   H32   S    
O31   Zn6   S    
C146  O12   A    
O25   Zn4   S    
O27   Zn2   S    
C154  O21   A    
C142  O5    A    
C146  C167  S    
C38   C98   A    
C45   C93   A    
O19   Zn8   S    
C6    C9    T    
C7    C8    T    
C44   C105  A    
O35   Zn5   S    
C157  O34   A    
O1    Zn8   S    
C25   C38   A    
C65   O81   D    
C147  O9    A    
C141  C171  S    
C83   H22   S    
C41   C102  A    
C84   O99   D    
O43   Zn1   S    
C19   N3    A    
C43   C104  A    
O38   Zn14  S    
C77   H17   S    
C147  C165  S    
C40   C101  A    
O16   Zn3   S    
C17   N1    A    
O35   Zn16  S    
C18   O51   S    
C75   O91   D    
O13   Zn13  S    
C21   O54   S    
O39   Zn9   S    
C23   O56   S    
C122  C165  A    
O37   Zn15  S    
C3    C159  S    
O5    Zn5   S    
O22   Zn16  S    
C151  O18   A    
C115  C132  A    
C13   C172  A    
O18   Zn5   S    
C113  C130  A    
C149  O44   A    
C46   C127  A    
C91   C92   A    
C134  N7    S    
C148  O15   A    
C54   H23   S    
C42   C90   A    
O9    Zn1   S    
C75   H15   S    
C117  C122  A    
C72   H11   S    
O79   Zn16  S    
C76   H16   S    
C34   C79   A    
C67   C110  S    
C39   C99   A    
C139  O90   A    
O44   Zn9   S    
C142  O79   A    
C54   C97   S    
O17   Zn6   S    
O26   Zn16  S    
C8    C153  S    
C67   H7    S    
C166  C170  A    
C149  O16   A    
C16   C154  S    
C60   C103  S    
O1    Zn4   S    
C29   C51   A    
C16   C174  T    
C35   C170  A    
C78   O94   D    
C154  O45   A    
C68   C173  A    
C22   N2    A    
C85   H25   S    
C120  I15   S    
O42   Zn11  S    
C20   N4    A    
C25   O58   S    
O32   Zn11  S    
C113  I1    S    
C77   C155  S    
C60   O75   D    
C121  I16   S    
C120  C134  A    
C20   O53   S    
C138  N3    S    
C22   O55   S    
O1    Zn12  S    
C71   H10   S    
C56   C99   S    
C145  C168  S    
C95   C101  A    
C136  N1    S    
C51   C112  A    
C114  C131  A    
C37   C88   A    
C163  O37   A    
C30   N5    A    
C53   H12   S    
C58   O73   D    
C69   C112  S    
C116  C134  A    
C130  N6    S    
C123  I2    S    
C13   C81   S    
C52   C95   S    
C78   H18   S    
C14   C176  T    
C147  O14   A    
C115  I10   S    
C111  C116  A    
C26   C48   A    
C57   C172  A    
C131  N5    S    
O30   Zn5   S    
C42   C103  A    
C53   C96   S    
C140  O2    A    
C119  C144  A    
C24   C173  A    
C66   O82   D    
C26   N5    A    
C153  O20   A    
C78   C166  S    
O36   Zn12  S    
C26   O59   S    
C34   C95   A    
C82   H21   S    
O2    Zn3   S    
O29   Zn8   S    
C35   C83   S    
C106  C112  A    
C21   C34   A    
O12   Zn13  S    
C161  O39   A    
C111  C169  A    
C39   C79   A    
C27   N6    A    
C50   C93   A    
C63   O78   D    
C63   C106  S    
O6    Zn15  S    
O57   Zn7   S    
C162  C174  S    
C33   O66   S    
C161  O28   A    
C74   C122  S    
C67   O83   D    
C126  C135  A    
C5    C157  S    
C128  I7    S    
C49   C92   A    
C80   H19   S    
O23   Zn3   S    
C89   C114  A    
O10   Zn11  S    
C75   C133  S    
O1    Zn1   S    
O7    Zn14  S    
O90   Zn4   S    
C58   H29   S    
C23   C37   A    
C55   O71   D    
C48   C108  A    
O24   Zn2   S    
C56   O72   D    
C64   H4    S    
C163  O30   A    
C47   C94   A    
C66   C109  S    
C53   O69   D    
O45   Zn14  S    
O35   Zn15  S    
O14   Zn12  S    
C73   H13   S    
C19   C41   A    
O11   Zn10  S    
C31   N6    A    
C9    C152  S    
C93   C94   A    
C14   C148  S    
C68   C86   S    
C139  O46   A    
C150  O41   A    
C37   C97   A    
C62   C105  S    
C65   H5    S    
C84   H24   S    
C19   O52   S    
C162  O40   A    
C144  C168  A    
C83   O98   D    
C40   C87   A    
C133  C167  A    
C104  C109  A    
C161  C175  S    
C164  O31   A    
O24   Zn14  S    
C63   H3    S    
C46   C171  A    
C117  I12   S    
C24   C82   S    
C3    C12   T    
C152  O48   A    
C52   H1    S    
C28   C50   A    
C4    C158  S    
C129  C138  A    
O34   Zn13  S    
O35   Zn11  S    
C18   N2    A    
C32   N7    A    
C160  O33   A    
C140  C172  S    
O13   Zn9   S    
C118  I13   S    
C160  C176  S    
C143  O6    A    
C28   O61   S    
C132  N8    S    
C156  O22   A    
C73   C111  S    
C36   C87   A    
C105  C108  A    
C158  O36   A    
C31   C44   A    
C153  O49   A    
O13   Zn7   S    
C143  C169  S    
C51   C94   A    
C119  I14   S    
C43   C91   A    
O24   Zn10  S    
C4    C11   T    
C35   C126  A    
C128  C137  A    
C36   C96   A    
C72   O87   D    
C71   C89   S    
C1    C165  A    
C119  C132  A    
C148  O43   A    
O8    Zn9   S    
C116  I11   S    
C117  C130  A    
C28   N7    A    
C15   C156  S    
C118  C133  A    
C159  O26   A    
C47   C107  A    
C150  O17   A    
C24   C125  A    
C139  C173  S    
C73   O88   D    
C114  I9    S    
C64   O80   D    
C45   C106  A    
C64   C107  S    
C49   C109  A    
C72   C100  S    
C77   O93   D    
C70   O85   D    
C6    C164  S    
O13   Zn3   S    
C29   O62   S    
C62   H2    S    
C23   N3    A    
C32   O65   S    
C127  I6    S    
C56   H28   S    
C21   N1    A    
C25   N4    A    
C86   O3    D    
C85   O100  D    
C15   C175  T    
C123  C136  A    
C100  C168  A    
O68   Zn2   S    
C5    C10   T    
C81   H20   S    
O28   Zn7   S    
C141  O4    A    
C145  O7    A    
C59   O74   D    
C68   C129  A    
C2    C80   S    
C69   H8    S    
C27   C49   A    
C152  O19   A    
