data_mof_unit_43263.cif
_audit_creation_date              2012-12-11T15:10:39-0500
_audit_creation_method            fapswitch 2.2
_symmetry_space_group_name_H-M    P1
_symmetry_Int_Tables_number       1
_space_group_crystal_system       triclinic
_cell_length_a                    21.130699
_cell_length_b                    7.236282
_cell_length_c                    18.257623
_cell_angle_alpha                 90.001237
_cell_angle_beta                  93.456956
_cell_angle_gamma                 90.002357
_cell_volume                      2786.6511896

loop_
_atom_site_label
_atom_site_type_symbol
_atom_type_description
_atom_site_fract_x
_atom_site_fract_y
_atom_site_fract_z
_atom_type_partial_charge
O1    O     O_R   0.448880 0.506250 0.415280 -0.542100
O2    O     O_R   0.551120 0.006250 0.584720 -0.542143
O3    O     O_R   0.434830 0.174000 0.557310 -0.530085
O4    O     O_R   0.565170 0.674000 0.442690 -0.530103
C1    C     C_R   0.417046 0.344581 0.579730 0.697071
C2    C     C_R   0.582955 0.844585 0.420272 0.697243
O5    O     O_R   0.441680 0.176440 0.414130 -0.518907
O6    O     O_R   0.558320 0.676440 0.585870 -0.518990
O7    O     O_R   0.558020 0.007570 0.440520 -0.512807
O8    O     O_R   0.441980 0.507570 0.559480 -0.512782
C3    C     C_R   0.428329 0.344614 0.388017 0.727671
C4    C     C_R   0.571662 0.844624 0.611991 0.727763
O9    O     O_3   0.538160 0.339670 0.508820 -0.367300
O10   O     O_3   0.461840 0.839670 0.491180 -0.367221
V1    V     V_3+5 0.492920 0.064260 0.498360 1.424947
V2    V     V_3+5 0.507080 0.564260 0.501640 1.424828
C5    C     C_R   0.873427 0.007776 0.689736 -0.164733
C6    C     C_R   0.126603 0.508232 0.310234 -0.164738
H1    H     H_    0.961548 0.035466 0.753148 0.108486
H2    H     H_    0.038479 0.535850 0.246827 0.108494
H3    H     H_    0.792063 0.021706 0.573866 0.122926
H4    H     H_    0.207982 0.522406 0.426085 0.122928
H5    H     H_    0.894342 0.050631 0.639697 0.115262
H6    H     H_    0.105702 0.551265 0.360260 0.115260
C7    C     C_R   0.886793 0.944101 0.819870 -0.040342
C8    C     C_R   0.113209 0.444164 0.180129 -0.040369
C9    C     C_R   0.581892 0.796576 0.746768 0.405928
C10   C     C_R   0.418075 0.296108 0.253273 0.405824
C11   C     C_R   0.619176 0.768515 0.812245 0.146448
C12   C     C_R   0.380797 0.268185 0.187782 0.146678
C13   C     C_R   0.684127 0.807571 0.815180 -0.245942
C14   C     C_R   0.315864 0.307495 0.184826 -0.245918
C15   C     C_R   0.714532 0.869595 0.752970 0.043693
C16   C     C_R   0.285469 0.369670 0.247026 0.043684
C17   C     C_R   0.677109 0.887951 0.685343 0.012944
C18   C     C_R   0.322898 0.388105 0.314646 0.012962
C19   C     C_R   0.781260 0.909773 0.755383 0.102020
C20   C     C_R   0.218748 0.409928 0.244608 0.102018
C21   C     C_R   0.808617 0.965283 0.689633 0.137311
C22   C     C_R   0.191407 0.465664 0.310342 0.137322
C23   C     C_R   0.771217 0.979709 0.624068 -0.200345
C24   C     C_R   0.228816 0.480231 0.375896 -0.200343
C25   C     C_R   0.706675 0.941976 0.621847 -0.155511
C26   C     C_R   0.293348 0.442378 0.378125 -0.155526
C27   C     C_R   0.821979 0.899359 0.820560 -0.216392
C28   C     C_R   0.178016 0.399346 0.179444 -0.216393
C29   C     C_R   0.911916 0.998578 0.754263 -0.164576
C30   C     C_R   0.088104 0.498881 0.245718 -0.164557
C31   C     C_R   0.610970 0.848866 0.682282 -0.227634
C32   C     C_R   0.389021 0.348793 0.317726 -0.227645
H7    H     H_    0.804774 0.862394 0.872947 0.095528
H8    H     H_    0.195206 0.362187 0.127069 0.095556
H9    H     H_    0.709929 0.784259 0.867047 0.139606
H10   H     H_    0.290065 0.284248 0.132951 0.139596
H11   H     H_    0.680035 0.956166 0.569621 0.109511
H12   H     H_    0.319994 0.456647 0.430345 0.109593
C33   C     C_1   0.864500 0.938982 0.132092 -0.209331
C34   C     C_1   0.135500 0.438984 0.867908 -0.209323
C35   C     C_1   0.821623 0.925035 0.175836 -0.003151
C36   C     C_1   0.178377 0.425031 0.824164 -0.003117
C37   C     C_1   0.771052 0.906079 0.227962 -0.002483
C38   C     C_1   0.228948 0.406063 0.772039 -0.002488
C39   C     C_1   0.728512 0.889571 0.272000 -0.006184
C40   C     C_1   0.271489 0.389547 0.728002 -0.006273
C41   C     C_1   0.678014 0.870428 0.324189 -0.007140
C42   C     C_1   0.321987 0.370401 0.675814 -0.007033
C43   C     C_1   0.635179 0.856102 0.367943 -0.200951
C44   C     C_1   0.364822 0.356085 0.632060 -0.200954
O11   O     O_R   0.058070 0.289240 0.940580 -0.520085
O12   O     O_R   0.941930 0.789240 0.059420 -0.520087
O13   O     O_R   0.058330 0.616740 0.085880 -0.532094
O14   O     O_R   0.941670 0.116740 0.914120 -0.532092
C45   C     C_R   0.072062 0.448901 0.111758 0.685510
C46   C     C_R   0.927938 0.948891 0.888242 0.685502
O15   O     O_R   0.065180 0.619040 0.942700 -0.521907
O16   O     O_R   0.934820 0.119040 0.057300 -0.521908
O17   O     O_R   0.948870 0.787780 0.915270 -0.529766
O18   O     O_R   0.051130 0.287780 0.084730 -0.529769
C47   C     C_R   0.083203 0.450327 0.920203 0.705655
C48   C     C_R   0.916797 0.950325 0.079797 0.705645
O19   O     O_3   0.961870 0.453310 0.991210 -0.365330
O20   O     O_3   0.038130 0.953310 0.008790 -0.365329
V3    V     V_3+5 0.007070 0.728770 0.001630 1.414322
V4    V     V_3+5 0.992930 0.228770 0.998370 1.414312
O21   O     O_3   0.517591 0.756542 0.744405 -0.579800
C49   C     C_3   0.481712 0.922314 0.743075 0.079755
H13   H     H_    0.437132 0.896320 0.709202 0.147156
H14   H     H_    0.505446 0.041345 0.717180 0.106686
C50   C     C_3   0.464872 0.975674 0.820716 -0.337706
H15   H     H_    0.441887 0.856577 0.846930 0.206173
H16   H     H_    0.508831 0.012023 0.854040 0.198723
C51   C     C_3   0.419952 0.140839 0.819621 -0.806319
H17   H     H_    0.441722 0.261743 0.793291 0.240936
H18   H     H_    0.409859 0.178628 0.876704 0.230325
H19   H     H_    0.374515 0.105454 0.789103 0.236069
O22   O     O_3   0.482337 0.255553 0.255690 -0.579755
C52   C     C_3   0.518392 0.421017 0.257054 0.080006
H20   H     H_    0.562662 0.395175 0.291507 0.147075
H21   H     H_    0.494546 0.540770 0.282316 0.106338
C53   C     C_3   0.535986 0.472803 0.179539 -0.337422
H22   H     H_    0.559043 0.352962 0.153928 0.206227
H23   H     H_    0.492341 0.509081 0.145637 0.198678
C54   C     C_3   0.581152 0.637418 0.180723 -0.806557
H24   H     H_    0.559289 0.759098 0.206403 0.240786
H25   H     H_    0.591843 0.673971 0.123706 0.230369
H26   H     H_    0.626277 0.602055 0.211892 0.236111
C55   C     C_3   0.591293 0.693314 0.880204 -0.771549
H27   H     H_    0.540557 0.655924 0.871049 0.237957
H28   H     H_    0.617323 0.566526 0.898465 0.207307
H29   H     H_    0.595901 0.797858 0.924721 0.194439
C56   C     C_3   0.408664 0.192847 0.119833 -0.771433
H30   H     H_    0.459380 0.155265 0.129003 0.237857
H31   H     H_    0.382576 0.066150 0.101562 0.207315
H32   H     H_    0.404121 0.297403 0.075313 0.194409

loop_
_geom_bond_atom_site_label_1
_geom_bond_atom_site_label_2
_ccdc_geom_bond_type
C42   C44   T    
C39   C41   S    
C9    C11   A    
O14   C46   A    
C23   C25   A    
C56   H30   S    
O1    C3    A    
O2    C4    A    
O16   V4    S    
C2    O7    A    
C4    C31   S    
O3    V1    S    
C21   C23   A    
O21   C49   S    
O5    C3    A    
C5    H5    S    
C6    H6    S    
C49   H14   S    
C33   C35   T    
O17   V3    S    
C34   C36   T    
C28   H8    S    
C8    C45   S    
C36   C38   S    
C7    C46   S    
C5    C21   A    
C14   H10   S    
C9    O21   S    
C6    C22   A    
C53   H22   S    
C38   C40   T    
C10   C32   A    
C54   H25   S    
C41   C43   T    
C46   O17   A    
C17   C31   A    
C55   H27   S    
C13   C15   A    
C50   H16   S    
C17   C25   A    
C7    C29   A    
C8    C30   A    
O5    V1    S    
O6    V2    S    
C55   H28   S    
C33   C48   S    
C24   C26   A    
C1    C44   S    
C53   H23   S    
C52   H21   S    
C52   H20   S    
O13   V3    S    
C35   C37   S    
O12   C48   A    
C12   C14   A    
C5    C29   A    
O4    C2    A    
O13   C45   A    
C49   H13   S    
C45   O18   A    
C53   C54   S    
C15   C19   A    
C14   C16   A    
C54   H26   S    
O4    V2    S    
O12   V3    S    
C26   H12   S    
O6    C4    A    
O22   C52   S    
C51   H18   S    
H1    C29   S    
C56   H31   S    
O1    V2    S    
O14   V4    S    
C13   H9    S    
C50   C51   S    
O2    V1    S    
H2    C30   S    
C34   C47   S    
H3    C23   S    
C25   H11   S    
C2    C43   S    
C55   H29   S    
O11   C47   A    
C19   C27   A    
C7    C27   A    
O19   V4    S    
C18   C32   A    
C52   C53   S    
C16   C20   A    
C37   C39   T    
O16   C48   A    
O3    C1    A    
C49   C50   S    
C6    C30   A    
C12   C56   S    
C10   O22   S    
C10   C12   A    
O7    V1    S    
C1    O8    A    
C19   C21   A    
O11   V4    S    
O8    V2    S    
C20   C22   A    
O15   V3    S    
H4    C24   S    
C22   C24   A    
C51   H17   S    
C15   C17   A    
C56   H32   S    
C16   C18   A    
C51   H19   S    
C20   C28   A    
C18   C26   A    
C8    C28   A    
O18   V4    S    
C11   C13   A    
O20   V3    S    
O9    V2    S    
C54   H24   S    
C3    C32   S    
C27   H7    S    
O10   V1    S    
C11   C55   S    
C50   H15   S    
O15   C47   A    
C9    C31   A    
C40   C42   S    
