data_mof_unit_37153.cif
_audit_creation_date              2012-12-10T18:39:03-0500
_audit_creation_method            fapswitch 2.2
_symmetry_space_group_name_H-M    P1
_symmetry_Int_Tables_number       1
_space_group_crystal_system       triclinic
_cell_length_a                    10.772731
_cell_length_b                    11.527106
_cell_length_c                    10.771696
_cell_angle_alpha                 90.082342
_cell_angle_beta                  90.106053
_cell_angle_gamma                 88.853321
_cell_volume                      1337.34063311

loop_
_atom_site_label
_atom_site_type_symbol
_atom_type_description
_atom_site_fract_x
_atom_site_fract_y
_atom_site_fract_z
_atom_type_partial_charge
C1    C     C_R   0.497650 0.281275 0.499880 0.867603
C2    C     C_3   0.120203 0.494342 0.497512 -0.373300
C3    C     C_3   0.879210 0.490447 0.502223 -0.401733
C4    C     C_1   0.500721 0.838890 0.500134 -0.213584
C5    C     C_1   0.496955 0.940919 0.499681 -0.028461
C6    C     C_R   0.256946 0.496566 0.499259 1.015949
C7    C     C_R   0.742949 0.492528 0.500414 0.979038
C8    C     C_1   0.500269 0.500289 0.069732 0.025877
C9    C     C_1   0.500187 0.500166 0.930255 0.008977
C10   C     C_R   0.504330 0.718685 0.500110 0.925146
C11   C     C_1   0.494432 0.161263 0.499479 -0.218371
C12   C     C_3   0.077475 0.406694 0.600171 0.330072
C13   C     C_3   0.071730 0.449567 0.367632 0.263799
C14   C     C_3   0.933663 0.390858 0.590079 0.221708
C15   C     C_3   0.932251 0.477711 0.364151 0.272876
C16   C     C_1   0.494069 0.059266 0.499247 -0.034634
C17   C     C_3   0.067704 0.622585 0.526843 0.699195
C18   C     C_3   0.923067 0.613516 0.556007 0.746176
H1    H     H_    0.099124 0.446952 0.691398 0.110283
H2    H     H_    0.113726 0.497994 0.289760 0.098854
H3    H     H_    0.896599 0.403770 0.685905 0.102965
H4    H     H_    0.926001 0.567304 0.326475 0.168206
N1    N     N_1   0.500000 0.500010 0.180630 -0.089536
N2    N     N_1   0.500000 0.500010 0.819370 -0.096029
O1    O     O_R   0.500000 0.334450 0.602530 -0.617703
O2    O     O_R   0.500000 0.334450 0.397470 -0.644906
O3    O     O_R   0.314800 0.499980 0.602530 -0.566077
O4    O     O_R   0.314800 0.499980 0.397470 -0.681662
O5    O     O_R   0.685200 0.499980 0.602530 -0.657804
O6    O     O_R   0.685200 0.499980 0.397470 -0.566001
O7    O     O_R   0.500000 0.665550 0.602530 -0.622642
O8    O     O_R   0.500000 0.665550 0.397470 -0.606449
Zn1   Zn    Zn3+2 0.500000 0.500000 0.636920 0.960138
Zn2   Zn    Zn3+2 0.500000 0.500000 0.363080 0.956200
O9    O     O_3   0.150411 0.302819 0.584790 -0.604740
C19   C     C_3   0.140505 0.215015 0.675717 0.159647
H5    H     H_    0.225219 0.159107 0.666290 0.148978
H6    H     H_    0.064083 0.157478 0.651220 0.178510
C20   C     C_3   0.133678 0.253832 0.812091 -0.434331
H7    H     H_    0.216532 0.305345 0.835676 0.239205
H8    H     H_    0.049392 0.308082 0.829444 0.203102
C21   C     C_3   0.128493 0.147036 0.896017 -0.970443
H9    H     H_    0.055845 0.086851 0.863943 0.252730
H10   H     H_    0.104826 0.172931 0.992136 0.279693
H11   H     H_    0.219562 0.100128 0.895926 0.270276
O10   O     O_3   0.086055 0.327400 0.352392 -0.588167
C22   C     C_3   0.200528 0.286070 0.304110 0.184805
H12   H     H_    0.193109 0.190168 0.299529 0.149318
H13   H     H_    0.276893 0.300167 0.369629 0.180214
C23   C     C_3   0.229957 0.329305 0.172799 -0.416967
H14   H     H_    0.145066 0.326862 0.114579 0.233955
H15   H     H_    0.261559 0.420105 0.175573 0.228750
C24   C     C_3   0.333404 0.255066 0.114024 -0.925346
H16   H     H_    0.419814 0.260298 0.169907 0.283843
H17   H     H_    0.352753 0.286690 0.018933 0.267291
H18   H     H_    0.306064 0.162876 0.108326 0.260201
O11   O     O_3   0.907136 0.276999 0.547128 -0.615504
C25   C     C_3   0.798100 0.230555 0.600939 0.017192
H19   H     H_    0.754700 0.173871 0.530513 0.150070
H20   H     H_    0.728580 0.297766 0.626090 0.172072
C26   C     C_3   0.825421 0.155880 0.715637 -0.390729
H21   H     H_    0.883260 0.079003 0.689194 0.204692
H22   H     H_    0.874385 0.207983 0.786009 0.230626
C27   C     C_3   0.706225 0.112336 0.774306 -0.931317
H23   H     H_    0.643887 0.186361 0.800311 0.276319
H24   H     H_    0.729406 0.062123 0.859438 0.257945
H25   H     H_    0.657329 0.054532 0.708795 0.269928
O12   O     O_3   0.867244 0.416700 0.268403 -0.621539
C28   C     C_3   0.826017 0.303333 0.294098 0.266315
H26   H     H_    0.753903 0.304157 0.366421 0.138198
H27   H     H_    0.901682 0.242467 0.320691 0.216736
C29   C     C_3   0.767210 0.255134 0.175976 -0.394534
H28   H     H_    0.690176 0.314028 0.145425 0.242211
H29   H     H_    0.837942 0.250940 0.100939 0.228516
C30   C     C_3   0.716175 0.134111 0.196638 -0.979339
H30   H     H_    0.791652 0.073064 0.226135 0.267109
H31   H     H_    0.675192 0.101768 0.108811 0.275403
H32   H     H_    0.642706 0.136885 0.268749 0.275472
O13   O     O_3   0.135288 0.662025 0.633925 -0.608675
C31   C     C_3   0.123289 0.780752 0.665170 -0.235103
H33   H     H_    0.105460 0.839438 0.585916 0.152663
H34   H     H_    0.212627 0.808071 0.706135 0.166729
H35   H     H_    0.052601 0.792832 0.738867 0.182197
O14   O     O_3   0.079407 0.696194 0.420222 -0.674105
C32   C     C_3   0.200013 0.733456 0.391751 -0.302125
H36   H     H_    0.234981 0.686607 0.308550 0.193742
H37   H     H_    0.266514 0.724530 0.469097 0.188083
H38   H     H_    0.194471 0.826856 0.367291 0.170858
O15   O     O_3   0.910265 0.616458 0.689085 -0.660272
C33   C     C_3   0.800145 0.665729 0.740158 -0.205822
H39   H     H_    0.757882 0.601180 0.802675 0.184625
H40   H     H_    0.728952 0.694800 0.672360 0.209412
H41   H     H_    0.824669 0.741061 0.798846 0.140779
O16   O     O_3   0.848858 0.700192 0.491290 -0.634561
C34   C     C_3   0.867611 0.818204 0.520642 -0.253242
H42   H     H_    0.890378 0.834807 0.618538 0.139596
H43   H     H_    0.779224 0.866313 0.502933 0.167363
H44   H     H_    0.936458 0.856677 0.457451 0.207326

loop_
_geom_bond_atom_site_label_1
_geom_bond_atom_site_label_2
_ccdc_geom_bond_type
C7    O5    A    
C28   C29   S    
C34   H42   S    
C1    C11   S    
C2    C12   S    
C33   H39   S    
C34   H44   S    
C20   H8    S    
C24   H16   S    
O3    Zn1   S    
C14   H3    S    
C19   H5    S    
C3    C7    S    
C28   H26   S    
C31   H35   S    
C13   O10   S    
C24   H18   S    
C25   H20   S    
O5    Zn1   S    
C17   O13   S    
C8    N1    T    
C3    C18   S    
C26   H22   S    
C28   H27   S    
C2    C13   S    
C5    C16   S    
C10   O7    A    
O2    Zn2   S    
C15   H4    S    
C6    O4    A    
O9    C19   S    
C8    C9    S    
C22   H12   S    
C23   H15   S    
O7    Zn1   S    
C22   C23   S    
C26   H21   S    
C29   H28   S    
C25   C26   S    
C32   H37   S    
O4    Zn2   S    
C7    O6    A    
C2    C17   S    
C1    O1    A    
C2    C6    S    
C21   H10   S    
C29   C30   S    
C17   C18   S    
C20   C21   S    
C24   H17   S    
C23   C24   S    
O6    Zn2   S    
C27   H25   S    
O14   C32   S    
C29   H29   S    
C20   H7    S    
O12   C28   S    
C25   H19   S    
C32   H36   S    
C21   H11   S    
C27   H24   S    
C26   C27   S    
C30   H30   S    
C11   C16   T    
C33   H40   S    
C6    O3    A    
N1    Zn2   S    
C23   H14   S    
C12   O9    S    
C30   H31   S    
C3    C14   S    
C31   H34   S    
C12   C14   S    
C13   C15   S    
C1    O2    A    
C18   O16   S    
C21   H9    S    
C4    C10   S    
C3    C15   S    
C33   H41   S    
C32   H38   S    
C14   O11   S    
O10   C22   S    
C13   H2    S    
C18   O15   S    
C19   C20   S    
C31   H33   S    
C34   H43   S    
C9    N2    T    
C22   H13   S    
N2    Zn1   S    
C17   O14   S    
C27   H23   S    
C19   H6    S    
O11   C25   S    
C15   O12   S    
C12   H1    S    
O16   C34   S    
C30   H32   S    
O13   C31   S    
C10   O8    A    
C4    C5    T    
O1    Zn1   S    
O15   C33   S    
O8    Zn2   S    
