data_mof_unit_17206.cif
_audit_creation_date              2012-12-10T17:45:34-0500
_audit_creation_method            fapswitch 2.2
_symmetry_space_group_name_H-M    P1
_symmetry_Int_Tables_number       1
_space_group_crystal_system       triclinic
_cell_length_a                    11.538333
_cell_length_b                    10.683997
_cell_length_c                    9.930649
_cell_angle_alpha                 90.953623
_cell_angle_beta                  90.151085
_cell_angle_gamma                 90.341241
_cell_volume                      1224.01001971

loop_
_atom_site_label
_atom_site_type_symbol
_atom_type_description
_atom_site_fract_x
_atom_site_fract_y
_atom_site_fract_z
_atom_type_partial_charge
C1    C     C_R   0.504282 0.260478 0.498726 0.942976
C2    C     C_R   0.509156 0.872060 0.504663 -0.052453
C3    C     C_R   0.349163 0.338622 0.136282 -0.305112
C4    C     C_R   0.282031 0.500930 0.499881 0.884129
C5    C     C_R   0.272719 0.259458 0.065402 0.497274
C6    C     C_R   0.274897 0.256732 0.924516 0.069238
C7    C     C_R   0.350045 0.337605 0.857553 -0.264361
C8    C     C_R   0.425665 0.420409 0.926459 0.132853
C9    C     C_R   0.425585 0.420542 0.070550 0.106876
C10   C     C_R   0.571359 0.575834 0.073029 -0.099685
C11   C     C_R   0.571343 0.575786 0.930049 -0.114985
C12   C     C_R   0.762140 0.072810 0.731842 0.498373
C13   C     C_R   0.502808 0.739527 0.501383 0.852236
C14   C     C_R   0.717759 0.506251 0.500358 0.966553
C15   C     C_1   0.161551 0.506660 0.499874 -0.204511
C16   C     C_1   0.059392 0.511537 0.500546 -0.010663
C17   C     C_1   0.940649 0.514724 0.501347 -0.007551
C18   C     C_1   0.838348 0.513225 0.501301 -0.182661
C19   C     C_R   0.695730 0.130875 0.631696 0.416025
C20   C     C_3   0.200228 0.166099 0.843086 -0.385389
C21   C     C_3   0.112536 0.234420 0.755829 -0.788531
C22   C     C_3   0.813195 0.200129 0.467456 -0.315455
C23   C     C_R   0.750951 0.944258 0.748267 -0.303065
C24   C     C_3   0.799955 0.231303 0.882095 -0.284377
C25   C     C_3   0.107223 0.245441 0.187457 -0.338992
C26   C     C_R   0.671296 0.875710 0.671005 -0.297247
C27   C     C_R   0.591958 0.936733 0.585260 0.041905
C28   C     C_R   0.599478 0.066989 0.573254 -0.085490
C29   C     C_R   0.515324 0.128020 0.494798 -0.070663
C30   C     C_R   0.434233 0.062098 0.417447 -0.235861
C31   C     C_R   0.432665 0.934169 0.420373 -0.189034
H1    H     H_    0.370581 0.109957 0.356786 0.179119
H2    H     H_    0.156981 0.292498 0.679990 0.234521
H3    H     H_    0.057706 0.164832 0.700797 0.278462
H4    H     H_    0.256936 0.107979 0.777149 0.199553
H5    H     H_    0.152036 0.100938 0.908853 0.263993
H6    H     H_    0.835488 0.281618 0.405325 0.180303
H7    H     H_    0.771816 0.130384 0.397497 0.153945
H8    H     H_    0.895341 0.162111 0.508432 0.178582
H9    H     H_    0.728435 0.194697 0.945879 0.147370
H10   H     H_    0.768727 0.310134 0.820325 0.214061
H11   H     H_    0.867790 0.269171 0.951090 0.170986
H12   H     H_    0.346955 0.332429 0.751060 0.232006
H13   H     H_    0.058475 0.293636 0.106615 0.168109
H14   H     H_    0.135662 0.313967 0.266518 0.166408
H15   H     H_    0.046701 0.178617 0.235352 0.191825
H16   H     H_    0.629756 0.637726 0.877838 0.135694
H17   H     H_    0.807959 0.896327 0.816907 0.183918
H18   H     H_    0.674204 0.775416 0.679958 0.188833
H19   H     H_    0.369314 0.883335 0.359513 0.167359
H20   H     H_    0.629702 0.637914 0.127847 0.143670
H21   H     H_    0.346422 0.332186 0.242801 0.222166
H22   H     H_    0.056475 0.295173 0.819466 0.274676
N1    N     N_R   0.498930 0.498800 0.142780 -0.101942
N2    N     N_R   0.498900 0.498720 0.857170 -0.106943
O1    O     O_R   0.500000 0.316780 0.614690 -0.631901
O2    O     O_3   0.849347 0.136158 0.800714 -0.613439
O3    O     O_3   0.201916 0.177908 0.134635 -0.620054
O4    O     O_R   0.499990 0.316750 0.385360 -0.636824
O5    O     O_R   0.334450 0.500030 0.614670 -0.624639
O6    O     O_R   0.334440 0.500000 0.385330 -0.630682
O7    O     O_R   0.500010 0.683250 0.614640 -0.623064
O8    O     O_R   0.500000 0.683220 0.385310 -0.616880
O9    O     O_R   0.665560 0.500000 0.614670 -0.600668
O10   O     O_R   0.665550 0.499970 0.385330 -0.622091
O11   O     O_3   0.738391 0.237943 0.573269 -0.605701
Zn1   Zn    Zn3+2 0.500010 0.500020 0.653130 0.945447
Zn2   Zn    Zn3+2 0.499990 0.499980 0.346870 0.941469

loop_
_geom_bond_atom_site_label_1
_geom_bond_atom_site_label_2
_ccdc_geom_bond_type
C8    C9    A    
N2    Zn1   S    
C3    H21   S    
C6    C7    A    
C3    C9    A    
C7    H12   S    
O4    Zn2   S    
C21   H22   S    
O1    Zn1   S    
C24   H11   S    
C14   C18   S    
C11   H16   S    
O6    Zn2   S    
O10   Zn2   S    
C14   O9    A    
C4    O5    A    
C4    C15   S    
C1    C29   S    
C17   C18   T    
C7    C8    A    
C4    O6    A    
C23   H17   S    
C30   H1    S    
C19   C28   A    
C22   H6    S    
C12   C23   A    
C5    O3    S    
C26   C27   A    
C2    C27   A    
C24   H10   S    
C6    C20   S    
C5    C6    A    
C12   O2    S    
O7    Zn1   S    
C8    N2    A    
C28   C29   A    
C24   H9    S    
C14   O10   A    
N1    Zn2   S    
C13   O8    A    
C1    O4    A    
C25   H13   S    
C30   C31   A    
C10   N1    A    
C16   C17   S    
C26   H18   S    
C21   H2    S    
C10   C11   A    
C22   H8    S    
C31   H19   S    
C29   C30   A    
C15   C16   T    
C22   H7    S    
O9    Zn1   S    
C25   H14   S    
C10   H20   S    
C11   N2    A    
C20   C21   S    
C12   C19   A    
C19   O11   S    
C25   O3    S    
C23   C26   A    
C27   C28   A    
C2    C13   S    
O8    Zn2   S    
C2    C31   A    
C21   H3    S    
C20   H4    S    
C9    N1    A    
C25   H15   S    
C1    O1    A    
C22   O11   S    
C13   O7    A    
O5    Zn1   S    
C24   O2    S    
C3    C5    A    
C20   H5    S    
