data_mof_unit_17843.cif
_audit_creation_date              2013-03-05T15:53:28-0500
_audit_creation_method            fapswitch 2.2
_symmetry_space_group_name_H-M    P1
_symmetry_Int_Tables_number       1
_space_group_crystal_system       triclinic
_cell_length_a                    24.51092
_cell_length_b                    17.27517
_cell_length_c                    15.57523
_cell_angle_alpha                 90.261431
_cell_angle_beta                  129.538521
_cell_angle_gamma                 89.464665
_cell_volume                      5085.83130905

loop_
_atom_site_label
_atom_site_type_symbol
_atom_site_description
_atom_site_fract_x
_atom_site_fract_y
_atom_site_fract_z
_atom_type_partial_charge
C1    C     C_R   0.835015 0.884838 0.203810 -0.048254
C2    C     C_R   0.165276 0.884138 0.795945 -0.037888
C3    C     C_R   0.335074 0.384472 0.204204 -0.041959
C4    C     C_R   0.666475 0.386376 0.797509 -0.046262
H1    H     H_    0.781601 0.883849 0.174610 0.166004
H2    H     H_    0.218673 0.882556 0.825020 0.166039
H3    H     H_    0.281882 0.382817 0.175741 0.165967
H4    H     H_    0.719679 0.385296 0.825718 0.165592
N1    N     N_R   0.888400 0.921830 0.294620 -0.058121
N2    N     N_R   0.111600 0.921830 0.705380 -0.053261
N3    N     N_R   0.388400 0.421830 0.294620 -0.055783
N4    N     N_R   0.611600 0.421830 0.705380 -0.059087
C5    C     C_R   0.101406 0.870430 0.406655 0.162077
C6    C     C_R   0.901594 0.867298 0.593527 0.175139
C7    C     C_R   0.598512 0.366832 0.406402 0.168921
C8    C     C_R   0.398669 0.368118 0.590144 0.204253
N5    N     N_R   0.079940 0.922160 0.443410 -0.070448
N6    N     N_R   0.920060 0.922160 0.556590 -0.072315
N7    N     N_R   0.579940 0.422160 0.443410 -0.071369
N8    N     N_R   0.420060 0.422160 0.556590 -0.079155
C9    C     C_R   0.170301 0.863211 0.592732 -0.105197
C10   C     C_R   0.833350 0.860648 0.407776 -0.118263
C11   C     C_R   0.666964 0.360200 0.592316 -0.118376
C12   C     C_R   0.329438 0.365010 0.403881 -0.137553
H5    H     H_    0.210458 0.847749 0.678845 0.118757
H6    H     H_    0.793839 0.845249 0.321746 0.113657
H7    H     H_    0.706387 0.344423 0.678336 0.113215
H8    H     H_    0.284346 0.355376 0.317642 0.130608
N9    N     N_R   0.125650 0.922400 0.556620 -0.050278
N10   N     N_R   0.874350 0.922400 0.443380 -0.064960
N11   N     N_R   0.625650 0.422400 0.556620 -0.063987
N12   N     N_R   0.374350 0.422400 0.443380 -0.067154
C13   C     C_R   0.074045 0.884632 0.796182 -0.065496
C14   C     C_R   0.926539 0.884211 0.204187 -0.057359
C15   C     C_R   0.577195 0.389377 0.801060 -0.033657
C16   C     C_R   0.426114 0.384812 0.203536 -0.064724
H9    H     H_    0.044448 0.882721 0.825661 0.164641
H10   H     H_    0.956922 0.881141 0.175950 0.162936
H11   H     H_    0.552614 0.394641 0.838122 0.169060
H12   H     H_    0.455806 0.382711 0.174141 0.166810
N13   N     N_R   0.054230 0.922730 0.705400 -0.063940
N14   N     N_R   0.945770 0.922730 0.294600 -0.063272
N15   N     N_R   0.554230 0.422730 0.705400 -0.065935
N16   N     N_R   0.445770 0.422730 0.294600 -0.063614
C17   C     C_R   0.857429 0.859879 0.146307 0.064121
C18   C     C_R   0.143144 0.859691 0.853679 0.059851
C19   C     C_R   0.357146 0.360230 0.145942 0.064550
C20   C     C_R   0.645938 0.364295 0.857879 0.052067
C21   C     C_R   0.153154 0.825617 0.499635 0.044930
C22   C     C_R   0.851759 0.821810 0.500847 0.049954
C23   C     C_R   0.648353 0.320984 0.499236 0.051315
C24   C     C_R   0.344868 0.329553 0.494532 0.009522
C25   C     C_R   0.808444 0.087092 0.410333 -0.076171
C26   C     C_R   0.187993 0.103438 0.591050 -0.080439
C27   C     C_R   0.308300 0.587400 0.409349 -0.066595
C28   C     C_R   0.691397 0.587264 0.589500 -0.075708
N17   N     N_R   0.873790 0.077030 0.443380 -0.078636
N18   N     N_R   0.126210 0.077030 0.556620 -0.063944
N19   N     N_R   0.373790 0.577030 0.443380 -0.078048
N20   N     N_R   0.626210 0.577030 0.556620 -0.079166
C29   C     C_R   0.940813 0.139949 0.240730 -0.085871
C30   C     C_R   0.059128 0.139197 0.761085 -0.101724
C31   C     C_R   0.440484 0.639525 0.239785 -0.095726
C32   C     C_R   0.559451 0.639453 0.760995 -0.093898
H13   H     H_    0.976514 0.153675 0.224914 0.147463
H14   H     H_    0.023160 0.152720 0.776841 0.154270
H15   H     H_    0.476172 0.653052 0.223814 0.153907
H16   H     H_    0.523610 0.653295 0.776941 0.155987
N21   N     N_R   0.945200 0.076700 0.294600 -0.054930
N22   N     N_R   0.054800 0.076700 0.705400 -0.054596
N23   N     N_R   0.445200 0.576700 0.294600 -0.054619
N24   N     N_R   0.554800 0.576700 0.705400 -0.057219
C33   C     C_R   0.148762 0.141104 0.757623 0.018875
C34   C     C_R   0.851450 0.142333 0.245263 0.016907
C35   C     C_R   0.648944 0.640977 0.756611 0.012686
C36   C     C_R   0.351117 0.641886 0.244353 0.021356
H17   H     H_    0.195813 0.156457 0.770558 0.128992
H18   H     H_    0.804928 0.157919 0.234984 0.163379
H19   H     H_    0.695723 0.655442 0.767663 0.168305
H20   H     H_    0.304462 0.657274 0.233628 0.168619
N25   N     N_R   0.111030 0.077600 0.705380 -0.043831
N26   N     N_R   0.888970 0.077600 0.294620 -0.047034
N27   N     N_R   0.611030 0.577600 0.705380 -0.047535
N28   N     N_R   0.388970 0.577600 0.294620 -0.046215
C37   C     C_R   0.885410 0.100914 0.592554 -0.087818
C38   C     C_R   0.111773 0.105345 0.406055 -0.082869
C39   C     C_R   0.384800 0.600947 0.591762 -0.100855
C40   C     C_R   0.614082 0.601072 0.407164 -0.090468
H21   H     H_    0.910523 0.103144 0.679123 0.152054
H22   H     H_    0.089384 0.108184 0.319814 0.132056
H23   H     H_    0.409347 0.604108 0.678280 0.150359
H24   H     H_    0.588813 0.603403 0.320568 0.154168
N29   N     N_R   0.919490 0.077280 0.556590 -0.061512
N30   N     N_R   0.080510 0.077280 0.443410 -0.050305
N31   N     N_R   0.419490 0.577280 0.556590 -0.062895
N32   N     N_R   0.580510 0.577280 0.443410 -0.062540
Ni1   Ni    Ni4+2 0.882160 0.999430 0.370180 0.272824
Ni2   Ni    Ni4+2 0.117840 0.999430 0.629820 0.274086
Ni3   Ni    Ni4+2 0.382160 0.499430 0.370180 0.268908
Ni4   Ni    Ni4+2 0.617840 0.499430 0.629820 0.270233
Ni5   Ni    Ni4+2 0.012460 0.999430 0.370180 0.248427
Ni6   Ni    Ni4+2 0.987540 0.999430 0.629820 0.247061
Ni7   Ni    Ni4+2 0.512460 0.499430 0.370180 0.249227
Ni8   Ni    Ni4+2 0.487540 0.499430 0.629820 0.241692
C41   C     C_R   0.814151 0.106079 0.502690 0.052574
C42   C     C_R   0.178807 0.122417 0.497225 0.022715
C43   C     C_R   0.313517 0.606282 0.500949 0.045780
C44   C     C_R   0.685233 0.606817 0.496948 0.055795
C45   C     C_R   0.882904 0.183505 0.210534 0.032183
C46   C     C_R   0.117368 0.181944 0.793220 0.041306
C47   C     C_R   0.382172 0.682701 0.208750 0.026152
C48   C     C_R   0.617854 0.682000 0.792725 0.030949
C49   C     C_R   0.853254 0.698121 0.588967 0.096335
C50   C     C_R   0.145655 0.700738 0.407432 0.096606
C51   C     C_R   0.282535 0.209300 0.431623 0.081332
C52   C     C_R   0.644579 0.195625 0.410750 0.088431
C53   C     C_R   0.823782 0.746083 0.496863 0.056115
C54   C     C_R   0.176733 0.746772 0.501882 0.054140
C55   C     C_R   0.296027 0.280382 0.482977 0.056389
C56   C     C_R   0.674442 0.243452 0.503108 0.054430
C57   C     C_R   0.763676 0.716589 0.394762 -0.223744
C58   C     C_R   0.233799 0.712073 0.603365 -0.219736
C59   C     C_R   0.255456 0.307078 0.511190 -0.164151
C60   C     C_R   0.733872 0.212535 0.605191 -0.225021
H25   H     H_    0.744562 0.740906 0.316240 0.156320
H26   H     H_    0.252072 0.734165 0.682627 0.157835
H27   H     H_    0.258033 0.366742 0.535304 0.191537
H28   H     H_    0.752658 0.236437 0.683826 0.158737
C61   C     C_R   0.215701 0.254496 0.516192 0.219286
C62   C     C_R   0.772530 0.151391 0.607476 0.201606
C63   C     C_R   0.725473 0.655560 0.392110 0.199626
C64   C     C_R   0.270109 0.648866 0.603327 0.195004
C65   C     C_R   0.217841 0.176532 0.491283 0.027284
C66   C     C_R   0.757190 0.128405 0.506048 0.021644
C67   C     C_R   0.741485 0.631209 0.493452 0.016842
C68   C     C_R   0.255797 0.628705 0.502203 0.014467
C69   C     C_R   0.243406 0.156954 0.435941 0.007724
C70   C     C_R   0.688307 0.147191 0.408653 0.064868
C71   C     C_R   0.810081 0.649708 0.590755 0.068888
C72   C     C_R   0.188250 0.650793 0.404627 0.079292
C73   C     C_3   0.858188 0.651202 0.715812 0.039543
C74   C     C_3   0.144828 0.660467 0.280961 0.040441
C75   C     C_3   0.285653 0.089826 0.443823 0.115529
C76   C     C_3   0.641730 0.151990 0.283837 0.048030
C77   C     C_3   0.909566 0.696913 0.712356 -0.448330
C78   C     C_3   0.093398 0.707684 0.283787 -0.452550
C79   C     C_3   0.330141 0.149178 0.441002 -0.504989
C80   C     C_3   0.589680 0.197569 0.287092 -0.445219
H29   H     H_    0.880452 0.594012 0.756389 0.163213
H30   H     H_    0.120523 0.606391 0.232320 0.164461
H31   H     H_    0.253739 0.053379 0.367670 0.146684
H32   H     H_    0.619408 0.095880 0.240308 0.164263
H33   H     H_    0.925725 0.751822 0.757058 0.252940
H34   H     H_    0.082074 0.765387 0.247592 0.250815
H35   H     H_    0.385495 0.154027 0.519902 0.233187
H36   H     H_    0.574245 0.253725 0.245527 0.251926
H37   H     H_    0.955546 0.661112 0.737150 0.213941
H38   H     H_    0.044450 0.675146 0.249721 0.223325
H39   H     H_    0.324407 0.145681 0.364320 0.200083
H40   H     H_    0.543106 0.162438 0.258927 0.212646
H41   H     H_    0.798215 0.286176 0.199638 0.167270
H42   H     H_    0.202897 0.282187 0.806087 0.169586
H43   H     H_    0.298185 0.785670 0.198490 0.171336
H44   H     H_    0.702613 0.782542 0.804171 0.168413
C81   C     C_2   0.187328 0.818038 0.959477 -0.178373
C82   C     C_2   0.813505 0.817200 0.041395 -0.188451
C83   C     C_2   0.690072 0.322657 0.963755 -0.195800
C84   C     C_2   0.313026 0.318515 0.040165 -0.190285
C85   C     C_2   0.252797 0.845170 0.043661 0.215143
C86   C     C_2   0.747097 0.843486 0.957524 0.224210
C87   C     C_2   0.755984 0.348466 0.047875 0.226729
C88   C     C_2   0.245979 0.343931 0.957917 0.223387
C89   C     C_2   0.854145 0.254649 0.142670 -0.065976
C90   C     C_2   0.147262 0.251813 0.863572 -0.073878
C91   C     C_2   0.352009 0.752604 0.138505 -0.071947
C92   C     C_2   0.648255 0.751558 0.863586 -0.078261
C93   C     C_2   0.807508 0.297807 0.141531 -0.209314
C94   C     C_2   0.194211 0.293626 0.865046 -0.189036
C95   C     C_2   0.305492 0.795655 0.137765 -0.204589
C96   C     C_2   0.694980 0.793369 0.864540 -0.203069
I1    I     I_    0.156616 0.296984 0.563763 -0.365381
I2    I     I_    0.844992 0.098453 0.766805 -0.290897
I3    I     I_    0.654144 0.602751 0.232769 -0.278342
I4    I     I_    0.336127 0.584453 0.754154 -0.292550
I5    I     I_    0.819022 0.723062 0.779575 -0.352478
I6    I     I_    0.192382 0.734262 0.234436 -0.373335
I7    I     I_    0.345188 0.024999 0.596191 -0.244505
I8    I     I_    0.682724 0.225302 0.225555 -0.335936
I9    I     I_    0.286098 0.960332 0.050518 -0.348324
I10   I     I_    0.711865 0.958924 0.948077 -0.272867
I11   I     I_    0.791436 0.462153 0.054009 -0.288669
I12   I     I_    0.209413 0.458308 0.950250 -0.285518
C97   C     C_2   0.869190 0.269979 0.065759 1.087262
O1    O     O_2   0.930391 0.275563 0.102702 -0.629119
O2    O     O_R   0.813701 0.276435 0.951293 -0.806032
H45   H     H_    0.830841 0.286409 0.907863 0.327140
C98   C     C_2   0.132836 0.267157 0.941476 1.075280
O3    O     O_2   0.071819 0.269857 0.906223 -0.630803
O4    O     O_R   0.188743 0.276874 0.055098 -0.815600
H46   H     H_    0.171994 0.286597 0.099295 0.323847
C99   C     C_2   0.365271 0.766314 0.059103 1.090381
O5    O     O_2   0.425985 0.771569 0.093732 -0.624355
O6    O     O_R   0.308709 0.771366 0.944949 -0.808001
H47   H     H_    0.324714 0.780194 0.899701 0.328115
C100  C     C_2   0.634716 0.766387 0.942672 1.096165
O7    O     O_2   0.573925 0.769712 0.908351 -0.618949
O8    O     O_R   0.691167 0.774788 0.056312 -0.811016
H48   H     H_    0.674963 0.784149 0.101333 0.326670
C101  C     C_2   0.160246 0.741653 0.961867 1.086872
O9    O     O_2   0.096710 0.733232 0.909205 -0.638698
O10   O     O_R   0.205914 0.678720 0.019723 -0.784297
H49   H     H_    0.180422 0.630709 0.014337 0.368386
C102  C     C_2   0.841589 0.740373 0.040423 1.089625
O11   O     O_2   0.905299 0.731441 0.094155 -0.640999
O12   O     O_R   0.796634 0.677653 0.982445 -0.784481
H50   H     H_    0.822788 0.629344 0.988752 0.369270
C103  C     C_2   0.662278 0.246743 0.965832 1.089280
O13   O     O_2   0.599105 0.240141 0.917537 -0.584693
O14   O     O_R   0.706775 0.182185 0.017964 -0.786763
H51   H     H_    0.680954 0.134525 0.012660 0.370952
C104  C     C_2   0.341953 0.243318 0.036157 1.062505
O15   O     O_2   0.405411 0.236646 0.085846 -0.637737
O16   O     O_R   0.298170 0.179447 0.980321 -0.798581
H52   H     H_    0.324881 0.132132 0.985415 0.347668
I13   I     I_    0.114426 0.915310 0.294060 -0.386389
I14   I     I_    0.892496 0.901914 0.714331 -0.317986
I15   I     I_    0.609588 0.402869 0.288569 -0.306229
I16   I     I_    0.416014 0.366296 0.742331 -0.267753
C105  C     C_2   0.750346 0.039799 0.317151 0.972227
O17   O     O_2   0.739281 0.038242 0.228786 -0.640257
O18   O     O_R   0.712058 0.991694 0.333487 -0.797711
H53   H     H_    0.675744 0.959618 0.265276 0.333258
C106  C     C_2   0.256210 0.091711 0.703549 1.011832
O19   O     O_2   0.307227 0.131279 0.735839 -0.576360
O20   O     O_R   0.262193 0.035043 0.773016 -0.811538
H54   H     H_    0.311495 0.031945 0.847826 0.341658
C107  C     C_2   0.249607 0.541403 0.314685 0.962023
O21   O     O_2   0.240116 0.538790 0.227632 -0.643269
O22   O     O_R   0.208484 0.495968 0.327986 -0.812437
H55   H     H_    0.171797 0.464759 0.258974 0.332270
C108  C     C_2   0.750104 0.539296 0.681876 0.974432
O23   O     O_2   0.761539 0.536913 0.770491 -0.643424
O24   O     O_R   0.788496 0.491358 0.664347 -0.796374
H56   H     H_    0.825241 0.458701 0.732033 0.331961

loop_
_geom_bond_atom_site_label_1
_geom_bond_atom_site_label_2
_geom_bond_distance
_ccdc_geom_bond_type
C12   C24   1.354779 A    
O6    H47   1.013885 S    
C40   N32   1.328402 A    
C65   C69   1.389645 A    
C18   C81   1.459491 S    
C27   N19   1.342382 A    
C22   C53   1.465368 S    
N19   Ni3   1.848714 S    
C99   O5    1.222249 D    
C6    N6    1.333629 A    
O16   H52   1.013661 S    
C14   N14   1.341711 A    
C25   C41   1.391680 A    
C85   I9    2.133763 S    
C84   C104  1.494167 S    
C76   C80   1.520986 S    
C79   H39   1.111593 S    
C55   C59   1.393062 A    
C36   N28   1.330773 A    
C34   C45   1.391981 A    
C9    C21   1.386192 A    
C73   H29   1.108966 S    
C33   C46   1.388074 A    
C38   C42   1.355618 A    
C102  O11   1.222913 D    
C88   I12   2.134123 S    
C7    N7    1.331891 A    
C20   C83   1.460147 S    
N10   Ni1   1.844925 S    
C35   C48   1.389697 A    
C104  O15   1.223270 D    
N9    Ni2   1.834811 S    
C1    H1    1.078650 S    
C32   H16   1.078846 S    
C72   C74   1.503397 S    
C6    I14   2.114003 S    
N4    N15   1.406330 A    
C3    H3    1.077902 S    
C5    I13   2.123193 S    
C40   C44   1.379768 A    
C45   C89   1.473657 S    
C64   C68   1.420871 A    
C32   C48   1.396191 A    
N25   Ni2   1.862217 S    
C88   C94   1.459415 S    
O24   H56   1.013852 S    
C107  O22   1.398975 S    
C51   C79   1.491089 S    
N5    N9    1.359846 A    
N13   Ni6   1.826807 S    
C30   N22   1.343714 A    
C16   C19   1.386337 A    
N3    Ni3   1.848357 S    
C108  O23   1.221863 D    
N6    Ni6   1.855779 S    
C49   C77   1.490462 S    
N2    Ni2   1.858195 S    
N22   N25   1.378678 A    
C74   C78   1.519039 S    
N15   Ni8   1.826809 S    
C28   C44   1.393226 A    
N5    Ni5   1.840975 S    
N21   N26   1.378392 A    
C38   N30   1.318295 A    
C37   N29   1.328719 A    
C68   C72   1.409371 A    
C35   N27   1.328892 A    
C42   C65   1.388570 S    
C11   C23   1.386941 A    
O22   H55   1.013804 S    
N30   Ni5   1.870149 S    
C97   O2    1.397313 S    
C39   N31   1.332208 A    
C86   I10   2.133775 S    
O20   H54   1.013642 S    
C49   C71   1.369058 A    
N6    N10   1.359829 A    
C50   C72   1.370134 A    
C4    N4    1.333644 A    
C15   N15   1.342654 A    
C106  O19   1.223090 D    
C90   C94   1.352130 D    
C61   I1    2.127527 S    
H44   C96   1.084337 S    
C4    H4    1.078958 S    
C10   C22   1.387636 A    
C77   H33   1.091461 S    
C37   H21   1.068482 S    
C75   H31   1.111877 S    
C29   C45   1.391171 A    
C69   C75   1.499722 S    
N7    N11   1.359846 A    
O4    H46   1.013929 S    
C80   H40   1.112154 S    
C107  O21   1.221704 D    
C59   C61   1.376419 A    
N2    N13   1.406330 A    
C13   C18   1.383817 A    
C99   O6    1.397025 S    
C2    H2    1.078725 S    
N19   N31   1.359845 A    
C57   C63   1.399599 A    
C37   C41   1.379638 A    
C15   C20   1.378890 A    
C58   C64   1.402466 A    
N16   Ni7   1.841113 S    
N8    N12   1.359829 A    
C101  O9    1.223123 D    
C52   C70   1.370207 A    
C11   H7    1.073838 S    
C100  O8    1.397020 S    
C81   C85   1.357774 D    
C74   I6    2.149514 S    
C31   H15   1.078435 S    
N4    Ni4   1.858195 S    
C39   H23   1.071678 S    
C30   H14   1.078464 S    
C60   C62   1.397678 A    
O8    H48   1.013900 S    
C51   C69   1.356824 A    
C16   H12   1.078968 S    
C1    N1    1.331199 A    
C91   C99   1.485641 S    
C44   C67   1.479272 S    
C8    C24   1.381152 A    
C38   H22   1.081391 S    
C1    C17   1.381439 A    
O14   H51   1.013805 S    
C52   C80   1.490417 S    
C25   N17   1.344066 A    
C91   C95   1.349356 D    
O2    H45   1.013910 S    
N24   Ni8   1.855094 S    
C28   C108  1.476481 S    
C103  O13   1.223122 D    
C100  O7    1.222225 D    
C9    N9    1.326746 A    
C13   H9    1.078366 S    
C24   C55   1.389370 S    
C28   N20   1.345043 A    
C51   C55   1.385236 A    
C86   C96   1.460345 S    
C108  O24   1.398700 S    
C11   N11   1.325691 A    
C92   C100  1.486270 S    
C58   H26   1.079438 S    
C15   H11   1.070421 S    
O12   H50   1.013723 S    
C12   N12   1.313698 A    
C57   H25   1.078506 S    
C43   C68   1.475439 S    
C29   H13   1.077750 S    
C77   H37   1.112143 S    
N23   Ni7   1.840599 S    
C92   C96   1.351783 D    
C59   H27   1.083929 S    
O10   H49   1.013740 S    
C78   H34   1.090521 S    
C105  O18   1.398767 S    
C89   C93   1.349542 D    
C8    N8    1.334942 A    
N17   Ni1   1.848714 S    
C76   I8    2.152480 S    
C23   C56   1.463598 S    
N1    N14   1.406623 A    
C87   I11   2.132089 S    
N3    N16   1.406623 A    
C14   C17   1.387211 A    
C40   H24   1.068076 S    
N11   Ni4   1.834812 S    
C27   C107  1.478177 S    
C26   C42   1.370342 A    
C106  O20   1.398373 S    
C50   C78   1.490768 S    
C50   C54   1.396660 A    
C33   N25   1.331775 A    
C5    C21   1.399498 A    
N20   N32   1.359832 A    
C48   C92   1.474732 S    
C31   N23   1.341879 A    
C82   C86   1.358871 D    
C89   C97   1.486028 S    
C7    C23   1.397789 A    
N27   Ni4   1.862216 S    
C2    C18   1.382046 A    
C62   I2    2.127876 S    
C26   N18   1.328785 A    
N26   Ni1   1.872237 S    
C49   C53   1.395176 A    
C16   N16   1.341743 A    
C73   I5    2.151568 S    
H41   C93   1.084594 S    
C2    N2    1.331981 A    
N14   Ni5   1.841112 S    
C75   C79   1.524662 S    
C34   N26   1.332575 A    
C79   H35   1.111917 S    
N31   Ni8   1.855157 S    
C12   H8    1.079215 S    
C4    C20   1.375675 A    
N23   N28   1.378392 A    
C17   C82   1.461770 S    
C29   N21   1.341893 A    
C9    H5    1.075464 S    
C8    I16   2.125492 S    
C90   C98   1.486306 S    
N1    Ni1   1.848357 S    
C61   C65   1.409636 A    
C10   N10   1.326851 A    
C14   H10   1.080240 S    
N28   Ni3   1.872237 S    
C75   I7    2.144786 S    
C36   H20   1.076008 S    
C47   C91   1.472213 S    
N20   Ni4   1.859006 S    
N29   Ni6   1.855158 S    
C66   C70   1.410832 A    
C83   C87   1.355935 D    
N22   Ni6   1.855095 S    
C78   H38   1.111885 S    
C53   C57   1.408086 A    
N18   Ni2   1.859007 S    
C103  O14   1.396647 S    
C67   C71   1.409690 A    
C63   C67   1.427123 A    
C105  O17   1.221915 D    
N12   Ni3   1.844925 S    
C60   H28   1.078652 S    
C13   N13   1.340322 A    
C74   H30   1.109442 S    
C98   O4    1.397075 S    
N18   N30   1.359832 A    
C102  O12   1.396452 S    
C104  O16   1.396620 S    
C70   C76   1.504492 S    
C64   I4    2.127352 S    
H43   C95   1.083577 S    
C19   C84   1.462328 S    
C71   C73   1.503623 S    
C81   C101  1.493833 S    
C6    C22   1.398543 A    
C46   C90   1.475352 S    
C30   C46   1.392953 A    
C36   C47   1.391060 A    
C54   C58   1.411473 A    
C3    C19   1.381624 A    
C73   C77   1.522354 S    
C101  O10   1.396028 S    
C85   C95   1.459004 S    
C32   N24   1.343904 A    
C31   C47   1.391601 A    
C98   O3    1.222228 D    
C62   C66   1.426712 A    
N7    Ni7   1.840975 S    
H42   C94   1.083583 S    
N24   N27   1.378678 A    
C3    N3    1.331174 A    
N8    Ni8   1.855780 S    
C82   C102  1.493825 S    
C10   H6    1.074009 S    
C5    N5    1.331618 A    
C21   C54   1.466426 S    
C52   C56   1.395554 A    
C84   C88   1.358605 D    
C39   C43   1.383318 A    
C76   H32   1.109149 S    
C97   O1    1.222251 D    
C34   H18   1.077311 S    
N32   Ni7   1.870149 S    
C27   C43   1.386511 A    
O18   H53   1.013847 S    
C33   H17   1.072533 S    
C87   C93   1.460869 S    
N17   N29   1.359845 A    
C80   H36   1.091045 S    
C26   C106  1.474373 S    
C35   H19   1.077239 S    
C83   C103  1.493384 S    
C63   I3    2.129068 S    
C56   C60   1.406977 A    
C7    I15   2.115997 S    
C25   C105  1.476920 S    
C41   C66   1.477650 S    
N21   Ni5   1.840599 S    
