data_mof_unit_9787.cif
_audit_creation_date              2013-03-05T16:05:46-0500
_audit_creation_method            fapswitch 2.2
_symmetry_space_group_name_H-M    P1
_symmetry_Int_Tables_number       1
_space_group_crystal_system       triclinic
_cell_length_a                    9.587008
_cell_length_b                    10.840187
_cell_length_c                    17.153249
_cell_angle_alpha                 91.109893
_cell_angle_beta                  85.22695
_cell_angle_gamma                 90.515857
_cell_volume                      1776.08649472

loop_
_atom_site_label
_atom_site_type_symbol
_atom_site_description
_atom_site_fract_x
_atom_site_fract_y
_atom_site_fract_z
_atom_type_partial_charge
O1    O     O_R   0.381260 0.680340 0.500000 -0.566997
O2    O     O_R   0.618740 0.319660 0.500000 -0.576075
O3    O     O_R   0.618830 0.680370 0.500010 -0.536800
O4    O     O_R   0.381170 0.319630 0.499990 -0.573950
C1    C     C_R   0.500998 0.737575 0.498867 0.893825
C2    C     C_R   0.499054 0.262401 0.500694 0.833340
O5    O     O_R   0.367440 0.500000 0.613600 -0.541526
O6    O     O_R   0.632560 0.500000 0.386400 -0.547608
O7    O     O_R   0.605010 0.500030 0.613600 -0.553910
O8    O     O_R   0.394990 0.499970 0.386400 -0.597211
C3    C     C_R   0.480443 0.498603 0.649952 0.934348
C4    C     C_R   0.519261 0.497660 0.350144 0.929200
Cu1   Cu    Cu3+1 0.359340 0.499980 0.500000 1.016084
Cu2   Cu    Cu3+1 0.640660 0.500020 0.500000 1.037332
C5    C     C_R   0.464822 0.484254 0.734633 -0.183837
C6    C     C_R   0.532807 0.480567 0.265508 -0.181576
C7    C     C_R   0.526535 0.569295 0.784942 0.298528
C8    C     C_R   0.491450 0.573582 0.216073 0.293565
C9    C     C_R   0.515953 0.547041 0.865087 -0.198517
C10   C     C_R   0.498641 0.549627 0.135625 -0.199660
C11   C     C_R   0.443548 0.443637 0.895631 -0.076239
C12   C     C_R   0.545747 0.435832 0.104153 -0.076508
C13   C     C_R   0.377821 0.360673 0.846101 0.374139
C14   C     C_R   0.588613 0.343283 0.153087 0.378675
C15   C     C_R   0.389350 0.380963 0.765015 -0.002813
C16   C     C_R   0.580999 0.365737 0.234426 -0.007013
C17   C     C_2   0.433430 0.426689 0.980889 0.234334
C18   C     C_2   0.551794 0.416633 0.018724 0.231010
H1    H     H_    0.468699 0.620570 0.096719 0.203738
H2    H     H_    0.561915 0.612065 0.904557 0.203922
C19   C     C_R   0.623512 0.938059 0.470470 0.183709
C20   C     C_R   0.376640 0.061658 0.526852 0.151744
C21   C     C_R   0.619648 0.066340 0.472709 -0.237249
C22   C     C_R   0.380346 0.933764 0.525009 -0.223805
H3    H     H_    0.711737 0.117783 0.451212 0.161504
H4    H     H_    0.287393 0.883289 0.546325 0.163035
C23   C     C_R   0.497576 0.128427 0.500544 -0.043926
C24   C     C_R   0.502546 0.871531 0.497694 -0.017328
C25   C     C_R   0.918525 0.573699 0.551529 0.167423
C26   C     C_R   0.078987 0.428972 0.446766 0.177993
C27   C     C_R   0.068073 0.572494 0.552193 0.193216
C28   C     C_R   0.930827 0.427513 0.448371 0.252391
N1    N     N_R   0.147930 0.499970 0.499980 -0.178527
N2    N     N_R   0.852070 0.500030 0.500020 -0.177357
N3    N     N_R   0.595779 0.679951 0.756300 0.130446
O9    O     O_R   0.549714 0.738815 0.698305 -0.367353
O10   O     O_R   0.693795 0.730984 0.794382 -0.305714
N4    N     N_R   0.442953 0.692161 0.246072 0.138156
O11   O     O_R   0.359272 0.756672 0.207214 -0.282133
O12   O     O_R   0.492464 0.741959 0.307742 -0.400379
N5    N     N_3   0.612292 0.269839 0.286751 -0.577232
H5    H     H_    0.717135 0.245253 0.275419 0.271859
H6    H     H_    0.549653 0.192880 0.276118 0.258876
N6    N     N_3   0.332094 0.293493 0.712174 -0.554861
H7    H     H_    0.370120 0.205800 0.722740 0.254758
H8    H     H_    0.223171 0.292825 0.722498 0.275683
N7    N     N_R   0.686830 0.395315 0.976959 0.148673
O13   O     O_R   0.800202 0.431721 0.007647 -0.243149
O14   O     O_R   0.698345 0.325602 0.914143 -0.271172
N8    N     N_R   0.296194 0.429310 0.022633 0.149432
O15   O     O_R   0.193880 0.484667 0.992635 -0.252710
O16   O     O_R   0.268317 0.363046 0.084557 -0.276572
N9    N     N_R   0.305906 0.253269 0.877386 0.145347
O17   O     O_R   0.366841 0.180832 0.923510 -0.236134
O18   O     O_R   0.177912 0.229281 0.861721 -0.276340
N10   N     N_R   0.632374 0.225091 0.120901 0.146395
O19   O     O_R   0.554819 0.164579 0.074263 -0.235347
O20   O     O_R   0.752225 0.179563 0.135701 -0.280171
N11   N     N_3   0.748352 0.875783 0.439170 -0.551695
H9    H     H_    0.830703 0.938568 0.427957 0.216525
H10   H     H_    0.727582 0.836336 0.385213 0.261475
N12   N     N_3   0.250878 0.122678 0.556984 -0.555401
H11   H     H_    0.170419 0.095162 0.522737 0.221518
H12   H     H_    0.224786 0.092519 0.613914 0.235452
N13   N     N_3   0.836112 0.652968 0.604308 -0.462556
H13   H     H_    0.866522 0.744352 0.593754 0.226296
H14   H     H_    0.855554 0.631622 0.661523 0.241558
N14   N     N_3   0.152218 0.358163 0.385251 -0.594871
H15   H     H_    0.192980 0.416179 0.341085 0.265953
H16   H     H_    0.226884 0.301219 0.405751 0.271322
N15   N     N_3   0.136409 0.648261 0.606906 -0.508944
H17   H     H_    0.100688 0.622416 0.663514 0.226581
H18   H     H_    0.109278 0.740130 0.599477 0.193384
N16   N     N_3   0.862435 0.351325 0.393984 -0.509672
H19   H     H_    0.896439 0.378707 0.337397 0.241047
H20   H     H_    0.893434 0.260128 0.400366 0.207049

loop_
_geom_bond_atom_site_label_1
_geom_bond_atom_site_label_2
_geom_bond_distance
_ccdc_geom_bond_type
N10   O20   1.300704 A    
N9    O18   1.300758 A    
O7    Cu2   1.950141 S    
N15   H17   1.045025 S    
C20   N12   1.433795 S    
N3    O9    1.301764 A    
O5    C3    1.294531 A    
O1    C1    1.298845 A    
C9    C11   1.400362 A    
C14   C16   1.407640 A    
C17   N8    1.444875 S    
N14   H16   1.037002 S    
C13   N9    1.437726 S    
C5    C15   1.412131 A    
N8    O16   1.301741 A    
O4    Cu1   1.968065 S    
N11   H10   1.045430 S    
C7    C9    1.395577 A    
C3    C5    1.458988 S    
C26   N1    1.387956 A    
C4    C6    1.455161 S    
C19   C21   1.391121 A    
C25   N13   1.430134 S    
C8    C10   1.395367 A    
C14   N10   1.437387 S    
C26   C28   1.418328 A    
N10   O19   1.301148 A    
C11   C17   1.472552 S    
C12   C18   1.472524 S    
C1    C24   1.452565 S    
C27   N1    1.369600 A    
O2    C2    1.298923 A    
C28   N2    1.358429 A    
N15   H18   1.044400 S    
C10   H1    1.083944 S    
N3    O10   1.301748 A    
C6    C16   1.410982 A    
N6    H8    1.044509 S    
N5    H5    1.043742 S    
C28   N16   1.429880 S    
N16   H19   1.045605 S    
N12   H12   1.045611 S    
N14   H15   1.042564 S    
C18   N7    1.444725 S    
C21   C23   1.399750 A    
C7    N3    1.440538 S    
N8    O15   1.301372 A    
N5    H6    1.045548 S    
C20   C22   1.386856 A    
N13   H13   1.045022 S    
N13   H14   1.044747 S    
C19   N11   1.438744 S    
O6    C4    1.295587 A    
C27   N15   1.430855 S    
C2    C23   1.452196 S    
C20   C23   1.407916 A    
C15   N6    1.435989 S    
O7    C3    1.300515 A    
O3    Cu2   1.968065 S    
O8    C4    1.297466 A    
C26   N14   1.431973 S    
O4    C2    1.295161 A    
N4    O11   1.301568 A    
C10   C12   1.400252 A    
C11   C13   1.406045 A    
C12   C14   1.406190 A    
O1    Cu1   1.964515 S    
Cu1   N1    2.026818 S    
Cu2   N2    2.026817 S    
C5    C7    1.410291 A    
N6    H7    1.045612 S    
O6    Cu2   1.956599 S    
C22   C24   1.399201 A    
N16   H20   1.045233 S    
N12   H11   1.045727 S    
O3    C1    1.295303 A    
O8    Cu1   1.950142 S    
C8    N4    1.441719 S    
C25   N2    1.371677 A    
C19   C24   1.411009 A    
C16   N5    1.436266 S    
N7    O13   1.301387 A    
N4    O12   1.300999 A    
C21   H3    1.082270 S    
C22   H4    1.082562 S    
C13   C15   1.407472 A    
N11   H9    1.045778 S    
O2    Cu2   1.964515 S    
N7    O14   1.301708 A    
N9    O17   1.301175 A    
O5    Cu1   1.956597 S    
C25   C27   1.434883 A    
C6    C8    1.410392 A    
C17   C18   1.359513 D    
Cu1   Cu2   2.697012 S    
C9    H2    1.083954 S    
