data_mof_unit_38713.cif
_audit_creation_date              2013-03-05T15:52:14-0500
_audit_creation_method            fapswitch 2.2
_symmetry_space_group_name_H-M    P1
_symmetry_Int_Tables_number       1
_space_group_crystal_system       triclinic
_cell_length_a                    23.535263
_cell_length_b                    10.864274
_cell_length_c                    9.58378
_cell_angle_alpha                 90.270169
_cell_angle_beta                  89.950228
_cell_angle_gamma                 92.48444
_cell_volume                      2448.17952783

loop_
_atom_site_label
_atom_site_type_symbol
_atom_site_description
_atom_site_fract_x
_atom_site_fract_y
_atom_site_fract_z
_atom_type_partial_charge
O1    O     O_R   0.500000 0.319640 0.618810 -0.577078
O2    O     O_R   0.500000 0.319660 0.381240 -0.569257
C1    C     C_R   0.503597 0.262788 0.500516 0.855977
O3    O     O_R   0.417880 0.499950 0.618810 -0.527054
O4    O     O_R   0.417880 0.499980 0.381240 -0.592570
C2    C     C_R   0.390950 0.501313 0.500242 0.809808
Cu1   Cu    Cu3+1 0.500000 0.499990 0.640660 0.965758
Cu2   Cu    Cu3+1 0.500000 0.500010 0.359340 0.959138
O5    O     O_R   0.500000 0.680340 0.618760 -0.623553
O6    O     O_R   0.500000 0.680360 0.381190 -0.605413
O7    O     O_R   0.582120 0.500020 0.618760 -0.581132
O8    O     O_R   0.582120 0.500050 0.381190 -0.580548
C3    C     C_R   0.496576 0.737437 0.501417 0.771165
C4    C     C_R   0.608824 0.500016 0.499627 0.873406
C5    C     C_R   0.882244 0.589183 0.412033 0.548796
N1    N     N_R   0.851616 0.503523 0.488414 -0.463087
C6    C     C_R   0.877605 0.416071 0.565234 0.572095
C7    C     C_R   0.937503 0.411580 0.567072 -0.023977
C8    C     C_R   0.969553 0.500018 0.488490 -0.064468
C9    C     C_R   0.941772 0.589393 0.410560 -0.010312
C10   C     C_R   0.966440 0.322542 0.644365 0.161929
C11   C     C_R   0.025966 0.323432 0.642606 -0.219122
C12   C     C_R   0.057776 0.411227 0.565305 -0.039576
C13   C     C_R   0.029601 0.499593 0.487702 -0.016291
C14   C     C_R   0.061466 0.587897 0.409438 -0.006916
C15   C     C_R   0.033173 0.675958 0.332184 -0.162489
C16   C     C_R   0.973986 0.676696 0.332740 -0.155645
C17   C     C_R   0.117443 0.413007 0.563927 0.550494
N2    N     N_R   0.147727 0.499959 0.488183 -0.463911
C18   C     C_R   0.121070 0.586317 0.411340 0.535089
O9    O     O_2   0.855046 0.673345 0.336923 -0.528712
O10   O     O_2   0.845288 0.334762 0.640044 -0.480262
H1    H     H_    0.047120 0.254635 0.702658 0.188392
O11   O     O_2   0.145048 0.328288 0.637247 -0.536268
O12   O     O_2   0.152175 0.671121 0.338321 -0.538741
H2    H     H_    0.056649 0.744778 0.271233 0.188455
H3    H     H_    0.953577 0.746085 0.272057 0.189360
C19   C     C_R   0.237536 0.536319 0.614283 -0.139416
H4    H     H_    0.213238 0.562700 0.704855 0.139273
C20   C     C_R   0.297162 0.538389 0.619893 0.132585
C21   C     C_R   0.328158 0.503551 0.500042 -0.054774
C22   C     C_R   0.298481 0.470113 0.377232 -0.265283
H5    H     H_    0.321019 0.443145 0.284140 0.166414
C23   C     C_R   0.239318 0.469344 0.373198 -0.104117
H6    H     H_    0.217159 0.442505 0.278104 0.151021
C24   C     C_R   0.208695 0.501883 0.491722 0.326182
C25   C     C_R   0.758986 0.409313 0.422337 -0.157875
H7    H     H_    0.780983 0.336370 0.370563 0.187255
C26   C     C_R   0.699525 0.405157 0.427152 0.272340
C27   C     C_R   0.671315 0.499864 0.497619 -0.160775
C28   C     C_R   0.703389 0.598877 0.558928 0.088472
C29   C     C_R   0.762966 0.599364 0.555045 -0.112052
H8    H     H_    0.788069 0.673593 0.603813 0.154058
C30   C     C_R   0.790661 0.504643 0.487757 0.250191
H9    H     H_    0.496927 0.109652 0.279647 0.161828
C31   C     C_R   0.534758 0.120669 0.755757 -0.119029
H10   H     H_    0.558110 0.208484 0.755673 0.180958
C32   C     C_R   0.527549 0.062212 0.884009 -0.164430
H11   H     H_    0.542496 0.107432 0.978831 0.158555
C33   C     C_R   0.499103 0.947799 0.890334 -0.149903
H12   H     H_    0.490379 0.905132 0.990410 0.140689
C34   C     C_R   0.483408 0.886353 0.767369 -0.161740
H13   H     H_    0.459428 0.800123 0.778912 0.165777
C35   C     C_R   0.496482 0.938767 0.635105 0.086858
C36   C     C_R   0.513545 0.064492 0.631284 0.091452
C37   C     C_R   0.508079 0.128813 0.503557 -0.066706
C38   C     C_R   0.499732 0.062951 0.378892 -0.166478
H14   H     H_    0.492117 0.887483 0.280945 0.163902
C39   C     C_R   0.495216 0.935758 0.380014 -0.212978
C40   C     C_R   0.493619 0.871908 0.506675 -0.108781
H15   H     H_    0.436265 0.360053 0.129938 0.134366
C41   C     C_R   0.574905 0.665129 0.145082 -0.135930
H16   H     H_    0.579222 0.671763 0.254978 0.196444
C42   C     C_R   0.610663 0.747558 0.073253 -0.206425
H17   H     H_    0.638923 0.811337 0.129775 0.176436
C43   C     C_R   0.610395 0.747993 0.929604 -0.153242
H18   H     H_    0.638214 0.812687 0.873786 0.173425
C44   C     C_R   0.574526 0.665637 0.857051 -0.105232
H19   H     H_    0.577987 0.672694 0.747361 0.220563
C45   C     C_R   0.536710 0.581285 0.925744 0.132987
C46   C     C_R   0.536777 0.581164 0.075290 0.207062
N3    N     N_R   0.500540 0.501210 0.147910 -0.201518
C47   C     C_R   0.464921 0.422939 0.074057 -0.118578
C48   C     C_R   0.464709 0.422691 0.925673 0.256016
N4    N     N_R   0.500560 0.501290 0.852040 -0.198321
N5    N     N_3   0.936064 0.230467 0.725064 -0.498897
H20   H     H_    0.947200 0.143872 0.688659 0.224196
H21   H     H_    0.949481 0.239193 0.828768 0.225310
N6    N     N_R   0.668711 0.302592 0.363671 0.133493
O13   O     O_R   0.627567 0.245627 0.431070 -0.394813
O14   O     O_R   0.687530 0.253540 0.249405 -0.343388
N7    N     N_3   0.675288 0.700254 0.621110 -0.602168
H22   H     H_    0.654924 0.746498 0.541212 0.208327
H23   H     H_    0.704940 0.763554 0.665036 0.231742
N8    N     N_3   0.426378 0.339900 0.852351 -0.510559
H24   H     H_    0.434330 0.250227 0.883640 0.196280
H25   H     H_    0.384989 0.358500 0.883184 0.213353
N9    N     N_3   0.326012 0.577913 0.745563 -0.565659
H26   H     H_    0.345721 0.664210 0.725893 0.213101
H27   H     H_    0.296909 0.590574 0.826333 0.214677

loop_
_geom_bond_atom_site_label_1
_geom_bond_atom_site_label_2
_geom_bond_distance
_ccdc_geom_bond_type
C7    C10   1.418811 A    
C21   C22   1.407302 A    
N8    H24   1.045327 S    
C46   N3    1.380840 A    
Cu1   Cu2   2.696109 S    
C25   C26   1.398922 A    
Cu1   N4    2.025852 S    
C23   H6    1.082914 S    
Cu1   O7    1.943884 S    
C15   C16   1.393348 A    
N2    C18   1.369138 A    
C42   C43   1.376752 A    
C18   O12   1.349527 S    
Cu2   N3    2.026428 S    
C17   N2    1.369139 A    
C43   C44   1.387937 A    
C20   N9    1.437787 S    
O4    C2    1.304613 A    
O7    C4    1.302811 A    
N5    H21   1.045727 S    
C3    C40   1.466220 S    
C32   C33   1.387610 A    
C31   C36   1.418647 A    
C31   H10   1.080188 S    
C33   C34   1.393851 A    
C7    C8    1.415046 A    
O5    C3    1.291150 A    
C34   C35   1.420096 A    
C48   N4    1.371604 A    
C25   H7    1.083344 S    
C23   C24   1.396991 A    
H14   C39   1.083498 S    
C2    C21   1.479073 S    
C12   C13   1.406150 A    
C35   C40   1.426398 A    
N6    O14   1.301358 A    
C41   C46   1.417430 A    
C41   H16   1.060004 S    
C37   C38   1.399352 A    
C17   O11   1.349723 S    
C10   C11   1.400666 A    
C22   C23   1.392653 A    
O3    Cu1   1.944189 S    
C29   C30   1.396724 A    
C27   C28   1.413009 A    
H15   C47   1.082275 S    
C5    C9    1.400957 A    
C42   H17   1.083080 S    
C28   C29   1.402425 A    
C19   H4    1.083344 S    
C13   C14   1.410250 A    
C41   C42   1.386920 A    
N5    H20   1.045773 S    
N1    C6    1.369881 A    
C14   C15   1.403442 A    
N3    C47   1.363958 A    
C33   H12   1.082833 S    
C38   C39   1.381441 A    
C48   N8    1.428787 S    
C45   N4    1.381772 A    
C28   N7    1.435922 S    
C47   C48   1.422090 A    
Cu2   O8    1.944189 S    
C34   H13   1.078623 S    
N7    H23   1.045648 S    
C6    C7    1.412797 A    
C12   C17   1.403627 A    
C43   H18   1.082520 S    
C25   C30   1.396148 A    
O3    C2    1.302082 A    
C20   C21   1.418854 A    
O8    C4    1.297945 A    
N9    H26   1.045727 S    
N9    H27   1.045715 S    
C1    C37   1.464346 S    
C22   H5    1.083226 S    
C29   H8    1.083263 S    
C15   H2    1.083172 S    
C14   C18   1.403784 A    
Cu1   O5    1.971566 S    
C11   H1    1.083777 S    
C10   N5    1.433255 S    
O1    Cu1   1.969547 S    
O2    Cu2   1.971564 S    
C26   N6    1.435980 S    
C45   C46   1.433224 A    
O6    C3    1.309995 A    
O4    Cu2   1.943886 S    
H9    C38   1.083517 S    
N8    H25   1.045487 S    
C5    O9    1.349721 S    
C9    C16   1.405004 A    
N2    C24   1.434572 S    
C35   C36   1.407562 A    
C8    C9    1.410983 A    
O2    C1    1.306528 A    
C32   H11   1.082736 S    
C19   C20   1.403606 A    
C44   H19   1.057220 S    
C4    C27   1.470923 S    
C16   H3    1.083184 S    
N7    H22   1.045748 S    
C31   C32   1.393044 A    
C8    C13   1.413464 A    
C44   C45   1.413966 A    
C36   C37   1.421075 A    
C39   C40   1.400617 A    
N1    C30   1.435212 S    
C19   C24   1.398437 A    
Cu2   O6    1.969548 S    
C26   C27   1.416860 A    
C6    O10   1.348943 S    
C11   C12   1.401033 A    
O1    C1    1.292942 A    
N6    O13   1.299479 A    
C5    N1    1.367072 A    
