data_mof_unit_23481.cif
_audit_creation_date              2012-12-10T16:38:01-0500
_audit_creation_method            fapswitch 2.2
_symmetry_space_group_name_H-M    P1
_symmetry_Int_Tables_number       1
_space_group_crystal_system       triclinic
_cell_length_a                    28.170675
_cell_length_b                    18.637308
_cell_length_c                    16.738474
_cell_angle_alpha                 90.331162
_cell_angle_beta                  60.488295
_cell_angle_gamma                 90.104767
_cell_volume                      7647.77871209

loop_
_atom_site_label
_atom_site_type_symbol
_atom_type_description
_atom_site_fract_x
_atom_site_fract_y
_atom_site_fract_z
_atom_type_partial_charge
C1    C     C_R   0.698985 0.262421 0.678241 0.889691
C2    C     C_R   0.300682 0.736954 0.322079 0.933169
C3    C     C_R   0.300775 0.263335 0.321610 0.819671
C4    C     C_R   0.699474 0.736783 0.678000 0.972939
C5    C     C_R   0.198987 0.761933 0.677875 0.897482
C6    C     C_R   0.800246 0.236257 0.322076 0.935187
C7    C     C_R   0.800741 0.763247 0.321596 0.818559
C8    C     C_R   0.199438 0.236970 0.678009 0.971213
C9    C     C_R   0.908235 0.506888 0.471549 0.025916
C10   C     C_R   0.102593 0.499703 0.487506 0.008165
C11   C     C_R   0.408034 0.006892 0.472005 0.026168
C12   C     C_R   0.602122 0.999668 0.488850 0.007802
C13   C     C_R   0.093612 0.371022 0.498672 0.152940
C14   C     C_R   0.933888 0.622758 0.393297 0.105099
C15   C     C_R   0.880221 0.394929 0.557222 0.109479
C16   C     C_R   0.128470 0.617039 0.419986 0.129128
C17   C     C_R   0.592625 0.871054 0.501221 0.153676
C18   C     C_R   0.433978 0.122469 0.393073 0.105628
C19   C     C_R   0.379612 0.895292 0.558413 0.108702
C20   C     C_R   0.628374 0.116653 0.420372 0.129969
C21   C     C_R   0.708978 0.246273 0.966920 0.033997
C22   C     C_R   0.274662 0.726465 0.053070 0.030873
C23   C     C_R   0.287857 0.253765 0.035252 0.027868
C24   C     C_R   0.728037 0.722317 0.942833 0.035943
C25   C     C_R   0.219396 0.761021 0.954001 0.029807
C26   C     C_R   0.768960 0.216863 0.059082 0.033400
C27   C     C_R   0.787999 0.752295 0.034679 0.028334
C28   C     C_R   0.227404 0.224613 0.944100 0.035367
C29   C     C_R   0.748864 0.191478 0.933668 0.000459
C30   C     C_R   0.243687 0.790481 0.073938 0.039375
C31   C     C_R   0.247442 0.200085 0.069101 -0.001600
C32   C     C_R   0.766095 0.778863 0.912559 0.047638
C33   C     C_R   0.250603 0.697192 0.932801 -0.000528
C34   C     C_R   0.730164 0.272734 0.090424 0.038553
C35   C     C_R   0.748304 0.697546 0.067449 -0.001475
C36   C     C_R   0.266264 0.280143 0.912568 0.047253
C37   C     C_R   0.775688 0.172756 0.984797 0.061825
C38   C     C_R   0.216617 0.808202 0.023328 0.064699
C39   C     C_R   0.220689 0.181263 0.018328 0.070325
C40   C     C_R   0.799850 0.788436 0.952711 0.069870
C41   C     C_R   0.277178 0.678749 0.984477 0.060027
C42   C     C_R   0.696676 0.282288 0.049710 0.072782
C43   C     C_R   0.721905 0.678151 0.016033 0.065690
C44   C     C_R   0.300107 0.289426 0.952703 0.068766
C45   C     C_R   0.635882 0.313077 0.958515 0.095017
C46   C     C_R   0.338976 0.650622 0.075647 0.065214
C47   C     C_R   0.362808 0.316762 0.041350 0.057206
C48   C     C_R   0.660299 0.650828 0.925120 0.067579
C49   C     C_R   0.156907 0.839468 0.929748 0.082945
C50   C     C_R   0.838466 0.147746 0.074805 0.067148
C51   C     C_R   0.862271 0.816845 0.041648 0.059363
C52   C     C_R   0.158964 0.153693 0.927678 0.073677
C53   C     C_R   0.608558 0.333492 0.908367 -0.220754
C54   C     C_R   0.377618 0.646292 0.108502 -0.240147
C55   C     C_R   0.390696 0.335864 0.090869 -0.152193
C56   C     C_R   0.621843 0.647042 0.892211 -0.235746
C57   C     C_R   0.120043 0.848037 0.893936 -0.219124
C58   C     C_R   0.877105 0.145389 0.107874 -0.236355
C59   C     C_R   0.890187 0.836131 0.091168 -0.157192
C60   C     C_R   0.121125 0.148668 0.893493 -0.232810
C61   C     C_R   0.620294 0.296844 0.827571 -0.098029
C62   C     C_R   0.374864 0.695026 0.174611 -0.136819
C63   C     C_R   0.377834 0.302364 0.173170 -0.075518
C64   C     C_R   0.625258 0.695384 0.825672 -0.134348
C65   C     C_R   0.123518 0.800825 0.825872 -0.096876
C66   C     C_R   0.873668 0.194740 0.173818 -0.139196
C67   C     C_R   0.877452 0.802437 0.173257 -0.083260
C68   C     C_R   0.125023 0.196263 0.825975 -0.132784
C69   C     C_R   0.669923 0.260551 0.780822 -0.148792
C70   C     C_R   0.327566 0.734154 0.220711 -0.054418
C71   C     C_R   0.328764 0.265148 0.219392 -0.219011
C72   C     C_R   0.673030 0.733886 0.779244 -0.060298
C73   C     C_R   0.170821 0.760829 0.779740 -0.149768
C74   C     C_R   0.825555 0.232174 0.221050 -0.057712
C75   C     C_R   0.828575 0.764850 0.219336 -0.216219
C76   C     C_R   0.172969 0.234538 0.779339 -0.063896
C77   C     C_R   0.695007 0.233426 0.832212 -0.057869
C78   C     C_R   0.300205 0.755115 0.171587 0.019672
C79   C     C_R   0.303199 0.239280 0.167977 -0.030229
C80   C     C_R   0.701706 0.753406 0.826883 0.025914
C81   C     C_R   0.197130 0.736570 0.830004 -0.056506
C82   C     C_R   0.795687 0.249652 0.174707 0.021082
C83   C     C_R   0.803133 0.738490 0.167757 -0.029163
C84   C     C_R   0.201687 0.254467 0.826954 0.026867
C85   C     C_R   0.696184 0.128046 0.517932 0.903785
C86   C     C_R   0.304297 0.872778 0.479895 0.910166
C87   C     C_R   0.309355 0.130118 0.461850 0.864363
C88   C     C_R   0.693101 0.871333 0.526982 0.934558
C89   C     C_R   0.196279 0.628071 0.517633 0.902748
C90   C     C_R   0.804363 0.372757 0.479745 0.909320
C91   C     C_R   0.809359 0.630078 0.461804 0.863703
C92   C     C_R   0.193218 0.371362 0.526591 0.933778
C93   C     C_R   0.680239 0.264532 0.918752 0.075270
C94   C     C_R   0.304268 0.710621 0.100234 0.033961
C95   C     C_R   0.317508 0.270570 0.082204 0.072050
C96   C     C_R   0.696568 0.709115 0.898664 0.041769
C97   C     C_R   0.190893 0.778437 0.905156 0.086611
C98   C     C_R   0.801005 0.204833 0.102674 0.031530
C99   C     C_R   0.817357 0.769803 0.082043 0.073447
C100  C     C_R   0.195852 0.211271 0.899980 0.042110
C101  C     C_R   0.617900 0.334727 0.050397 -0.146305
C102  C     C_R   0.335130 0.599445 0.016796 -0.174026
C103  C     C_R   0.380632 0.337997 0.949569 -0.175678
C104  C     C_R   0.662926 0.600201 0.985350 -0.166164
C105  C     C_R   0.160280 0.888626 0.990537 -0.180700
C106  C     C_R   0.836869 0.097137 0.012853 -0.172331
C107  C     C_R   0.879769 0.838603 0.950175 -0.178130
C108  C     C_R   0.160573 0.104676 0.990146 -0.173877
C109  C     C_R   0.649143 0.323672 0.092300 -0.267715
C110  C     C_R   0.305421 0.613287 0.971943 -0.217992
C111  C     C_R   0.348386 0.328932 0.909022 -0.229352
C112  C     C_R   0.691374 0.614663 0.032129 -0.214173
C113  C     C_R   0.188572 0.873515 0.036621 -0.216995
C114  C     C_R   0.807828 0.110493 0.966694 -0.222041
C115  C     C_R   0.847626 0.828980 0.909581 -0.229835
C116  C     C_R   0.189223 0.118809 0.036185 -0.217090
C117  C     C_R   0.730973 0.173223 0.804673 -0.005706
C118  C     C_R   0.272584 0.820911 0.186927 0.037592
C119  C     C_R   0.267119 0.179773 0.194760 0.018711
C120  C     C_R   0.733505 0.816435 0.807760 0.023555
C121  C     C_R   0.227607 0.671997 0.810309 -0.004611
C122  C     C_R   0.763173 0.311988 0.194476 0.040965
C123  C     C_R   0.767407 0.678480 0.194102 0.014101
C124  C     C_R   0.234266 0.316889 0.806602 0.018440
C125  C     C_R   0.758969 0.155707 0.852375 -0.202933
C126  C     C_R   0.242624 0.836103 0.142783 -0.294447
C127  C     C_R   0.237388 0.164351 0.149735 -0.212084
C128  C     C_R   0.767427 0.826363 0.846172 -0.305299
C129  C     C_R   0.254358 0.654185 0.859972 -0.199709
C130  C     C_R   0.728501 0.320522 0.157417 -0.310449
C131  C     C_R   0.738453 0.661783 0.147889 -0.209266
C132  C     C_R   0.268305 0.326820 0.844892 -0.304186
C133  C     C_R   0.076975 0.096590 0.930755 0.895235
C134  C     C_R   0.928372 0.896781 0.062980 0.933081
C135  C     C_R   0.922101 0.094941 0.070192 0.905159
C136  C     C_R   0.077021 0.902842 0.930480 0.901327
C137  C     C_R   0.577313 0.595886 0.930314 0.913106
C138  C     C_R   0.428675 0.396577 0.062726 0.923272
C139  C     C_R   0.421989 0.594832 0.070489 0.907854
C140  C     C_R   0.571188 0.395892 0.936856 0.901562
C141  C     C_R   0.578911 0.121871 0.416268 0.044780
C142  C     C_R   0.431395 0.888680 0.551738 0.086453
C143  C     C_R   0.481473 0.124681 0.402818 0.072432
C144  C     C_R   0.537269 0.877852 0.528338 0.074942
C145  C     C_R   0.078967 0.622234 0.416001 0.045121
C146  C     C_R   0.932191 0.388199 0.549763 0.086070
C147  C     C_R   0.981337 0.625050 0.403151 0.073549
C148  C     C_R   0.038268 0.377453 0.525500 0.075037
C149  C     C_R   0.566278 0.182511 0.379670 0.045046
C150  C     C_R   0.447386 0.825851 0.580201 0.060689
C151  C     C_R   0.518539 0.183511 0.371375 0.067215
C152  C     C_R   0.501363 0.819485 0.564205 0.049647
C153  C     C_R   0.066067 0.683091 0.380075 0.042625
C154  C     C_R   0.948517 0.325087 0.577119 0.060331
C155  C     C_R   0.018106 0.684185 0.372423 0.064569
C156  C     C_R   0.002583 0.318802 0.560726 0.049910
C157  C     C_R   0.492535 0.066018 0.444485 -0.034995
C158  C     C_R   0.519661 0.942472 0.509172 -0.028486
C159  C     C_R   0.541320 0.064360 0.449385 -0.025993
C160  C     C_R   0.468947 0.946019 0.513014 -0.032511
C161  C     C_R   0.992680 0.566156 0.444085 -0.034620
C162  C     C_R   0.020372 0.442214 0.507203 -0.028502
C163  C     C_R   0.041548 0.564507 0.448713 -0.025566
C164  C     C_R   0.969561 0.445750 0.511415 -0.032443
C165  C     C_R   0.956370 0.506942 0.477114 0.004524
C166  C     C_R   0.055071 0.502187 0.479917 0.009564
C167  C     C_R   0.456055 0.006987 0.477909 0.004965
C168  C     C_R   0.554588 0.002218 0.481286 0.009907
C169  C     C_R   0.872655 0.446986 0.502997 -0.031052
C170  C     C_R   0.134411 0.561155 0.472220 -0.035923
C171  C     C_R   0.120615 0.434075 0.504174 -0.028369
C172  C     C_R   0.895145 0.566438 0.434759 -0.002504
C173  C     C_R   0.372370 0.947085 0.503551 -0.031184
C174  C     C_R   0.634147 0.060990 0.473032 -0.035804
C175  C     C_R   0.619997 0.934048 0.505862 -0.028660
C176  C     C_R   0.395099 0.066354 0.434882 -0.002504
C177  C     C_R   0.832217 0.440706 0.475617 -0.126672
C178  C     C_R   0.170526 0.562554 0.509791 -0.129824
C179  C     C_R   0.163484 0.435385 0.527012 -0.143206
C180  C     C_R   0.843910 0.565770 0.437881 -0.180985
C181  C     C_R   0.332012 0.940795 0.475990 -0.125678
C182  C     C_R   0.670319 0.062477 0.510480 -0.130289
C183  C     C_R   0.663127 0.935335 0.528095 -0.143358
C184  C     C_R   0.343817 0.065820 0.438188 -0.180823
C185  C     C_R   0.820253 0.500331 0.438422 0.036028
C186  C     C_R   0.178859 0.500758 0.547295 0.012162
C187  C     C_R   0.319906 0.000575 0.439149 0.040964
C188  C     C_R   0.678641 0.000729 0.548114 0.015579
H1    H     H_    0.578191 0.356983 0.095085 0.195537
H2    H     H_    0.354425 0.547473 0.004968 0.176179
H3    H     H_    0.420783 0.358457 0.904087 0.176676
H4    H     H_    0.643624 0.548305 0.997220 0.177946
H5    H     H_    0.142000 0.940483 0.003044 0.157815
H6    H     H_    0.857609 0.046140 0.998820 0.179145
H7    H     H_    0.919619 0.859862 0.904726 0.179332
H8    H     H_    0.140216 0.054208 0.005032 0.161774
H9    H     H_    0.633263 0.343925 0.161499 0.135156
H10   H     H_    0.305326 0.570971 0.927944 0.141857
H11   H     H_    0.364115 0.348538 0.839823 0.146303
H12   H     H_    0.690245 0.573768 0.078372 0.143210
H13   H     H_    0.187573 0.915261 0.082049 0.138660
H14   H     H_    0.810057 0.069804 0.918875 0.142228
H15   H     H_    0.863129 0.849000 0.840613 0.146853
H16   H     H_    0.187329 0.078250 0.083359 0.136015
H17   H     H_    0.787823 0.112092 0.825711 0.176227
H18   H     H_    0.221619 0.886806 0.160176 0.135340
H19   H     H_    0.207865 0.121678 0.177244 0.180144
H20   H     H_    0.790918 0.875415 0.830219 0.138802
H21   H     H_    0.277551 0.605146 0.840780 0.176036
H22   H     H_    0.704678 0.369341 0.174013 0.141586
H23   H     H_    0.709594 0.618257 0.174320 0.180300
H24   H     H_    0.292449 0.375349 0.827774 0.138850
O1    O     O_R   0.746490 0.236330 0.638080 -0.668610
O2    O     O_R   0.253510 0.763670 0.361920 -0.649096
O3    O     O_R   0.253510 0.236330 0.361920 -0.628568
O4    O     O_R   0.746490 0.763670 0.638080 -0.649256
O5    O     O_R   0.246490 0.736330 0.638080 -0.669769
O6    O     O_R   0.753510 0.263670 0.361920 -0.650965
O7    O     O_R   0.753510 0.736330 0.361920 -0.629088
O8    O     O_R   0.246490 0.263670 0.638080 -0.650733
O9    O     O_R   0.674170 0.186160 0.516270 -0.586422
O10   O     O_R   0.325830 0.813840 0.483730 -0.617475
O11   O     O_R   0.325830 0.186160 0.483730 -0.638594
O12   O     O_R   0.674170 0.813840 0.516270 -0.630565
O13   O     O_R   0.174170 0.686160 0.516270 -0.588679
O14   O     O_R   0.825830 0.313840 0.483730 -0.618452
O15   O     O_R   0.825830 0.686160 0.483730 -0.638069
O16   O     O_R   0.174170 0.313840 0.516270 -0.629763
O17   O     O_R   0.739960 0.127620 0.525000 -0.604995
O18   O     O_R   0.260040 0.872380 0.475000 -0.615443
O19   O     O_R   0.260040 0.127620 0.475000 -0.598543
O20   O     O_R   0.739960 0.872380 0.525000 -0.617657
O21   O     O_R   0.239960 0.627620 0.525000 -0.606156
O22   O     O_R   0.760040 0.372380 0.475000 -0.612263
O23   O     O_R   0.760040 0.627620 0.475000 -0.599708
O24   O     O_R   0.239960 0.372380 0.525000 -0.618657
O25   O     O_R   0.680700 0.294870 0.629350 -0.573519
O26   O     O_R   0.319300 0.705130 0.370650 -0.588087
O27   O     O_R   0.319300 0.294870 0.370650 -0.652983
O28   O     O_R   0.680700 0.705130 0.629350 -0.578643
O29   O     O_R   0.180700 0.794870 0.629350 -0.574062
O30   O     O_R   0.819300 0.205130 0.370650 -0.588463
O31   O     O_R   0.819300 0.794870 0.370650 -0.652581
O32   O     O_R   0.180700 0.205130 0.629350 -0.577969
O33   O     O_R   0.062020 0.072840 0.007170 -0.629378
O34   O     O_R   0.937980 0.927160 0.992830 -0.657626
O35   O     O_R   0.937980 0.072840 0.992830 -0.622444
O36   O     O_R   0.062020 0.927160 0.007170 -0.611600
O37   O     O_R   0.562020 0.572840 0.007170 -0.621539
O38   O     O_R   0.437980 0.427160 0.992830 -0.658081
O39   O     O_R   0.437980 0.572840 0.992830 -0.619607
O40   O     O_R   0.562020 0.427160 0.007170 -0.629562
O41   O     O_R   0.947860 0.073950 0.109290 -0.630879
O42   O     O_R   0.052140 0.926050 0.890710 -0.639006
O43   O     O_R   0.052140 0.073950 0.890710 -0.628451
O44   O     O_R   0.947860 0.926050 0.109290 -0.598925
O45   O     O_R   0.447860 0.573950 0.109290 -0.631863
O46   O     O_R   0.552140 0.426050 0.890710 -0.635265
O47   O     O_R   0.552140 0.573950 0.890710 -0.626489
O48   O     O_R   0.447860 0.426050 0.109290 -0.606453
Zn1   Zn    Zn3+2 0.792340 0.208750 0.507670 1.014715
Zn2   Zn    Zn3+2 0.207660 0.791250 0.492330 1.015726
Zn3   Zn    Zn3+2 0.207660 0.208750 0.492330 1.012216
Zn4   Zn    Zn3+2 0.792340 0.791250 0.507670 0.946928
Zn5   Zn    Zn3+2 0.292340 0.708750 0.507670 1.009876
Zn6   Zn    Zn3+2 0.707660 0.291250 0.492330 1.015155
Zn7   Zn    Zn3+2 0.707660 0.708750 0.492330 1.011194
Zn8   Zn    Zn3+2 0.292340 0.291250 0.507670 0.943363
Zn9   Zn    Zn3+2 0.505960 0.500000 0.080520 0.941781
Zn10  Zn    Zn3+2 0.494040 0.500000 0.919480 0.925391
Zn11  Zn    Zn3+2 0.005960 0.000000 0.080520 0.955264
Zn12  Zn    Zn3+2 0.994040 0.000000 0.919480 0.925374
N1    N     N_3   0.020950 0.254213 0.583420 -0.444022
H25   H     H_    0.017397 0.211562 0.545918 0.176625
H26   H     H_    0.996248 0.244116 0.653445 0.204499
N2    N     N_3   0.005803 0.747031 0.336730 -0.442601
H27   H     H_    0.037495 0.756274 0.270057 0.214297
H28   H     H_    0.001924 0.791165 0.378300 0.169886
N3    N     N_3   0.911933 0.265429 0.614512 -0.456548
H29   H     H_    0.928652 0.221011 0.571135 0.184639
H30   H     H_    0.906950 0.253282 0.679076 0.195108
N4    N     N_3   0.100401 0.745474 0.355295 -0.437474
H31   H     H_    0.114575 0.757223 0.286205 0.184221
H32   H     H_    0.077812 0.788923 0.395860 0.183457
N5    N     N_3   0.519463 0.755077 0.587769 -0.443161
H33   H     H_    0.515856 0.712159 0.550674 0.176190
H34   H     H_    0.494635 0.745464 0.657885 0.204588
N6    N     N_3   0.506878 0.245884 0.333995 -0.444751
H35   H     H_    0.538835 0.254242 0.267295 0.208361
H36   H     H_    0.503086 0.290570 0.374706 0.166629
N7    N     N_3   0.410562 0.766509 0.618363 -0.456948
H37   H     H_    0.427170 0.721693 0.575698 0.183404
H38   H     H_    0.405407 0.755001 0.683197 0.195365
N8    N     N_3   0.600724 0.244758 0.354693 -0.439099
H39   H     H_    0.615259 0.255824 0.285381 0.181296
H40   H     H_    0.578107 0.288508 0.394443 0.180169
N9    N     N_3   0.784991 0.493887 0.399544 -0.374613
H41   H     H_    0.788190 0.539057 0.361964 0.211134
H42   H     H_    0.802773 0.455297 0.348258 0.240137
N10   N     N_3   0.198984 0.506384 0.611181 -0.373051
H43   H     H_    0.198210 0.457367 0.640464 0.250277
H44   H     H_    0.169578 0.535902 0.666650 0.187324
N11   N     N_3   0.283634 0.994903 0.402169 -0.374817
H45   H     H_    0.287999 0.039222 0.362447 0.208579
H46   H     H_    0.300022 0.955311 0.352266 0.233562
N12   N     N_3   0.698847 0.006439 0.611896 -0.376839
H47   H     H_    0.698593 0.957357 0.640672 0.248502
H48   H     H_    0.669287 0.035562 0.667680 0.184257
N13   N     N_3   0.122686 0.319790 0.425613 -0.439319
H49   H     H_    0.162900 0.336120 0.382060 0.201273
H50   H     H_    0.122115 0.269138 0.452456 0.236272
N14   N     N_3   0.931030 0.668789 0.326975 -0.398769
H51   H     H_    0.910764 0.643781 0.296259 0.177744
H52   H     H_    0.910975 0.716283 0.358834 0.222851
N15   N     N_3   0.833716 0.363091 0.634648 -0.432933
H53   H     H_    0.797905 0.390769 0.650163 0.165948
H54   H     H_    0.829133 0.309864 0.620504 0.253635
N16   N     N_3   0.175275 0.658916 0.357988 -0.375324
H55   H     H_    0.179762 0.653745 0.292348 0.179420
H56   H     H_    0.210940 0.635216 0.350028 0.152230
N17   N     N_3   0.621224 0.819578 0.428279 -0.439642
H57   H     H_    0.661353 0.835787 0.383891 0.201690
H58   H     H_    0.620758 0.769006 0.455234 0.235768
N18   N     N_3   0.431033 0.168544 0.326881 -0.399335
H59   H     H_    0.410553 0.143680 0.296448 0.177602
H60   H     H_    0.411139 0.216088 0.358861 0.221618
N19   N     N_3   0.332901 0.863521 0.635541 -0.432986
H61   H     H_    0.297173 0.891257 0.650683 0.165853
H62   H     H_    0.328387 0.810310 0.621251 0.253359
N20   N     N_3   0.675307 0.158198 0.358066 -0.376469
H63   H     H_    0.679803 0.152728 0.292448 0.180660
H64   H     H_    0.710906 0.134445 0.350318 0.150616
C189  C     C_2   0.577723 0.287597 0.799478 0.449308
H65   H     H_    0.539657 0.316921 0.833005 0.072836
O49   O     O_2   0.582589 0.242031 0.743177 -0.563074
C190  C     C_2   0.422270 0.712752 0.188435 0.476610
H66   H     H_    0.462262 0.689928 0.145092 0.078224
O50   O     O_2   0.418301 0.757737 0.244786 -0.537638
C191  C     C_2   0.418721 0.300843 0.205073 0.413341
H67   H     H_    0.409870 0.321914 0.271285 0.093753
O51   O     O_2   0.464500 0.277630 0.154184 -0.579047
C192  C     C_2   0.578144 0.712758 0.811062 0.461246
H68   H     H_    0.538361 0.689077 0.852729 0.080079
O52   O     O_2   0.582051 0.758353 0.755999 -0.548660
C193  C     C_2   0.077033 0.786681 0.808455 0.451664
H69   H     H_    0.037633 0.811755 0.849486 0.080431
O53   O     O_2   0.080911 0.742178 0.751670 -0.566525
C194  C     C_2   0.921033 0.214049 0.187109 0.470518
H70   H     H_    0.961063 0.191064 0.144557 0.079316
O54   O     O_2   0.916965 0.260424 0.242019 -0.541711
C195  C     C_2   0.918258 0.801142 0.205286 0.422304
H71   H     H_    0.909698 0.823913 0.270604 0.092897
O55   O     O_2   0.963634 0.776336 0.155403 -0.562872
C196  C     C_2   0.078193 0.212954 0.810355 0.460634
H72   H     H_    0.038527 0.188777 0.851344 0.081099
O56   O     O_2   0.082141 0.258561 0.755279 -0.549356
C197  C     C_2   0.731956 0.119580 0.738181 0.490157
H73   H     H_    0.700460 0.121044 0.719267 0.062262
O57   O     O_2   0.767265 0.073415 0.704674 -0.609263
C198  C     C_2   0.284919 0.881602 0.230204 0.401385
H74   H     H_    0.254309 0.922403 0.267473 0.086346
O58   O     O_2   0.331122 0.889118 0.217897 -0.575774
C199  C     C_2   0.269491 0.123331 0.253975 0.470780
H75   H     H_    0.304560 0.121550 0.264161 0.015510
O59   O     O_2   0.233413 0.078525 0.290087 -0.623620
C200  C     C_2   0.724374 0.878859 0.763170 0.421258
H76   H     H_    0.756598 0.917763 0.726923 0.090486
O60   O     O_2   0.679320 0.889528 0.771927 -0.585303
C201  C     C_2   0.225864 0.617419 0.747127 0.485920
H77   H     H_    0.195537 0.621950 0.725799 0.059687
O61   O     O_2   0.257819 0.567119 0.718748 -0.610787
C202  C     C_2   0.773833 0.376011 0.235124 0.427287
H78   H     H_    0.741444 0.414094 0.274937 0.082134
O62   O     O_2   0.820314 0.389017 0.218340 -0.580774
C203  C     C_2   0.769427 0.622841 0.254407 0.480241
H79   H     H_    0.804252 0.621699 0.265264 0.013042
O63   O     O_2   0.733364 0.578028 0.290645 -0.619358
C204  C     C_2   0.225625 0.379058 0.761190 0.432509
H80   H     H_    0.258423 0.416797 0.723098 0.094607
O64   O     O_2   0.180393 0.390809 0.771262 -0.583082

loop_
_geom_bond_atom_site_label_1
_geom_bond_atom_site_label_2
_ccdc_geom_bond_type
C197  H73   S    
N9    H42   S    
C9    C169  A    
N7    H37   S    
C34   C42   A    
O12   Zn7   S    
C181  C187  A    
C101  H1    S    
N11   H46   S    
C189  H65   S    
C27   C99   A    
N4    H31   S    
C85   C182  S    
C140  O46   A    
C170  C178  A    
C117  C197  S    
O33   Zn11  S    
C42   C109  A    
O34   Zn12  S    
C24   C96   A    
C8    O32   A    
C3    O3    A    
C104  H4    S    
C202  H78   S    
C30   C38   A    
C169  C177  A    
O48   Zn9   S    
C127  H19   S    
C109  H9    S    
C5    O5    A    
N18   H59   S    
C115  H15   S    
C113  H13   S    
C147  C155  A    
C91   O15   A    
N13   H50   S    
C90   C177  S    
C11   C167  A    
C82   C98   A    
C76   C84   A    
C73   C81   A    
C161  C163  A    
O15   Zn4   S    
C162  C164  A    
C138  O48   A    
C11   C173  A    
N20   H63   S    
C84   C100  A    
C85   O17   A    
C61   C189  S    
C192  H68   S    
C155  N2    S    
C37   C114  A    
C27   C35   A    
C10   C171  A    
C21   C29   A    
C92   O24   A    
C149  N8    S    
C81   C121  A    
C23   C31   A    
C24   C32   A    
N11   H45   S    
C146  C154  A    
C120  C128  A    
N12   H47   S    
C199  H75   S    
O32   Zn3   S    
O47   Zn10  S    
C88   O20   A    
C63   C71   A    
C2    O2    A    
C36   C44   A    
C188  N12   S    
N10   H43   S    
C104  C112  A    
C176  C184  A    
C18   N18   S    
C48   C96   A    
C90   O14   A    
C190  H66   S    
C203  H79   S    
C134  O34   A    
C187  N11   S    
C60   C68   A    
C148  C162  A    
N5    H34   S    
C183  C188  A    
O35   Zn12  S    
C108  C116  A    
O36   Zn11  S    
C21   C93   A    
C78   C94   A    
C125  H17   S    
C194  H70   S    
O6    Zn6   S    
C23   C95   A    
O27   Zn8   S    
C13   N13   S    
N3    H30   S    
C49   C97   A    
C21   C42   A    
C22   C41   A    
C133  O33   A    
C89   O13   A    
C51   C107  A    
N17   H57   S    
O1    Zn1   S    
C24   C43   A    
C128  H20   S    
C204  H80   S    
C82   C122  A    
C161  C165  A    
C17   C175  A    
C63   C191  S    
C18   C176  A    
C4    O4    A    
C29   C125  A    
C69   C77   A    
C195  H71   S    
C31   C127  A    
C45   C93   A    
C133  O43   A    
C71   C79   A    
C20   N20   S    
C106  H6    S    
C179  C186  A    
C62   C70   A    
C11   C176  A    
C16   N16   S    
C17   C144  A    
C105  C113  A    
C154  N3    S    
N7    H38   S    
O41   Zn11  S    
C149  C151  A    
O40   Zn9   S    
C66   C74   A    
C91   O23   A    
C8    C76   S    
C49   C57   A    
N14   H51   S    
C124  C132  A    
C89   O21   A    
N16   H56   S    
C52   C60   A    
C59   C67   A    
C15   N15   S    
C141  C159  A    
C20   C174  A    
C55   C63   A    
C86   C181  S    
C56   C64   A    
C35   C43   A    
C17   N17   S    
O16   Zn3   S    
O45   Zn9   S    
C45   C53   A    
C6    O6    A    
C22   C94   A    
C171  C179  A    
C119  C199  S    
C198  H74   S    
O43   Zn12  S    
C137  O47   A    
O23   Zn7   S    
O44   Zn11  S    
C50   C98   A    
C135  O35   A    
N19   H62   S    
C145  C163  A    
C1    O25   A    
C146  C164  A    
C14   C147  A    
C52   C100  A    
C118  C198  S    
C16   C145  A    
N6    H36   S    
C14   N14   S    
C178  C186  A    
C25   C38   A    
C54   C139  S    
C46   C94   A    
C27   C40   A    
C10   C166  A    
C57   C65   A    
C91   C180  S    
C182  C188  A    
C89   C178  S    
C123  C203  S    
O14   Zn1   S    
C28   C36   A    
O11   Zn8   S    
C25   C97   A    
C131  H23   S    
C67   C75   A    
C50   C106  A    
C62   C190  S    
O19   Zn3   S    
C122  C202  S    
C22   C30   A    
C191  O51   D    
C153  N4    S    
C20   C141  A    
C138  O38   A    
C15   C146  A    
O17   Zn1   S    
C58   C135  S    
C68   C76   A    
C59   C134  S    
N4    H32   S    
C184  C187  A    
C120  C200  S    
C32   C128  A    
C144  C152  A    
C56   C137  S    
C143  C151  A    
N1    H26   S    
C202  O62   D    
C5    C73   S    
O21   Zn5   S    
C13   C171  A    
C103  H3    S    
N2    H27   S    
C197  O57   D    
C196  H72   S    
O31   Zn4   S    
C3    O27   A    
C6    O30   A    
C85   O9    A    
C25   C33   A    
C201  O61   D    
C119  C127  A    
C121  C201  S    
O18   Zn2   S    
C110  H10   S    
C140  O40   A    
C157  C167  A    
C30   C126  A    
C158  C168  A    
N20   H64   S    
O7    Zn7   S    
C164  C165  A    
N8    H39   S    
C192  O52   D    
C40   C115  A    
C101  C109  A    
C177  C185  A    
C136  O36   A    
C103  C111  A    
C200  H76   S    
C116  H16   S    
C162  C166  A    
C79   C119  A    
N12   H48   S    
N3    H29   S    
C114  H14   S    
C193  O53   D    
O20   Zn4   S    
C154  C156  A    
C172  C180  A    
C173  C181  A    
N15   H53   S    
C157  C159  A    
C83   C99   A    
C158  C160  A    
C174  C182  A    
C74   C82   A    
O39   Zn10  S    
C198  O58   D    
N10   H44   S    
C6    C74   S    
C189  O49   D    
C68   C196  S    
C47   C103  A    
C86   O18   A    
O3    Zn3   S    
C163  C166  A    
O4    Zn4   S    
C190  O50   D    
C147  C161  A    
C38   C113  A    
C152  N5    S    
C49   C105  A    
C54   C62   A    
C28   C39   A    
C1    C69   S    
C23   C44   A    
O25   Zn6   S    
C50   C58   A    
C3    C71   S    
C19   C173  A    
C79   C95   A    
N5    H33   S    
C92   C179  S    
O37   Zn9   S    
C19   N19   S    
C191  H67   S    
C46   C54   A    
C194  O54   D    
C4    O28   A    
C65   C193  S    
C156  N1    S    
C45   C101  A    
C64   C192  S    
C19   C142  A    
O5    Zn5   S    
O29   Zn2   S    
C1    O1    A    
C102  C110  A    
C204  O64   D    
C35   C131  A    
C4    C72   S    
C33   C129  A    
C18   C143  A    
C36   C132  A    
C123  C131  A    
O2    Zn2   S    
C121  C129  A    
C137  O37   A    
C195  O55   D    
C26   C37   A    
C112  H12   S    
C10   C170  A    
C33   C41   A    
C142  C150  A    
C9    C165  A    
C134  O44   A    
N19   H61   S    
C67   C195  S    
C75   C83   A    
C126  H18   S    
C139  O45   A    
O42   Zn12  S    
C102  H2    S    
N14   H52   S    
C185  N9    S    
O46   Zn10  S    
C44   C111  A    
C16   C170  A    
C92   O16   A    
C72   C80   A    
C39   C116  A    
C29   C37   A    
O24   Zn8   S    
C9    C172  A    
C124  C204  S    
C148  C156  A    
C83   C123  A    
C2    C70   S    
C60   C133  S    
C87   O11   A    
C80   C120  A    
C70   C78   A    
C53   C140  S    
N9    H41   S    
C132  H24   S    
C151  N6    S    
C107  H7    S    
C141  C149  A    
N13   H49   S    
C105  H5    S    
C46   C102  A    
C90   O22   A    
C55   C138  S    
C106  C114  A    
C136  O42   A    
C77   C117  A    
O22   Zn6   S    
C48   C104  A    
C65   C73   A    
C159  C168  A    
C15   C169  A    
C160  C167  A    
O9    Zn6   S    
C111  H11   S    
C12   C174  A    
C58   C66   A    
N17   H58   S    
C57   C136  S    
C80   C96   A    
C7    O7    A    
C28   C100  A    
C32   C40   A    
C52   C108  A    
C150  N7    S    
C199  O59   D    
O28   Zn7   S    
C108  H8    S    
C53   C61   A    
O13   Zn2   S    
C26   C34   A    
C143  C157  A    
C203  O63   D    
C51   C99   A    
N15   H54   S    
C153  C155  A    
C14   C172  A    
C87   C184  S    
O10   Zn5   S    
C2    O26   A    
C88   C183  S    
C7    C75   S    
C186  N10   S    
N16   H55   S    
C8    O8    A    
C88   O12   A    
N1    H25   S    
C135  O41   A    
C107  C115  A    
C26   C98   A    
C12   C175  A    
N18   H60   S    
C78   C118  A    
N2    H28   S    
C196  O56   D    
C41   C110  A    
C150  C152  A    
C130  H22   S    
C51   C59   A    
C43   C112  A    
O38   Zn10  S    
C144  C158  A    
O8    Zn8   S    
C77   C93   A    
C47   C55   A    
C201  H77   S    
C61   C69   A    
C48   C56   A    
C175  C183  A    
O26   Zn5   S    
C139  O39   A    
C142  C160  A    
C12   C168  A    
C84   C124  A    
C118  C126  A    
N6    H35   S    
C145  C153  A    
N8    H40   S    
C81   C97   A    
C87   O19   A    
O30   Zn1   S    
C31   C39   A    
C64   C72   A    
C200  O60   D    
C180  C185  A    
C34   C130  A    
C7    O31   A    
C47   C95   A    
C66   C194  S    
C86   O10   A    
C13   C148  A    
C5    O29   A    
C193  H69   S    
C117  C125  A    
C129  H21   S    
C122  C130  A    
