data_mof_unit_12725.cif
_audit_creation_date              2012-12-11T14:30:16-0500
_audit_creation_method            fapswitch 2.2
_symmetry_space_group_name_H-M    P1
_symmetry_Int_Tables_number       1
_space_group_crystal_system       triclinic
_cell_length_a                    12.667908
_cell_length_b                    12.667898
_cell_length_c                    27.038643
_cell_angle_alpha                 89.999982
_cell_angle_beta                  89.999939
_cell_angle_gamma                 120.000188
_cell_volume                      3757.71777541

loop_
_atom_site_label
_atom_site_type_symbol
_atom_type_description
_atom_site_fract_x
_atom_site_fract_y
_atom_site_fract_z
_atom_type_partial_charge
C1    C     C_R   0.558507 0.456027 0.822347 0.541815
C2    C     C_R   0.456047 0.558402 0.177692 0.541713
C3    C     C_R   0.999405 0.310179 0.473876 -0.074818
C4    C     C_R   0.309744 0.998666 0.025915 -0.074961
C5    C     C_R   0.689808 0.689228 0.473879 -0.074828
C6    C     C_R   0.314662 0.008833 0.525107 -0.075325
C7    C     C_R   0.993165 0.306848 0.974677 -0.075242
C8    C     C_R   0.694150 0.685374 0.525115 -0.075318
C9    C     C_R   0.313690 0.006844 0.974679 -0.075242
C10   C     C_R   0.991217 0.305839 0.525113 -0.075314
C11   C     C_R   0.693139 0.686325 0.974674 -0.075242
C12   C     C_R   0.441635 0.897688 0.322294 0.541784
C13   C     C_R   0.102354 0.543952 0.177693 0.541712
C14   C     C_R   0.992809 0.499191 0.974269 -0.012237
C15   C     C_R   0.506622 0.007719 0.525651 -0.012225
C16   C     C_R   0.500801 0.493619 0.974267 -0.012236
C17   C     C_R   0.992321 0.498908 0.525655 -0.012227
C18   C     C_R   0.506389 0.007199 0.974269 -0.012235
C19   C     C_R   0.501082 0.493407 0.525657 -0.012224
C20   C     C_R   0.500309 0.994714 0.473973 -0.012280
C21   C     C_R   0.897474 0.441454 0.677639 0.541739
C22   C     C_R   0.005808 0.505801 0.025947 -0.012263
C23   C     C_R   0.494390 0.499722 0.473979 -0.012279
C24   C     C_R   0.500001 0.994202 0.025948 -0.012262
C25   C     C_R   0.005325 0.505599 0.473977 -0.012282
C26   C     C_R   0.494193 0.500009 0.025945 -0.012262
C27   C     C_R   0.993251 0.691530 0.974204 0.387421
C28   C     C_R   0.697726 0.005711 0.525855 0.387291
C29   C     C_R   0.308469 0.301716 0.974204 0.387411
C30   C     C_R   0.994317 0.692016 0.525859 0.387309
C31   C     C_R   0.698286 0.006758 0.974204 0.387409
C32   C     C_R   0.543973 0.102481 0.822347 0.541816
C33   C     C_R   0.307975 0.302295 0.525859 0.387286
C34   C     C_R   0.689622 0.989216 0.474437 0.387829
C35   C     C_R   0.009745 0.699860 0.025622 0.387720
C36   C     C_R   0.299586 0.310402 0.474441 0.387830
C37   C     C_R   0.690123 0.990266 0.025623 0.387710
C38   C     C_R   0.010817 0.700408 0.474441 0.387848
C39   C     C_R   0.300141 0.309880 0.025623 0.387712
C40   C     C_R   0.961687 0.577754 0.896980 -0.105261
C41   C     C_R   0.615817 0.037986 0.603020 -0.105353
C42   C     C_R   0.422243 0.383928 0.896979 -0.105261
C43   C     C_R   0.558546 0.456019 0.677639 0.541742
C44   C     C_R   0.962035 0.577832 0.603022 -0.105354
C45   C     C_R   0.616071 0.038318 0.896980 -0.105263
C46   C     C_R   0.422162 0.384195 0.603023 -0.105357
C47   C     C_R   0.577427 0.960362 0.396987 -0.105056
C48   C     C_R   0.039298 0.616804 0.103013 -0.105116
C49   C     C_R   0.382933 0.422589 0.396991 -0.105056
C50   C     C_R   0.577511 0.960706 0.103014 -0.105118
C51   C     C_R   0.039657 0.617063 0.396991 -0.105054
C52   C     C_R   0.383197 0.422492 0.103013 -0.105119
C53   C     C_R   0.047906 0.524042 0.128090 -0.019742
C54   C     C_R   0.897519 0.441492 0.822347 0.541815
C55   C     C_R   0.476383 0.952355 0.371851 -0.019828
C56   C     C_R   0.475956 0.523866 0.128089 -0.019743
C57   C     C_R   0.047657 0.524025 0.371854 -0.019826
C58   C     C_R   0.476140 0.952098 0.128090 -0.019743
C59   C     C_R   0.475969 0.523633 0.371855 -0.019826
C60   C     C_R   0.524145 0.048926 0.627865 -0.019392
C61   C     C_R   0.951359 0.475465 0.872073 -0.019479
C62   C     C_R   0.524773 0.475866 0.627869 -0.019392
C63   C     C_R   0.524108 0.048643 0.872074 -0.019479
C64   C     C_R   0.951094 0.475222 0.627869 -0.019394
C65   C     C_R   0.543982 0.102530 0.677638 0.541742
C66   C     C_R   0.524529 0.475894 0.872072 -0.019480
C67   C     C_R   0.984100 0.591122 0.948178 -0.034277
C68   C     C_R   0.606836 0.015644 0.551814 -0.034276
C69   C     C_R   0.408874 0.392975 0.948177 -0.034275
C70   C     C_R   0.984387 0.591195 0.551817 -0.034282
C71   C     C_R   0.607028 0.015907 0.948179 -0.034274
C72   C     C_R   0.408796 0.393185 0.551818 -0.034277
C73   C     C_R   0.590827 0.983030 0.448155 -0.034408
C74   C     C_R   0.016707 0.607598 0.051836 -0.034349
C75   C     C_R   0.392194 0.409199 0.448161 -0.034408
C76   C     C_R   0.456053 0.558366 0.322294 0.541784
C77   C     C_R   0.590898 0.983302 0.051837 -0.034347
C78   C     C_R   0.017003 0.607799 0.448160 -0.034415
C79   C     C_R   0.392401 0.409108 0.051836 -0.034347
C80   C     C_R   0.971428 0.390969 0.897929 -0.115187
C81   C     C_R   0.419959 0.029677 0.601924 -0.115010
C82   C     C_R   0.609017 0.580464 0.897927 -0.115189
C83   C     C_R   0.970359 0.390291 0.601930 -0.115004
C84   C     C_R   0.419544 0.028573 0.897930 -0.115189
C85   C     C_R   0.609700 0.580063 0.601931 -0.115009
C86   C     C_R   0.393588 0.975486 0.397389 -0.115823
C87   C     C_R   0.441598 0.897646 0.177693 0.541711
C88   C     C_R   0.025581 0.418466 0.102468 -0.115690
C89   C     C_R   0.581886 0.606443 0.397395 -0.115821
C90   C     C_R   0.392893 0.974429 0.102469 -0.115691
C91   C     C_R   0.024537 0.418101 0.397392 -0.115816
C92   C     C_R   0.581528 0.607122 0.102466 -0.115691
C93   C     C_R   0.987653 0.399636 0.948779 0.005922
C94   C     C_R   0.412533 0.013587 0.551071 0.005869
C95   C     C_R   0.600353 0.588022 0.948776 0.005924
C96   C     C_R   0.986457 0.398956 0.551077 0.005868
C97   C     C_R   0.411988 0.012353 0.948780 0.005921
C98   C     C_R   0.102311 0.543946 0.322294 0.541783
C99   C     C_R   0.601034 0.587497 0.551078 0.005872
C100  C     C_R   0.402292 0.992234 0.448222 0.006408
C101  C     C_R   0.008985 0.410554 0.051630 0.006241
C102  C     C_R   0.589925 0.597743 0.448228 0.006404
C103  C     C_R   0.401578 0.991027 0.051631 0.006241
C104  C     C_R   0.007803 0.410062 0.448226 0.006403
C105  C     C_R   0.589438 0.598436 0.051627 0.006240
C106  C     C_R   0.001346 0.311082 0.025914 -0.074963
C107  C     C_R   0.310810 0.000637 0.473871 -0.074823
C108  C     C_R   0.688908 0.690273 0.025911 -0.074967
Cr1   Cr    Cr6+3 0.487630 0.241180 0.750000 1.042374
Cr2   Cr    Cr6+3 0.753550 0.512370 0.750000 1.042375
Cr3   Cr    Cr6+3 0.758820 0.246450 0.750000 1.042372
Cr4   Cr    Cr6+3 0.241180 0.487630 0.250000 1.041664
Cr5   Cr    Cr6+3 0.512370 0.753550 0.250000 1.041662
Cr6   Cr    Cr6+3 0.246450 0.758820 0.250000 1.041665
F1    F     F_    0.017795 0.797578 0.049781 -0.612570
F2    F     F_    0.794740 0.012470 0.949853 -0.611970
F3    F     F_    0.989429 0.783125 0.550277 -0.611705
F4    F     F_    0.217728 0.205260 0.949854 -0.611965
F5    F     F_    0.778895 0.980329 0.450348 -0.612711
F6    F     F_    0.202427 0.220208 0.049782 -0.612577
F7    F     F_    0.019706 0.798569 0.450352 -0.612693
F8    F     F_    0.779794 0.982221 0.049781 -0.612582
F9    F     F_    0.201429 0.221125 0.450351 -0.612713
F10   F     F_    0.793716 0.010588 0.550275 -0.611724
F11   F     F_    0.987539 0.782272 0.949853 -0.611954
F12   F     F_    0.216864 0.206299 0.550278 -0.611726
H1    H     H_    0.056108 0.698190 0.122778 0.183705
H2    H     H_    0.696670 0.053422 0.877043 0.183341
H3    H     H_    0.947538 0.643647 0.623020 0.183190
H4    H     H_    0.356752 0.303326 0.877043 0.183341
H5    H     H_    0.030883 0.345717 0.121344 0.157471
H6    H     H_    0.315828 0.970682 0.378455 0.157285
H7    H     H_    0.654274 0.685177 0.121341 0.157471
H8    H     H_    0.029337 0.345143 0.378457 0.157289
H9    H     H_    0.314844 0.969129 0.121345 0.157470
H10   H     H_    0.654840 0.684207 0.378461 0.157288
H11   H     H_    0.348050 0.036920 0.620576 0.158222
H12   H     H_    0.641666 0.942941 0.377283 0.183874
H13   H     H_    0.964699 0.312104 0.879218 0.158066
H14   H     H_    0.688849 0.651975 0.620584 0.158220
H15   H     H_    0.347406 0.035299 0.879219 0.158065
H16   H     H_    0.963117 0.311140 0.620584 0.158223
H17   H     H_    0.687878 0.652603 0.879215 0.158063
H18   H     H_    0.003682 0.237544 0.045382 0.228523
H19   H     H_    0.235242 0.998826 0.454355 0.228140
H20   H     H_    0.762445 0.766148 0.045378 0.228521
H21   H     H_    0.001211 0.236418 0.454361 0.228163
H22   H     H_    0.233871 0.996330 0.045383 0.228524
H23   H     H_    0.301814 0.357912 0.122779 0.183703
H24   H     H_    0.763566 0.764796 0.454363 0.228144
H25   H     H_    0.242011 0.013215 0.544391 0.229357
H26   H     H_    0.989326 0.230119 0.955344 0.229247
H27   H     H_    0.771182 0.758025 0.544400 0.229350
H28   H     H_    0.240799 0.010682 0.955345 0.229247
H29   H     H_    0.986839 0.228809 0.544397 0.229372
H30   H     H_    0.769866 0.759217 0.955340 0.229235
H31   H     H_    0.057071 0.698721 0.377287 0.183882
H32   H     H_    0.642084 0.943892 0.122779 0.183702
H33   H     H_    0.301279 0.358341 0.377286 0.183877
H34   H     H_    0.696123 0.052473 0.623019 0.183185
H35   H     H_    0.946583 0.643249 0.877043 0.183343
H36   H     H_    0.356349 0.303881 0.623021 0.183185
O1    O     O_R   0.460870 0.120930 0.805240 -0.512268
O2    O     O_R   0.120930 0.460870 0.194760 -0.512490
O3    O     O_R   0.539130 0.660060 0.305240 -0.512427
O4    O     O_R   0.339940 0.879070 0.194760 -0.512488
O5    O     O_R   0.498910 0.350470 0.801870 -0.499495
O6    O     O_R   0.851560 0.501090 0.698130 -0.499508
O7    O     O_R   0.649530 0.148440 0.801870 -0.499494
O8    O     O_R   0.498910 0.350470 0.698130 -0.499513
O9    O     O_R   0.851560 0.501090 0.801870 -0.499492
O10   O     O_R   0.649530 0.148440 0.698130 -0.499511
O11   O     O_R   0.350470 0.498910 0.301870 -0.499613
O12   O     O_R   0.660060 0.539130 0.694760 -0.512316
O13   O     O_R   0.501090 0.851560 0.198130 -0.499619
O14   O     O_R   0.148440 0.649530 0.301870 -0.499613
O15   O     O_R   0.350470 0.498910 0.198130 -0.499617
O16   O     O_R   0.501090 0.851560 0.301870 -0.499617
O17   O     O_R   0.148440 0.649530 0.198130 -0.499618
O18   O     O_3   0.666667 0.333333 0.750000 -0.243220
O19   O     O_3   0.333333 0.666667 0.250000 -0.242517
O20   O     O_R   0.879070 0.339940 0.805240 -0.512270
O21   O     O_R   0.460870 0.120930 0.694760 -0.512316
O22   O     O_R   0.660060 0.539130 0.805240 -0.512268
O23   O     O_R   0.879070 0.339940 0.694760 -0.512318
O24   O     O_R   0.120930 0.460870 0.305240 -0.512426
O25   O     O_R   0.539130 0.660060 0.194760 -0.512490
O26   O     O_R   0.339940 0.879070 0.305240 -0.512424

loop_
_geom_bond_atom_site_label_1
_geom_bond_atom_site_label_2
_ccdc_geom_bond_type
C3    C104  A    
C12   O16   A    
C32   O7    A    
C4    C103  A    
C35   C74   A    
C3    H21   S    
C90   H9    S    
C89   C102  A    
C45   C71   A    
C92   H7    S    
C91   C104  A    
C58   C87   S    
C15   C94   A    
C88   C101  A    
C64   C83   A    
C44   C64   A    
C81   H11   S    
C22   C101  A    
C46   C62   A    
C18   C24   A    
C84   C97   A    
C76   O11   A    
C28   C68   A    
C8    C99   A    
Cr5   O3    S    
C107  H19   S    
C43   O12   A    
C87   O4    A    
C15   C68   A    
C45   H2    S    
C39   F6    S    
Cr5   O25   S    
C32   O1    A    
C18   C71   A    
C33   C36   A    
Cr6   O26   S    
C30   C38   A    
Cr3   O10   S    
C59   C89   A    
C2    O25   A    
C34   F5    S    
C21   C64   S    
Cr1   O5    S    
C33   C72   A    
C30   C70   A    
Cr2   O6    S    
C1    O22   A    
Cr5   O19   S    
C52   H23   S    
C6    C94   A    
C40   C67   A    
C6    C107  A    
C49   C75   A    
C44   C70   A    
C51   C57   A    
C18   C97   A    
Cr2   O18   S    
C52   C79   A    
C86   C100  A    
C14   C93   A    
C46   C72   A    
Cr5   O13   S    
Cr2   O9    S    
Cr1   O21   S    
C31   C71   A    
Cr5   O16   S    
C28   C34   A    
C17   C70   A    
C89   H10   S    
C12   O26   A    
C19   C72   A    
C48   C53   A    
Cr4   O2    S    
C26   C105  A    
C62   C85   A    
C43   O8    A    
Cr6   O4    S    
C41   C68   A    
C29   C69   A    
Cr2   O12   S    
C16   C26   A    
C15   C20   A    
C7    C93   A    
C105  C108  A    
Cr3   O23   S    
C65   O10   A    
C25   C78   A    
C50   C58   A    
C48   C74   A    
C36   F9    S    
C42   C66   A    
C47   C73   A    
Cr1   O1    S    
C19   C99   A    
C38   C78   A    
C27   C35   A    
C44   H3    S    
C13   O17   A    
C37   C77   A    
C45   C63   A    
Cr3   O20   S    
C50   H32   S    
C5    H24   S    
C37   F8    S    
Cr3   O7    S    
C39   C79   A    
C19   C23   A    
C21   O23   A    
C13   C53   S    
C85   C99   A    
C36   C75   A    
C66   C82   A    
C41   H34   S    
C98   O14   A    
C60   C81   A    
C24   C77   A    
C20   C100  A    
C10   C96   A    
C14   C67   A    
C29   C39   A    
C54   O20   A    
C1    C66   S    
C7    C106  A    
C76   O3    A    
C42   H4    S    
C17   C96   A    
C100  C107  A    
C35   F1    S    
C8    H27   S    
C58   C90   A    
C85   H14   S    
C11   H30   S    
C6    H25   S    
C2    O15   A    
C38   F7    S    
C60   C65   S    
Cr3   O18   S    
C5    C8    A    
C22   C74   A    
C80   H13   S    
C50   C77   A    
C31   F2    S    
Cr1   O8    S    
C13   O2    A    
C47   C55   A    
C65   O21   A    
C11   C95   A    
C101  C106  A    
C5    C102  A    
C16   C95   A    
C9    C97   A    
C82   C95   A    
C57   C91   A    
C21   O6    A    
C54   O9    A    
C16   C69   A    
C41   C60   A    
C23   C75   A    
C82   H17   S    
C54   C61   S    
C10   H29   S    
C9    H28   S    
C83   H16   S    
C28   F10   S    
C25   C104  A    
C106  H18   S    
Cr4   O19   S    
C30   F3    S    
C32   C63   S    
Cr6   O19   S    
C87   O13   A    
C29   F4    S    
C26   C79   A    
C49   C59   A    
C63   C84   A    
C24   C103  A    
C17   C25   A    
C14   C22   A    
C55   C86   A    
C80   C93   A    
C51   C78   A    
C40   H35   S    
C98   O24   A    
C108  H20   S    
C2    C56   S    
C48   H1    S    
Cr4   O24   S    
C81   C94   A    
C27   F11   S    
Cr1   O18   S    
C86   H6    S    
C91   H8    S    
C83   C96   A    
C84   H15   S    
C57   C98   S    
C47   H12   S    
Cr6   O14   S    
C33   F12   S    
C51   H31   S    
C20   C73   A    
Cr4   O11   S    
C53   C88   A    
C42   C69   A    
C90   C103  A    
C12   C55   S    
C27   C67   A    
C40   C61   A    
C34   C73   A    
Cr2   O22   S    
C7    H26   S    
C23   C102  A    
C31   C37   A    
C92   C105  A    
C56   C92   A    
Cr6   O17   S    
C46   H36   S    
C11   C108  A    
C3    C10   A    
C1    O5    A    
C49   H33   S    
C61   C80   A    
C88   H5    S    
C4    C9    A    
C59   C76   S    
C52   C56   A    
C43   C62   S    
Cr4   O15   S    
C4    H22   S    
