data_mof_unit_35196.cif
_audit_creation_date              2013-03-05T15:50:11-0500
_audit_creation_method            fapswitch 2.2
_symmetry_space_group_name_H-M    P1
_symmetry_Int_Tables_number       1
_space_group_crystal_system       triclinic
_cell_length_a                    18.440827
_cell_length_b                    25.852552
_cell_length_c                    18.279866
_cell_angle_alpha                 90.108371
_cell_angle_beta                  90.053795
_cell_angle_gamma                 89.694534
_cell_volume                      8714.64469984

loop_
_atom_site_label
_atom_site_type_symbol
_atom_site_description
_atom_site_fract_x
_atom_site_fract_y
_atom_site_fract_z
_atom_type_partial_charge
Zn1   Zn    Zn3+2 0.249990 0.293780 0.913250 1.069182
Zn2   Zn    Zn3+2 0.249990 0.706220 0.086750 1.054204
Zn3   Zn    Zn3+2 0.249990 0.706220 0.913250 1.042429
Zn4   Zn    Zn3+2 0.249990 0.293780 0.086750 1.065180
Zn5   Zn    Zn3+2 0.749990 0.793780 0.413250 1.058934
Zn6   Zn    Zn3+2 0.749990 0.206220 0.586750 1.067943
Zn7   Zn    Zn3+2 0.749990 0.206220 0.413250 1.034420
Zn8   Zn    Zn3+2 0.749990 0.793780 0.586750 1.066637
Zn9   Zn    Zn3+2 0.336760 0.206240 0.000000 1.037617
Zn10  Zn    Zn3+2 0.336760 0.793760 0.000000 1.051720
Zn11  Zn    Zn3+2 0.836760 0.706240 0.500000 1.048620
Zn12  Zn    Zn3+2 0.836760 0.293760 0.500000 1.065450
Zn13  Zn    Zn3+2 0.163250 0.206230 0.000000 1.041827
Zn14  Zn    Zn3+2 0.163250 0.793770 0.000000 1.067204
Zn15  Zn    Zn3+2 0.663250 0.706230 0.500000 1.039699
Zn16  Zn    Zn3+2 0.663250 0.293770 0.500000 1.053311
O1    O     O_3   0.249990 0.250010 0.000000 -0.502713
O2    O     O_3   0.249990 0.749990 0.000000 -0.501861
O3    O     O_3   0.749990 0.750010 0.500000 -0.498672
O4    O     O_3   0.749990 0.249990 0.500000 -0.500162
O5    O     O_R   0.335430 0.280650 0.146160 -0.563688
O6    O     O_R   0.335430 0.719350 0.853840 -0.603568
O7    O     O_R   0.335430 0.719350 0.146160 -0.578299
O8    O     O_R   0.335430 0.280650 0.853840 -0.561167
O9    O     O_R   0.835430 0.780650 0.646160 -0.567047
O10   O     O_R   0.835430 0.219350 0.353840 -0.615162
O11   O     O_R   0.835430 0.219350 0.646160 -0.567917
O12   O     O_R   0.835430 0.780650 0.353840 -0.580353
O13   O     O_R   0.164550 0.280640 0.853840 -0.627200
O14   O     O_R   0.164550 0.719360 0.146160 -0.642684
O15   O     O_R   0.164550 0.719360 0.853840 -0.641445
O16   O     O_R   0.164550 0.280640 0.146160 -0.617264
O17   O     O_R   0.664550 0.780640 0.353840 -0.629687
O18   O     O_R   0.664550 0.219360 0.646160 -0.623656
O19   O     O_R   0.664550 0.219360 0.353840 -0.644551
O20   O     O_R   0.664550 0.780640 0.646160 -0.620226
O21   O     O_R   0.396160 0.219380 0.914560 -0.650028
O22   O     O_R   0.396160 0.780620 0.085440 -0.638002
O23   O     O_R   0.396160 0.780620 0.914560 -0.612393
O24   O     O_R   0.396160 0.219380 0.085440 -0.641425
O25   O     O_R   0.896160 0.719380 0.414560 -0.646697
O26   O     O_R   0.896160 0.280620 0.585440 -0.633492
O27   O     O_R   0.896160 0.280620 0.414560 -0.605825
O28   O     O_R   0.896160 0.719380 0.585440 -0.637506
O29   O     O_R   0.103840 0.219370 0.085450 -0.629975
O30   O     O_R   0.103840 0.780630 0.914550 -0.607783
O31   O     O_R   0.103840 0.780630 0.085450 -0.613554
O32   O     O_R   0.103840 0.219370 0.914550 -0.622783
O33   O     O_R   0.603840 0.719370 0.585450 -0.627059
O34   O     O_R   0.603840 0.280630 0.414550 -0.601797
O35   O     O_R   0.603840 0.280630 0.585450 -0.626569
O36   O     O_R   0.603840 0.719370 0.414550 -0.621489
O37   O     O_R   0.310730 0.133160 0.000000 -0.659812
O38   O     O_R   0.310730 0.866840 0.000000 -0.671218
O39   O     O_R   0.810730 0.633160 0.500000 -0.660356
O40   O     O_R   0.810730 0.366840 0.500000 -0.654074
O41   O     O_R   0.249970 0.366860 0.060720 -0.629813
O42   O     O_R   0.249970 0.633140 0.939280 -0.638512
O43   O     O_R   0.249970 0.633140 0.060720 -0.617767
O44   O     O_R   0.249970 0.366860 0.939280 -0.620027
O45   O     O_R   0.749970 0.866860 0.560720 -0.626478
O46   O     O_R   0.749970 0.133140 0.439280 -0.643786
O47   O     O_R   0.749970 0.133140 0.560720 -0.616639
O48   O     O_R   0.749970 0.866860 0.439280 -0.627261
O49   O     O_R   0.189290 0.133150 0.000000 -0.588179
O50   O     O_R   0.189290 0.866850 0.000000 -0.561745
O51   O     O_R   0.689290 0.633150 0.500000 -0.601698
O52   O     O_R   0.689290 0.366850 0.500000 -0.603895
C1    C     C_R   0.390603 0.250807 0.139237 0.923327
C2    C     C_R   0.389862 0.749583 0.859990 0.894030
C3    C     C_R   0.391593 0.747590 0.138063 0.908741
C4    C     C_R   0.391310 0.251394 0.861306 0.897881
C5    C     C_R   0.890464 0.750814 0.639269 0.922257
C6    C     C_R   0.889874 0.249635 0.360036 0.896111
C7    C     C_R   0.891127 0.247950 0.638397 0.929991
C8    C     C_R   0.890033 0.749904 0.360128 0.917535
C9    C     C_R   0.109538 0.251113 0.860820 0.844347
C10   C     C_R   0.109731 0.749360 0.139433 0.851881
C11   C     C_R   0.110476 0.750177 0.859718 0.868485
C12   C     C_R   0.110907 0.249630 0.140515 0.862379
C13   C     C_R   0.610088 0.750651 0.360397 0.851778
C14   C     C_R   0.611489 0.250808 0.640983 0.868789
C15   C     C_R   0.610671 0.250348 0.359613 0.873849
C16   C     C_R   0.611024 0.749500 0.640617 0.866213
C17   C     C_R   0.250142 0.109439 0.998466 0.804656
C18   C     C_R   0.250493 0.890584 0.001482 0.837250
C19   C     C_R   0.750122 0.609471 0.499007 0.813538
C20   C     C_R   0.749639 0.390613 0.501416 0.821695
C21   C     C_R   0.249918 0.391406 0.000143 0.819294
C22   C     C_R   0.249790 0.608614 0.000063 0.812277
C23   C     C_R   0.749964 0.891400 0.500136 0.822993
C24   C     C_R   0.749888 0.108606 0.500054 0.805468
C25   C     C_3   0.249022 0.470409 0.080102 -0.375582
C26   C     C_3   0.181847 0.530125 0.960002 -0.407035
C27   C     C_3   0.248798 0.529849 0.080066 -0.364517
C28   C     C_3   0.181815 0.470281 0.960178 -0.408154
C29   C     C_3   0.749724 0.970388 0.580067 -0.376120
C30   C     C_3   0.681701 0.030111 0.460523 -0.405094
C31   C     C_3   0.749658 0.029822 0.580023 -0.364792
C32   C     C_3   0.681744 0.970272 0.460566 -0.411107
H1    H     H_    0.297533 0.456176 0.110469 0.209654
H2    H     H_    0.181082 0.544220 0.902513 0.189243
H3    H     H_    0.297060 0.543923 0.110677 0.223452
H4    H     H_    0.180837 0.455883 0.902767 0.188815
H5    H     H_    0.798375 0.956089 0.610147 0.211372
H6    H     H_    0.680409 0.044271 0.403074 0.186887
H7    H     H_    0.798234 0.043845 0.610172 0.221161
H8    H     H_    0.680482 0.955935 0.403131 0.185799
H9    H     H_    0.200107 0.456364 0.109513 0.182944
H10   H     H_    0.131733 0.544837 0.987019 0.156169
H11   H     H_    0.199666 0.544193 0.109278 0.173303
H12   H     H_    0.131770 0.456128 0.987427 0.159585
H13   H     H_    0.700946 0.956412 0.609775 0.181546
H14   H     H_    0.631811 0.044762 0.488022 0.153484
H15   H     H_    0.700833 0.044215 0.609696 0.177253
H16   H     H_    0.631857 0.956063 0.488052 0.157200
H17   H     H_    0.269693 0.907660 0.138684 0.189663
H18   H     H_    0.229418 0.096593 0.134637 0.202432
H19   H     H_    0.668912 0.407119 0.615759 0.214926
H20   H     H_    0.693409 0.596926 0.624440 0.213573
H21   H     H_    0.368074 0.455315 0.989957 0.225481
H22   H     H_    0.320839 0.543920 0.904428 0.206739
H23   H     H_    0.368029 0.543932 0.990261 0.224428
H24   H     H_    0.320439 0.455684 0.904242 0.226154
H25   H     H_    0.868174 0.955356 0.489349 0.229205
H26   H     H_    0.820106 0.043775 0.403707 0.197320
H27   H     H_    0.868126 0.043972 0.489078 0.222563
H28   H     H_    0.820279 0.955462 0.403843 0.206160
C33   C     C_3   0.318545 0.469882 0.961714 -0.329769
C34   C     C_3   0.318598 0.529694 0.961804 -0.356458
C35   C     C_3   0.818508 0.969819 0.461253 -0.343486
C36   C     C_3   0.818450 0.029648 0.461152 -0.367912
C37   C     C_3   0.249825 0.449169 0.000529 0.134466
C38   C     C_3   0.249749 0.550889 0.000443 0.143300
C39   C     C_3   0.749989 0.949147 0.500495 0.145321
C40   C     C_3   0.749925 0.050867 0.500399 0.153127
C41   C     C_R   0.023912 0.340706 0.829699 -0.173543
C42   C     C_R   0.044593 0.655377 0.186139 -0.159646
C43   C     C_R   0.014252 0.666140 0.843375 -0.165311
C44   C     C_R   0.971289 0.290682 0.112311 -0.167285
C45   C     C_R   0.524102 0.839523 0.330363 -0.176223
C46   C     C_R   0.515539 0.166891 0.655610 -0.162783
C47   C     C_R   0.510772 0.168584 0.347410 -0.164063
C48   C     C_R   0.474382 0.795722 0.615187 -0.170212
C49   C     C_R   0.980998 0.384267 0.817422 -0.130180
C50   C     C_R   0.020386 0.608507 0.213401 -0.094832
C51   C     C_R   0.967546 0.624271 0.836862 -0.114810
C52   C     C_R   0.902896 0.310836 0.096565 -0.106732
C53   C     C_R   0.483138 0.883699 0.316434 -0.125299
C54   C     C_R   0.477579 0.121668 0.668898 -0.102249
C55   C     C_R   0.463238 0.127144 0.341956 -0.109809
C56   C     C_R   0.406904 0.817657 0.600210 -0.113712
C57   C     C_R   0.430300 0.882872 0.262614 -0.071516
C58   C     C_R   0.431129 0.119047 0.728200 -0.050799
C59   C     C_R   0.411583 0.126302 0.286890 -0.031529
C60   C     C_R   0.352454 0.816120 0.652373 -0.009470
C61   C     C_R   0.926689 0.382888 0.765005 -0.069441
C62   C     C_R   0.972292 0.607999 0.271256 -0.058003
C63   C     C_R   0.914875 0.624062 0.782732 -0.044304
C64   C     C_R   0.848815 0.309723 0.149140 -0.014815
C65   C     C_R   0.417269 0.837639 0.223484 -0.128084
C66   C     C_R   0.417582 0.162737 0.770792 -0.130725
C67   C     C_R   0.406579 0.167246 0.237805 -0.102693
C68   C     C_R   0.365641 0.793257 0.719980 -0.134328
C69   C     C_R   0.915287 0.338010 0.724507 -0.105191
C70   C     C_R   0.944949 0.654271 0.299030 -0.115377
C71   C     C_R   0.908511 0.665844 0.735237 -0.107420
C72   C     C_R   0.863118 0.288677 0.217685 -0.128453
C73   C     C_R   0.460120 0.792348 0.234560 0.058190
C74   C     C_R   0.458052 0.208669 0.760525 0.055954
C75   C     C_R   0.454337 0.210147 0.242158 0.051935
C76   C     C_R   0.433703 0.770130 0.736454 0.040353
C77   C     C_R   0.959168 0.293157 0.734796 0.055786
C78   C     C_R   0.972730 0.702952 0.276070 0.062720
C79   C     C_R   0.955459 0.709141 0.740606 0.051953
C80   C     C_R   0.932260 0.267601 0.235143 0.043435
C81   C     C_R   0.014018 0.294605 0.788525 0.073206
C82   C     C_R   0.025122 0.703122 0.220006 0.073093
C83   C     C_R   0.009476 0.709078 0.795041 0.069161
C84   C     C_R   0.987086 0.268350 0.181625 0.076031
C85   C     C_R   0.514507 0.793564 0.288679 0.071848
C86   C     C_R   0.510181 0.209664 0.704217 0.068738
C87   C     C_R   0.507883 0.210412 0.297014 0.069116
C88   C     C_R   0.488723 0.770985 0.683162 0.075032
C89   C     C_R   0.447923 0.746040 0.194458 -0.118685
C90   C     C_R   0.449273 0.252547 0.806384 -0.112788
C91   C     C_R   0.448615 0.252479 0.193484 -0.115630
C92   C     C_R   0.447098 0.746475 0.804782 -0.107756
C93   C     C_R   0.946632 0.246689 0.695185 -0.118637
C94   C     C_R   0.948676 0.750835 0.306607 -0.121839
C95   C     C_R   0.947847 0.752480 0.693973 -0.116865
C96   C     C_R   0.947308 0.246905 0.305074 -0.108367
C97   C     C_R   0.490263 0.700084 0.208161 -0.061374
C98   C     C_R   0.502426 0.292796 0.806154 -0.065030
C99   C     C_R   0.498617 0.294689 0.196168 -0.058009
C100  C     C_R   0.514186 0.720557 0.819609 -0.054771
C101  C     C_R   0.985465 0.199992 0.712241 -0.062627
C102  C     C_R   0.981140 0.798713 0.285932 -0.058722
C103  C     C_R   0.994523 0.796314 0.700017 -0.064336
C104  C     C_R   0.016970 0.225743 0.322473 -0.059914
C105  C     C_R   0.044045 0.203163 0.762957 -0.113156
C106  C     C_R   0.036860 0.798063 0.232200 -0.114764
C107  C     C_R   0.051807 0.795115 0.753036 -0.105484
C108  C     C_R   0.073363 0.227177 0.268743 -0.114868
C109  C     C_R   0.549739 0.703595 0.258186 -0.114423
C110  C     C_R   0.563177 0.288225 0.758051 -0.100114
C111  C     C_R   0.555322 0.293820 0.249964 -0.104907
C112  C     C_R   0.571182 0.722432 0.766425 -0.099717
C113  C     C_R   0.056352 0.249929 0.801714 -0.078556
C114  C     C_R   0.056273 0.750456 0.198062 -0.087750
C115  C     C_R   0.056945 0.751664 0.801139 -0.081848
C116  C     C_R   0.056708 0.248179 0.198263 -0.079781
C117  C     C_R   0.557854 0.749249 0.300781 -0.079537
C118  C     C_R   0.559172 0.251235 0.700343 -0.071284
C119  C     C_R   0.557248 0.251980 0.301115 -0.083422
C120  C     C_R   0.556870 0.747928 0.698382 -0.078843
C121  C     C_R   0.477969 0.650587 0.173904 0.353416
C122  C     C_R   0.500907 0.335647 0.855628 0.348680
C123  C     C_R   0.495741 0.337511 0.146140 0.313864
C124  C     C_R   0.526218 0.691549 0.885254 0.325734
C125  C     C_R   0.969894 0.149715 0.681750 0.357455
C126  C     C_R   0.962883 0.847686 0.318462 0.347646
C127  C     C_R   0.987649 0.841372 0.654404 0.322813
C128  C     C_R   0.032571 0.202237 0.391633 0.323210
C129  C     C_R   0.520858 0.607958 0.191390 -0.273264
C130  C     C_R   0.563273 0.363963 0.869187 -0.203562
C131  C     C_R   0.545792 0.377203 0.150479 -0.270901
C132  C     C_R   0.594161 0.671400 0.901408 -0.227555
C133  C     C_R   0.003986 0.105735 0.709370 -0.269586
C134  C     C_R   0.986823 0.893467 0.287223 -0.273760
C135  C     C_R   0.032851 0.883360 0.663996 -0.260060
C136  C     C_R   0.103102 0.189129 0.410657 -0.244369
C137  C     C_R   0.062481 0.109894 0.755835 0.397486
C138  C     C_R   0.041352 0.892634 0.235681 0.392368
C139  C     C_R   0.089483 0.881689 0.712699 0.391549
C140  C     C_R   0.158589 0.192220 0.360450 0.407180
C141  C     C_R   0.581229 0.612795 0.235072 0.385743
C142  C     C_R   0.626255 0.354622 0.830411 0.408428
C143  C     C_R   0.601561 0.375992 0.200453 0.380063
C144  C     C_R   0.650451 0.674702 0.852139 0.406309
C145  C     C_R   0.088448 0.158581 0.774476 0.328374
C146  C     C_R   0.072989 0.845452 0.215979 0.345050
C147  C     C_R   0.102182 0.837546 0.755040 0.289307
C148  C     C_R   0.143914 0.206890 0.288164 0.323330
C149  C     C_R   0.599537 0.660886 0.264054 0.310804
C150  C     C_R   0.626256 0.319428 0.771944 0.304153
C151  C     C_R   0.608463 0.334704 0.249427 0.280917
C152  C     C_R   0.639511 0.697548 0.783471 0.327382
H29   H     H_    0.064159 0.343719 0.872495 0.118075
H30   H     H_    0.079073 0.653021 0.138571 0.128419
H31   H     H_    0.053774 0.664276 0.887043 0.111543
H32   H     H_    0.011509 0.293367 0.069491 0.112739
H33   H     H_    0.563516 0.842304 0.373963 0.117048
H34   H     H_    0.552136 0.166542 0.609404 0.108547
H35   H     H_    0.549778 0.167121 0.391589 0.108220
H36   H     H_    0.514885 0.798495 0.572634 0.109459
H37   H     H_    0.989400 0.419029 0.849384 0.142102
H38   H     H_    0.038409 0.572487 0.188962 0.144320
H39   H     H_    0.972199 0.591920 0.874129 0.146234
H40   H     H_    0.892000 0.327623 0.043436 0.162241
H41   H     H_    0.492240 0.918632 0.347820 0.141621
H42   H     H_    0.485821 0.088105 0.634315 0.148654
H43   H     H_    0.466705 0.095494 0.380525 0.146643
H44   H     H_    0.396927 0.835980 0.547925 0.160328
H45   H     H_    0.398826 0.917352 0.251538 0.169203
H46   H     H_    0.406395 0.082735 0.741713 0.175174
H47   H     H_    0.375068 0.093857 0.282289 0.184949
H48   H     H_    0.299912 0.833110 0.640729 0.200119
H49   H     H_    0.892554 0.416529 0.756252 0.164320
H50   H     H_    0.954027 0.571453 0.293019 0.153419
H51   H     H_    0.878403 0.591558 0.777756 0.172852
H52   H     H_    0.795696 0.325618 0.137080 0.189886
H53   H     H_    0.987757 0.067626 0.690906 0.224413
H54   H     H_    0.968514 0.930374 0.308793 0.221097
H55   H     H_    0.025738 0.917605 0.630494 0.233685
H56   H     H_    0.114539 0.173809 0.464634 0.238423
H57   H     H_    0.509051 0.570425 0.167732 0.228713
H58   H     H_    0.562340 0.394801 0.909442 0.234795
H59   H     H_    0.542478 0.409384 0.112632 0.231437
H60   H     H_    0.602698 0.650706 0.952273 0.235389
C153  C     C_R   0.269984 0.051787 0.865042 -0.255415
C154  C     C_R   0.285147 0.944874 0.870081 -0.231304
C155  C     C_R   0.792207 0.552345 0.370801 -0.268652
C156  C     C_R   0.801988 0.445058 0.376124 -0.237129
C157  C     C_R   0.281873 0.023881 0.800512 0.418884
C158  C     C_R   0.294997 0.970787 0.804137 0.441521
C159  C     C_R   0.811767 0.524570 0.308143 0.407476
C160  C     C_R   0.819860 0.470940 0.311868 0.425581
C161  C     C_R   0.266203 0.972070 0.934640 0.004023
C162  C     C_R   0.262570 0.026343 0.932998 0.012677
C163  C     C_R   0.776194 0.472288 0.438370 0.011634
C164  C     C_R   0.774128 0.526616 0.436640 0.012842
C165  C     C_R   0.253943 0.946314 0.001298 -0.052425
C166  C     C_R   0.250684 0.053720 0.999008 -0.042130
C167  C     C_R   0.748258 0.446372 0.500224 -0.057762
C168  C     C_R   0.749671 0.553812 0.499110 -0.052674
C169  C     C_R   0.251215 0.973741 0.068044 0.013130
C170  C     C_R   0.245639 0.027918 0.066737 0.007759
C171  C     C_R   0.714167 0.473778 0.558053 -0.001920
C172  C     C_R   0.718016 0.528032 0.559016 -0.001398
C173  C     C_R   0.257290 0.948453 0.136173 -0.247705
C174  C     C_R   0.236751 0.055065 0.133534 -0.287432
C175  C     C_R   0.674544 0.448632 0.614066 -0.272204
C176  C     C_R   0.687787 0.555522 0.618982 -0.282100
C177  C     C_R   0.249975 0.975723 0.201843 0.424895
C178  C     C_R   0.237244 0.028985 0.200291 0.405128
C179  C     C_R   0.637239 0.477080 0.667165 0.416204
C180  C     C_R   0.646087 0.530484 0.671324 0.417850
H61   H     H_    0.265820 0.093237 0.861537 0.205788
H62   H     H_    0.293843 0.903496 0.870296 0.202442
H63   H     H_    0.787942 0.593919 0.366294 0.202856
H64   H     H_    0.805810 0.403342 0.375202 0.207140
Cl1   Cl    Cl    0.411713 0.634358 0.108805 -0.582965
Cl2   Cl    Cl    0.422757 0.361961 0.896353 -0.567686
Cl3   Cl    Cl    0.434157 0.346522 0.073453 -0.606242
Cl4   Cl    Cl    0.458839 0.672254 0.947632 -0.561705
Cl5   Cl    Cl    0.912246 0.134573 0.608233 -0.578025
Cl6   Cl    Cl    0.924261 0.857052 0.405378 -0.568353
Cl7   Cl    Cl    0.927225 0.851082 0.581090 -0.574441
Cl8   Cl    Cl    0.967834 0.181771 0.455894 -0.557578
Cl9   Cl    Cl    0.181656 0.162684 0.796306 -0.583289
Cl10  Cl    Cl    0.165219 0.847558 0.190824 -0.582530
Cl11  Cl    Cl    0.186025 0.837168 0.802401 -0.633484
Cl12  Cl    Cl    0.215250 0.193711 0.225877 -0.604196
Cl13  Cl    Cl    0.690177 0.666617 0.295730 -0.576595
Cl14  Cl    Cl    0.709431 0.314252 0.723813 -0.628669
Cl15  Cl    Cl    0.688051 0.336609 0.303949 -0.625799
Cl16  Cl    Cl    0.713180 0.689571 0.722086 -0.624237
Cl17  Cl    Cl    0.221518 0.063774 0.281416 -0.450090
Cl18  Cl    Cl    0.254425 0.942270 0.285546 -0.485462
Cl19  Cl    Cl    0.602922 0.567284 0.739809 -0.484492
Cl20  Cl    Cl    0.575324 0.445670 0.724425 -0.512811
Cl21  Cl    Cl    0.273686 0.054953 0.715201 -0.437188
Cl22  Cl    Cl    0.325210 0.936022 0.727082 -0.527474
Cl23  Cl    Cl    0.820433 0.557213 0.224170 -0.448724
Cl24  Cl    Cl    0.850410 0.434889 0.236087 -0.508669
Cl25  Cl    Cl    0.103112 0.053067 0.788792 -0.458003
Cl26  Cl    Cl    0.074299 0.952017 0.203255 -0.492368
Cl27  Cl    Cl    0.145570 0.936235 0.716074 -0.407520
Cl28  Cl    Cl    0.246326 0.174126 0.389857 -0.460653
Cl29  Cl    Cl    0.634212 0.557146 0.250910 -0.426950
Cl30  Cl    Cl    0.703331 0.391530 0.853269 -0.488186
Cl31  Cl    Cl    0.663894 0.427425 0.198013 -0.406038
Cl32  Cl    Cl    0.733849 0.645918 0.877314 -0.487034
H65   H     H_    0.372733 0.839046 0.185134 0.145666
H66   H     H_    0.377672 0.158870 0.813620 0.151376
H67   H     H_    0.364902 0.164483 0.196441 0.161312
H68   H     H_    0.321603 0.793694 0.758809 0.175913
H69   H     H_    0.870436 0.338960 0.686493 0.164422
H70   H     H_    0.902076 0.650188 0.338444 0.157801
H71   H     H_    0.865966 0.663632 0.694717 0.163993
H72   H     H_    0.819271 0.289384 0.256692 0.176337

loop_
_geom_bond_atom_site_label_1
_geom_bond_atom_site_label_2
_geom_bond_distance
_ccdc_geom_bond_type
C48   C88   1.422502 A    
C129  C141  1.375541 A    
C163  C164  1.405254 A    
C90   C98   1.433312 A    
C62   C70   1.390962 A    
O26   C7    1.289651 A    
C75   C87   1.406693 A    
C166  C170  1.410831 A    
C109  C149  1.436452 A    
O30   C11   1.278925 A    
C22   C38   1.492375 S    
C30   H14   1.113119 S    
C138  Cl26  1.758232 S    
H18   C174  1.081536 S    
C130  H58   1.083989 S    
C53   C57   1.384225 A    
Zn12  O26   1.936337 S    
C29   C31   1.536521 S    
C56   C60   1.386134 A    
C32   H16   1.113044 S    
C55   C59   1.385436 A    
C32   C39   1.551532 S    
C29   H5    1.113642 S    
C110  C118  1.424626 A    
C47   C55   1.391219 A    
C34   C38   1.550453 S    
C52   H40   1.082687 S    
O11   C7    1.276915 A    
C53   H41   1.082783 S    
O34   C15   1.278061 A    
C63   H51   1.082759 S    
C64   H52   1.082893 S    
C49   H37   1.082752 S    
C97   C109  1.430482 A    
Zn1   O44   1.947427 S    
C25   H1    1.113612 S    
Zn2   O43   1.947431 S    
C167  C171  1.417174 A    
C161  C165  1.408685 A    
Zn5   O48   1.947427 S    
C57   C65   1.391539 A    
Zn6   O47   1.947431 S    
Zn15  O3    1.964411 S    
Zn7   O46   1.949177 S    
O16   C12   1.280580 A    
C49   C61   1.385943 A    
C41   H29   1.080836 S    
C173  C177  1.397269 A    
Zn16  O4    1.954559 S    
C133  H53   1.084371 S    
C108  C116  1.431497 A    
Zn1   O13   1.943803 S    
C141  C149  1.393573 A    
C26   C28   1.547125 S    
C139  C147  1.398703 A    
Zn4   O16   1.946173 S    
C151  Cl15  1.774148 S    
C46   C86   1.420314 A    
C28   H4    1.113014 S    
C149  Cl13  1.775270 S    
C93   C101  1.435002 A    
C146  Cl10  1.763425 S    
C110  C150  1.441167 A    
C153  H61   1.075946 S    
C111  C151  1.445226 A    
C175  C179  1.396234 A    
C159  Cl23  1.760900 S    
C155  C164  1.417104 A    
C174  C178  1.395298 A    
C141  Cl29  1.759048 S    
C30   H6    1.112984 S    
Zn10  O22   1.936337 S    
C69   H69   1.079971 S    
O25   C8    1.275670 A    
Zn13  O29   1.937212 S    
C70   H70   1.075909 S    
Zn6   O4    1.949851 S    
Zn10  O2    1.964716 S    
C44   C84   1.422637 A    
C63   C71   1.391516 A    
C31   C40   1.554863 S    
C134  C138  1.378689 A    
O29   C12   1.280643 A    
C45   C85   1.422045 A    
Zn15  O33   1.937212 S    
C43   C83   1.422365 A    
C158  Cl22  1.758858 S    
C26   H2    1.112986 S    
O37   C17   1.277639 A    
O48   C23   1.279592 A    
C122  C130  1.388435 A    
Zn16  O35   1.940294 S    
C99   C123  1.437990 A    
C97   C121  1.442511 A    
Zn7   O10   1.946128 S    
O33   C16   1.280295 A    
C132  C144  1.378022 A    
C25   C37   1.553864 S    
C52   C64   1.386106 A    
O40   C20   1.280702 A    
C106  C146  1.429404 A    
C136  C140  1.377907 A    
C82   C114  1.413537 A    
C84   C116  1.416158 A    
C123  Cl3   1.762096 S    
C140  Cl28  1.765438 S    
C13   C117  1.454313 S    
Zn5   O17   1.943803 S    
C102  C106  1.422134 A    
C1    C91   1.458765 S    
C104  C108  1.431766 A    
C12   C116  1.455061 S    
C65   C73   1.423771 A    
C96   C104  1.429383 A    
C54   H42   1.082745 S    
C61   H49   1.082915 S    
C25   C27   1.536650 S    
C47   H35   1.081557 S    
C74   C86   1.409410 A    
C107  C115  1.430541 A    
C3    C89   1.463253 S    
C133  C137  1.376866 A    
C105  C113  1.419341 A    
C152  Cl16  1.773760 S    
C27   H3    1.113241 S    
C32   H8    1.113029 S    
Zn8   O3    1.946366 S    
C21   C37   1.493301 S    
C148  Cl12  1.771878 S    
C164  C168  1.412924 A    
C8    C94   1.459307 S    
C178  Cl17  1.756452 S    
C61   C69   1.391912 A    
O38   C18   1.266558 A    
C170  C174  1.416411 A    
C59   C67   1.391564 A    
O5    C1    1.279816 A    
O32   C9    1.285811 A    
C100  C112  1.433473 A    
C112  C152  1.445695 A    
C160  Cl24  1.759545 S    
H25   C35   1.112931 S    
C60   H48   1.082791 S    
H26   C36   1.112935 S    
C36   C40   1.550898 S    
Zn15  O51   1.946892 S    
C68   H68   1.079056 S    
C161  C162  1.404729 A    
C23   C39   1.492922 S    
Zn11  O28   1.937350 S    
Zn12  O40   1.946850 S    
C138  C146  1.396088 A    
C177  C178  1.395935 A    
H23   C34   1.113092 S    
C50   H38   1.082863 S    
C139  Cl27  1.754217 S    
C29   C39   1.553800 S    
C125  C133  1.391703 A    
H28   C35   1.112943 S    
O8    C4    1.282339 A    
C71   C79   1.421929 A    
C33   C34   1.546306 S    
C137  C145  1.390751 A    
C72   C80   1.420185 A    
C162  C166  1.414426 A    
C121  Cl1   1.756632 S    
C58   C66   1.392263 A    
C42   H30   1.079133 S    
O50   C18   1.287747 A    
C50   C62   1.381007 A    
C65   H65   1.079809 S    
Zn1   O1    1.949852 S    
C19   C168  1.438998 S    
C46   H34   1.081634 S    
C127  Cl7   1.759601 S    
Zn2   O14   1.942520 S    
C20   C167  1.441802 S    
H19   C175  1.079285 S    
C128  Cl8   1.759748 S    
C48   C56   1.391895 A    
C71   H71   1.080124 S    
C131  H59   1.084496 S    
C42   C50   1.387211 A    
O9    C5    1.277623 A    
C144  Cl32  1.765949 S    
C51   H39   1.082689 S    
O36   C13   1.285076 A    
C68   C76   1.419665 A    
C176  C180  1.390977 A    
O13   C9    1.279450 A    
C126  C134  1.389393 A    
Zn1   O8    1.942478 S    
Zn2   O7    1.943759 S    
C169  C173  1.411723 A    
Zn3   O6    1.946128 S    
C135  C139  1.372236 A    
O18   C14   1.272408 A    
O31   C10   1.281004 A    
O6    C2    1.280196 A    
C121  C129  1.390618 A    
C136  H56   1.084021 S    
C44   H32   1.081409 S    
C180  Cl19  1.759336 S    
Zn14  O30   1.937603 S    
C132  H60   1.084561 S    
C64   C72   1.391405 A    
C11   C115  1.456147 S    
C48   H36   1.081640 S    
Zn11  O3    1.954865 S    
O41   C21   1.277317 A    
C41   C49   1.391399 A    
C142  Cl30  1.765519 S    
Zn16  O34   1.937603 S    
C31   H15   1.113507 S    
C155  H63   1.080553 S    
C88   C120  1.415599 A    
C137  Cl25  1.753128 S    
C124  C132  1.386110 A    
C143  C151  1.399635 A    
Zn8   O20   1.946173 S    
C147  Cl11  1.771313 S    
C67   C75   1.421977 A    
C78   C82   1.409149 A    
C55   H43   1.082698 S    
C153  C162  1.413817 A    
C56   H44   1.082681 S    
C109  C117  1.421213 A    
C134  H54   1.084083 S    
C103  C107  1.433185 A    
Zn8   O9    1.941541 S    
C24   C40   1.492722 S    
C108  C148  1.444405 A    
C127  C135  1.382938 A    
C153  C157  1.398411 A    
C70   C78   1.425403 A    
C155  C159  1.397323 A    
C179  C180  1.393029 A    
O7    C3    1.279199 A    
C156  C160  1.393588 A    
O19   C15   1.277308 A    
C18   C165  1.442536 S    
C26   H10   1.113099 S    
C27   C38   1.554931 S    
Zn6   O18   1.942520 S    
Zn10  O23   1.936961 S    
C47   C87   1.422641 A    
C57   H45   1.080454 S    
C171  C172  1.404832 A    
C157  C158  1.394211 A    
C159  C160  1.395458 A    
C66   C74   1.418731 A    
C131  C143  1.375197 A    
C142  C150  1.402307 A    
C111  C119  1.431405 A    
Zn15  O36   1.936591 S    
O15   C11   1.277513 A    
O42   C22   1.280340 A    
C4    C90   1.467588 S    
C28   C37   1.551576 S    
C72   H72   1.078619 S    
Zn4   O1    1.946366 S    
C143  Cl31  1.762918 S    
C30   C32   1.546973 S    
Zn9   O37   1.951811 S    
C76   C92   1.412730 A    
C35   C36   1.546729 S    
C150  Cl14  1.773270 S    
Zn11  O39   1.951811 S    
C94   C102  1.429472 A    
C145  Cl9   1.767866 S    
H21   C33   1.113001 S    
C15   C119  1.453825 S    
C124  Cl4   1.761922 S    
Zn5   O3    1.949852 S    
C125  Cl5   1.757610 S    
C31   H7    1.113264 S    
C101  C125  1.443441 A    
C62   H50   1.081407 S    
C45   H33   1.080706 S    
C46   C54   1.387795 A    
H24   C33   1.112715 S    
Zn9   O24   1.937350 S    
C165  C169  1.410820 A    
O28   C5    1.279041 A    
Zn13  O1    1.964411 S    
Zn3   O42   1.949177 S    
C168  C172  1.411473 A    
C157  Cl21  1.761548 S    
Zn7   O4    1.946368 S    
O21   C4    1.281685 A    
H17   C173  1.078963 S    
C144  C152  1.402206 A    
C123  C131  1.385920 A    
C171  C175  1.419107 A    
H20   C176  1.080386 S    
C172  C176  1.418240 A    
C126  Cl6   1.757552 S    
C130  C142  1.381164 A    
C30   C40   1.551171 S    
Zn2   O2    1.949851 S    
C169  C170  1.404088 A    
Zn14  O2    1.954559 S    
C163  C167  1.414335 A    
C51   C63   1.385924 A    
C44   C52   1.392090 A    
C156  H64   1.080504 S    
C45   C53   1.389719 A    
C98   C122  1.428943 A    
Zn13  O49   1.946892 S    
O44   C21   1.279775 A    
C28   H12   1.113032 S    
C43   C51   1.391725 A    
Zn12  O4    1.964716 S    
C102  C126  1.436293 A    
C95   C103  1.430727 A    
Zn12  O27   1.936961 S    
C35   C39   1.551485 S    
C128  C136  1.386486 A    
C79   C95   1.415431 A    
C80   C96   1.413417 A    
C107  C147  1.441619 A    
C69   C77   1.423115 A    
C83   C115  1.414370 A    
C105  C145  1.426106 A    
Zn3   O2    1.946368 S    
C81   C113  1.411615 A    
H27   C36   1.113060 S    
C41   C81   1.420890 A    
O10   C6    1.281282 A    
C14   C118  1.452632 S    
C80   C84   1.407757 A    
C156  C163  1.418061 A    
C67   H67   1.080173 S    
O47   C24   1.276499 A    
C101  C105  1.425463 A    
Zn16  O52   1.951854 S    
C9    C113  1.458928 S    
Zn8   O45   1.949173 S    
O27   C6    1.283058 A    
C112  C120  1.432430 A    
O39   C19   1.277404 A    
C74   C90   1.417903 A    
C106  C114  1.423088 A    
C154  H62   1.080840 S    
C100  C124  1.432709 A    
C98   C110  1.429087 A    
O24   C1    1.278265 A    
C104  C128  1.432032 A    
C179  Cl20  1.753266 S    
C79   C83   1.407317 A    
O46   C24   1.280284 A    
O43   C22   1.276267 A    
Zn4   O41   1.949173 S    
Zn3   O15   1.941584 S    
Zn5   O12   1.942478 S    
C76   C88   1.407519 A    
C154  C161  1.415665 A    
Zn6   O11   1.943759 S    
C77   C81   1.409808 A    
C73   C85   1.408511 A    
C87   C119  1.413905 A    
Zn9   O21   1.940043 S    
Zn14  O50   1.951854 S    
C135  H55   1.084750 S    
O35   C14   1.283093 A    
C92   C100  1.429770 A    
C5    C95   1.455991 S    
C6    C96   1.461879 S    
Zn9   O1    1.954865 S    
C78   C94   1.425733 A    
C154  C158  1.392721 A    
O52   C20   1.274272 A    
C33   C37   1.551267 S    
C29   H13   1.113425 S    
C42   C82   1.424273 A    
C10   C114  1.456990 S    
O22   C3    1.290579 A    
C129  H57   1.084630 S    
C91   C99   1.433143 A    
Zn7   O19   1.941584 S    
C43   H31   1.081375 S    
C89   C97   1.440401 A    
C58   H46   1.075168 S    
Zn13  O32   1.936591 S    
C85   C117  1.411148 A    
C66   H66   1.080144 S    
O49   C17   1.276116 A    
Zn14  O31   1.940294 S    
C2    C92   1.462782 S    
O51   C19   1.275215 A    
C75   C91   1.415181 A    
C140  C148  1.401154 A    
C73   C89   1.421427 A    
C27   H11   1.113620 S    
Zn4   O5    1.941541 S    
O20   C16   1.280867 A    
C17   C166  1.440507 S    
C77   C93   1.421358 A    
C26   C38   1.551298 S    
O23   C2    1.284581 A    
Zn11  O25   1.940043 S    
Zn10  O38   1.946850 S    
C7    C93   1.457426 S    
O14   C10   1.276858 A    
O45   C23   1.277341 A    
C103  C127  1.438786 A    
C60   C68   1.391587 A    
C99   C111  1.434895 A    
C54   C58   1.384223 A    
C25   H9    1.113425 S    
C86   C118  1.409609 A    
C177  Cl18  1.760649 S    
C122  Cl2   1.755987 S    
O17   C13   1.277879 A    
H22   C34   1.112967 S    
C59   H47   1.081519 S    
C16   C120  1.454837 S    
O12   C8    1.284726 A    
