data_mof_unit_66470.cif
_audit_creation_date              2013-03-05T16:08:03-0500
_audit_creation_method            fapswitch 2.2
_symmetry_space_group_name_H-M    P1
_symmetry_Int_Tables_number       1
_space_group_crystal_system       triclinic
_cell_length_a                    23.477577
_cell_length_b                    11.573102
_cell_length_c                    10.767395
_cell_angle_alpha                 89.999728
_cell_angle_beta                  90.0
_cell_angle_gamma                 89.999989
_cell_volume                      2925.59159581

loop_
_atom_site_label
_atom_site_type_symbol
_atom_site_description
_atom_site_fract_x
_atom_site_fract_y
_atom_site_fract_z
_atom_type_partial_charge
O1    O     O_R   0.500000 0.334450 0.602530 -0.609466
O2    O     O_R   0.500000 0.665550 0.397470 -0.609466
O3    O     O_R   0.500000 0.665550 0.602530 -0.609420
O4    O     O_R   0.500000 0.334450 0.397470 -0.609420
C1    C     C_R   0.500000 0.281142 0.500000 0.899666
C2    C     C_R   0.500000 0.718857 0.500000 0.899666
O5    O     O_R   0.416150 0.500000 0.602560 -0.563893
O6    O     O_R   0.583850 0.500000 0.397440 -0.563848
O7    O     O_R   0.583850 0.500000 0.602560 -0.563848
O8    O     O_R   0.416150 0.500000 0.397440 -0.563893
C3    C     C_R   0.388878 0.500000 0.500000 0.967694
C4    C     C_R   0.611123 0.500000 0.500000 0.967600
Zn1   Zn    Zn3+2 0.500000 0.500000 0.636920 1.076180
Zn2   Zn    Zn3+2 0.500000 0.500000 0.363080 1.076180
C5    C     C_R   0.880773 0.603387 0.500047 0.540341
C6    C     C_R   0.119230 0.396611 0.500208 0.540338
C7    C     C_R   0.880773 0.396612 0.499953 0.540341
C8    C     C_R   0.119230 0.603387 0.499792 0.540338
N1    N     N_R   0.852620 0.499999 0.500000 -0.331597
N2    N     N_R   0.147383 0.499999 0.500000 -0.331597
C9    C     C_R   0.940237 0.394373 0.500119 -0.031797
C10   C     C_R   0.059766 0.605626 0.499955 -0.031796
C11   C     C_R   0.940237 0.605626 0.499881 -0.031797
C12   C     C_R   0.059766 0.394373 0.500045 -0.031796
C13   C     C_R   0.970084 0.499999 0.500000 -0.015732
C14   C     C_R   0.029920 0.499999 0.500000 -0.015732
C15   C     C_R   0.970358 0.289605 0.500168 -0.142341
C16   C     C_R   0.029646 0.710394 0.499841 -0.142340
C17   C     C_R   0.970358 0.710394 0.499832 -0.142340
C18   C     C_R   0.029646 0.289605 0.500159 -0.142340
O9    O     O_2   0.851167 0.703374 0.501009 -0.530337
O10   O     O_2   0.148837 0.296626 0.501327 -0.530335
O11   O     O_2   0.851167 0.296625 0.498991 -0.530337
O12   O     O_2   0.148837 0.703372 0.498673 -0.530334
H1    H     H_    0.948270 0.207433 0.500236 0.197152
H2    H     H_    0.051733 0.792565 0.499782 0.197152
H3    H     H_    0.948270 0.792565 0.499764 0.197152
H4    H     H_    0.051733 0.207433 0.500219 0.197152
C19   C     C_R   0.237372 0.532362 0.607103 -0.173078
C20   C     C_R   0.762632 0.467792 0.607156 -0.173089
C21   C     C_R   0.237372 0.467637 0.392897 -0.173078
C22   C     C_R   0.762632 0.532207 0.392844 -0.173089
H5    H     H_    0.214225 0.557459 0.689832 0.191502
H6    H     H_    0.785779 0.442817 0.689926 0.191504
H7    H     H_    0.214225 0.442540 0.310168 0.191502
H8    H     H_    0.785779 0.557182 0.310074 0.191504
C23   C     C_R   0.296489 0.532482 0.607649 0.568594
C24   C     C_R   0.703515 0.467672 0.607703 0.568623
C25   C     C_R   0.296489 0.467517 0.392351 0.568595
C26   C     C_R   0.703515 0.532327 0.392297 0.568623
C27   C     C_R   0.326618 0.500000 0.500000 -0.352578
C28   C     C_R   0.673385 0.500000 0.500000 -0.352615
C29   C     C_R   0.207957 0.499999 0.500000 0.123674
C30   C     C_R   0.792046 0.499999 0.500000 0.123669
C31   C     C_1   0.500000 0.161033 0.500001 -0.133539
C32   C     C_1   0.500000 0.838967 0.499999 -0.133539
C33   C     C_1   0.500000 0.059150 0.500000 0.035300
C34   C     C_1   0.500000 0.940850 0.500000 0.035300
N3    N     N_1   0.500000 0.500000 0.180630 -0.053396
N4    N     N_1   0.500000 0.500000 0.819370 -0.053396
C35   C     C_1   0.500000 0.500000 0.069731 0.121440
C36   C     C_1   0.500000 0.500000 0.930269 0.121440
F1    F     F_    0.323898 0.566074 0.712662 -0.615271
F2    F     F_    0.676108 0.434238 0.712776 -0.615240
F3    F     F_    0.323898 0.433926 0.287338 -0.615271
F4    F     F_    0.676108 0.565762 0.287224 -0.615240

loop_
_geom_bond_atom_site_label_1
_geom_bond_atom_site_label_2
_geom_bond_distance
_ccdc_geom_bond_type
C26   C28   1.408972 A    
C5    O9    1.349910 S    
C32   C34   1.179104 T    
C6    O10   1.349911 S    
C8    C10   1.396303 A    
C26   F4    1.357834 S    
O7    Zn1   2.003058 S    
C8    N2    1.366944 A    
O3    Zn1   1.951380 S    
C20   H6    1.083117 S    
O6    C4    1.276505 A    
O3    C2    1.264665 A    
C17   H3    1.083177 S    
C5    C11   1.396303 A    
C9    C15   1.403648 A    
C6    C12   1.396303 A    
Zn1   N4    1.964510 S    
C10   C16   1.403649 A    
C22   C30   1.395366 A    
C15   C18   1.391929 A    
O5    C3    1.276494 A    
Zn2   N3    1.964511 S    
C8    O12   1.349913 S    
C21   C29   1.395382 A    
C33   C34   1.369104 S    
C19   C29   1.395381 A    
C25   F3    1.357842 S    
C15   H1    1.083176 S    
C22   C26   1.387947 A    
O1    C1    1.264665 A    
O4    C1    1.264665 A    
C11   C17   1.403648 A    
N1    C30   1.422138 S    
C7    O11   1.349911 S    
C6    N2    1.366944 A    
C4    C28   1.461770 S    
C12   C14   1.409018 A    
C24   C28   1.408971 A    
C20   C30   1.395364 A    
C31   C33   1.179104 T    
O4    Zn2   1.951381 S    
C35   C36   1.501637 S    
O2    Zn2   1.951384 S    
O7    C4    1.276505 A    
C12   C18   1.403648 A    
C24   F2    1.357834 S    
C3    C27   1.461730 S    
O8    C3    1.276494 A    
C10   C14   1.409017 A    
O8    Zn2   2.003060 S    
O5    Zn1   2.003060 S    
C11   C13   1.409018 A    
O1    Zn1   1.951385 S    
C16   H2    1.083176 S    
N4    C36   1.194097 T    
C9    C13   1.409019 A    
C22   H8    1.083117 S    
N3    C35   1.194097 T    
C21   C25   1.387949 A    
C20   C24   1.387949 A    
C21   H7    1.083125 S    
C16   C17   1.391929 A    
C19   H5    1.083123 S    
O6    Zn2   2.003058 S    
C18   H4    1.083177 S    
C7    N1    1.366942 A    
C13   C14   1.404811 A    
C5    N1    1.366941 A    
C19   C23   1.387949 A    
C1    C31   1.390036 S    
C23   C27   1.408962 A    
O2    C2    1.264665 A    
C23   F1    1.357844 S    
C2    C32   1.390036 S    
N2    C29   1.422140 S    
C25   C27   1.408963 A    
C7    C9    1.396303 A    
