data_mof_unit_24138.cif
_audit_creation_date              2013-03-05T16:49:12-0500
_audit_creation_method            fapswitch 2.2
_symmetry_space_group_name_H-M    P1
_symmetry_Int_Tables_number       1
_space_group_crystal_system       triclinic
_cell_length_a                    17.540487
_cell_length_b                    8.91937
_cell_length_c                    8.115331
_cell_angle_alpha                 89.911403
_cell_angle_beta                  90.000475
_cell_angle_gamma                 89.999875
_cell_volume                      1269.64277605

loop_
_atom_site_label
_atom_site_type_symbol
_atom_site_description
_atom_site_fract_x
_atom_site_fract_y
_atom_site_fract_z
_atom_type_partial_charge
O1    O     O_R   0.500000 0.285350 0.636850 -0.613963
O2    O     O_R   0.500000 0.714650 0.363150 -0.613964
O3    O     O_R   0.500000 0.714650 0.636850 -0.615472
O4    O     O_R   0.500000 0.285350 0.363150 -0.615481
C1    C     C_R   0.500001 0.218046 0.500075 0.931617
C2    C     C_R   0.500001 0.781954 0.499924 0.931602
O5    O     O_R   0.389120 0.500000 0.636930 -0.616011
O6    O     O_R   0.610880 0.500000 0.363070 -0.615975
O7    O     O_R   0.610880 0.500000 0.636930 -0.615979
O8    O     O_R   0.389120 0.500000 0.363070 -0.616011
C3    C     C_1   0.500002 0.065226 0.500108 -0.192773
C4    C     C_1   0.500002 0.934773 0.499892 -0.192793
C5    C     C_R   0.353656 0.499998 0.499999 0.892552
C6    C     C_R   0.646343 0.500000 0.500000 0.892575
Zn1   Zn    Zn3+2 0.500000 0.500000 0.682780 0.986777
Zn2   Zn    Zn3+2 0.500000 0.500000 0.317220 0.986779
C7    C     C_R   0.847163 0.632342 0.535846 -0.153995
C8    C     C_R   0.152799 0.368083 0.463117 -0.154060
C9    C     C_R   0.152830 0.632138 0.536727 -0.154066
C10   C     C_R   0.847194 0.367884 0.463997 -0.153988
H1    H     H_    0.878908 0.733702 0.563037 0.142518
H2    H     H_    0.121026 0.266910 0.435216 0.142547
H3    H     H_    0.121083 0.733351 0.564593 0.142548
H4    H     H_    0.878964 0.266561 0.436777 0.142517
C11   C     C_R   0.767821 0.633906 0.536350 0.138972
C12   C     C_R   0.232138 0.366412 0.462707 0.138917
C13   C     C_R   0.232171 0.633712 0.537218 0.138914
C14   C     C_R   0.767854 0.366220 0.463594 0.138984
C15   C     C_R   0.728420 0.500039 0.499994 -0.042225
C16   C     C_R   0.271576 0.500037 0.499989 -0.042384
C17   C     C_R   0.885885 0.500137 0.499895 0.056032
C18   C     C_R   0.114109 0.500134 0.499902 0.056055
C19   C     C_1   0.966168 0.500173 0.499879 -0.038054
C20   C     C_1   0.033825 0.500172 0.499882 -0.038066
N1    N     N_1   0.500000 0.500000 0.073640 -0.031464
N2    N     N_1   0.500000 0.500000 0.926360 -0.031465
C21   C     C_3   0.726165 0.778101 0.573128 -0.910573
H5    H     H_    0.766233 0.872269 0.595947 0.239948
H6    H     H_    0.689356 0.809040 0.467048 0.236528
H7    H     H_    0.690171 0.763873 0.684574 0.256036
C22   C     C_3   0.273750 0.222339 0.425086 -0.910195
H8    H     H_    0.310569 0.190855 0.530964 0.236248
H9    H     H_    0.233657 0.128303 0.401778 0.239957
H10   H     H_    0.309728 0.237033 0.313687 0.256199
C23   C     C_3   0.273819 0.777742 0.574843 -0.910154
H11   H     H_    0.233748 0.871829 0.598086 0.239955
H12   H     H_    0.309771 0.763027 0.686277 0.256198
H13   H     H_    0.310665 0.809158 0.468990 0.236253
C24   C     C_3   0.726232 0.221972 0.426877 -0.910635
H14   H     H_    0.766323 0.127849 0.404025 0.239954
H15   H     H_    0.689458 0.190999 0.533002 0.236530
H16   H     H_    0.690205 0.236144 0.315470 0.256034

loop_
_geom_bond_atom_site_label_1
_geom_bond_atom_site_label_2
_geom_bond_distance
_ccdc_geom_bond_type
O4    Zn2   1.949923 S    
C9    H3    1.084817 S    
O7    C6    1.273486 A    
C17   C19   1.408212 S    
C1    C3    1.363051 S    
C21   H5    1.110930 S    
O1    Zn1   1.951055 S    
O2    Zn2   1.951054 S    
C14   C24   1.509406 S    
Zn1   N2    1.976732 S    
N1    N2    1.195225 T    
C8    C12   1.391737 A    
C3    C4    1.163563 T    
C24   H16   1.110108 S    
C7    C11   1.391761 A    
C13   C23   1.509456 S    
O5    Zn1   1.980161 S    
C19   C20   1.186737 T    
O7    Zn1   1.980166 S    
O3    Zn1   1.949922 S    
C21   H6    1.110578 S    
O8    Zn2   1.980167 S    
C23   H11   1.111003 S    
C13   C16   1.411273 A    
C2    C4    1.363051 S    
C22   H9    1.111007 S    
O2    C2    1.262723 A    
O1    C1    1.262723 A    
C9    C18   1.392105 A    
C14   C15   1.411176 A    
C12   C16   1.411267 A    
C21   H7    1.110105 S    
C23   H12   1.110104 S    
Zn2   N1    1.976732 S    
C11   C15   1.411185 A    
C7    C17   1.392112 A    
C22   H10   1.110115 S    
C8    C18   1.392123 A    
C6    C15   1.439678 S    
C5    C16   1.439728 S    
O5    C5    1.273502 A    
C9    C13   1.391751 A    
O6    Zn2   1.980159 S    
C24   H14   1.110923 S    
C22   H8    1.110618 S    
C23   H13   1.110602 S    
O6    C6    1.273480 A    
C10   C14   1.391750 A    
C11   C21   1.509394 S    
C8    H2    1.084807 S    
C10   C17   1.392125 A    
O3    C2    1.262167 A    
C7    H1    1.084762 S    
C10   H4    1.084753 S    
C12   C22   1.509473 S    
O4    C1    1.262167 A    
C24   H15   1.110591 S    
O8    C5    1.273491 A    
C18   C20   1.408206 S    
