data_mof_unit_37934.cif
_audit_creation_date              2012-12-11T14:40:59-0500
_audit_creation_method            fapswitch 2.2
_symmetry_space_group_name_H-M    P1
_symmetry_Int_Tables_number       1
_space_group_crystal_system       triclinic
_cell_length_a                    6.934163
_cell_length_b                    17.721619
_cell_length_c                    19.026239
_cell_angle_alpha                 89.964697
_cell_angle_beta                  92.003744
_cell_angle_gamma                 90.129253
_cell_volume                      2336.5957837

loop_
_atom_site_label
_atom_site_type_symbol
_atom_type_description
_atom_site_fract_x
_atom_site_fract_y
_atom_site_fract_z
_atom_type_partial_charge
O1    O     O_R   0.377350 0.828520 0.186660 -0.540572
O2    O     O_R   0.622650 0.171480 0.813340 -0.542069
O3    O     O_R   0.122650 0.171480 0.686660 -0.538461
O4    O     O_R   0.877350 0.828520 0.313340 -0.533191
O5    O     O_R   0.877350 0.671480 0.313340 -0.535106
O6    O     O_R   0.122650 0.328520 0.686660 -0.533785
O7    O     O_R   0.622650 0.328520 0.813340 -0.541804
O8    O     O_R   0.377350 0.671480 0.186660 -0.542831
O9    O     O_R   0.707090 0.671930 0.178410 -0.537875
O10   O     O_R   0.292910 0.328070 0.821590 -0.536271
O11   O     O_R   0.792910 0.328070 0.678410 -0.540813
O12   O     O_R   0.207090 0.671930 0.321590 -0.541700
O13   O     O_R   0.207090 0.828070 0.321590 -0.540610
O14   O     O_R   0.792910 0.171930 0.678410 -0.544295
O15   O     O_R   0.292910 0.171930 0.821590 -0.539538
O16   O     O_R   0.707090 0.828070 0.178410 -0.534003
C1    C     C_R   0.534762 0.645543 0.161763 0.712127
C2    C     C_R   0.465217 0.354491 0.838205 0.720584
C3    C     C_R   0.959126 0.354124 0.661035 0.713716
C4    C     C_R   0.040870 0.645812 0.338904 0.705319
C5    C     C_R   0.041121 0.854126 0.338990 0.708654
C6    C     C_R   0.958739 0.145834 0.660986 0.710785
C7    C     C_R   0.464799 0.145495 0.838228 0.716846
C8    C     C_R   0.535332 0.854395 0.161738 0.714289
O17   O     O_3   0.543850 0.750000 0.294270 -0.366486
O18   O     O_3   0.456150 0.250000 0.705730 -0.368390
O19   O     O_3   0.956150 0.250000 0.794270 -0.367856
O20   O     O_3   0.043850 0.750000 0.205730 -0.367066
V1    V     V_3+5 0.818700 0.750000 0.241790 1.475572
V2    V     V_3+5 0.181300 0.250000 0.758210 1.462644
V3    V     V_3+5 0.681300 0.250000 0.741790 1.449931
V4    V     V_3+5 0.318700 0.750000 0.258210 1.460508
C9    C     C_R   0.957008 0.415784 0.607790 -0.102030
C10   C     C_R   0.042877 0.584038 0.392043 -0.100124
C11   C     C_R   0.506572 0.584075 0.109112 -0.094414
C12   C     C_R   0.493269 0.416048 0.890782 -0.096516
C13   C     C_R   0.491811 0.083942 0.890896 -0.091829
C14   C     C_R   0.510651 0.916877 0.110061 -0.098137
C15   C     C_R   0.043315 0.916015 0.392023 -0.110268
C16   C     C_R   0.954541 0.084776 0.607004 -0.088106
C17   C     C_R   0.206611 0.473675 0.443578 0.011850
C18   C     C_R   0.792713 0.525903 0.556049 0.009063
C19   C     C_R   0.701424 0.517048 0.938663 -0.003489
C20   C     C_R   0.297830 0.483336 0.061071 -0.003361
C21   C     C_R   0.316491 0.023677 0.066845 0.019177
C22   C     C_R   0.700146 0.982869 0.938012 -0.010376
C23   C     C_R   0.781714 0.977744 0.552364 0.005678
C24   C     C_R   0.203033 0.027974 0.442520 0.010497
C25   C     C_R   0.186845 0.528840 0.390707 -0.148699
C26   C     C_R   0.812719 0.470852 0.609002 -0.148058
C27   C     C_R   0.657274 0.462339 0.887374 -0.183483
C28   C     C_R   0.342382 0.537887 0.112459 -0.184197
C29   C     C_R   0.358415 0.967888 0.117393 -0.165036
C30   C     C_R   0.650042 0.035362 0.885328 -0.178813
C31   C     C_R   0.802017 0.032754 0.605320 -0.179407
C32   C     C_R   0.188765 0.970927 0.391262 -0.144610
C33   C     C_R   0.913221 0.583113 0.446843 -0.193867
C34   C     C_R   0.086556 0.416636 0.552949 -0.188152
C35   C     C_R   0.370452 0.425188 0.946825 -0.127291
C36   C     C_R   0.629137 0.575035 0.052987 -0.131948
C37   C     C_R   0.624981 0.922507 0.051200 -0.148804
C38   C     C_R   0.378539 0.078619 0.950087 -0.177963
C39   C     C_R   0.090270 0.081584 0.554248 -0.184023
C40   C     C_R   0.908346 0.918607 0.445055 -0.170365
C41   C     C_R   0.924583 0.527309 0.500378 0.069343
C42   C     C_R   0.074982 0.472351 0.499331 0.068238
C43   C     C_R   0.416068 0.476687 0.002004 0.087370
C44   C     C_R   0.583344 0.523596 0.997776 0.087770
C45   C     C_R   0.587144 0.977854 0.998682 0.082474
C46   C     C_R   0.426883 0.027644 0.005461 0.070501
C47   C     C_R   0.070645 0.029169 0.497978 0.072484
C48   C     C_R   0.917401 0.975124 0.497949 0.101797
H1    H     H_    0.190181 0.371360 0.551355 0.158893
H2    H     H_    0.809724 0.628429 0.448501 0.154693
H3    H     H_    0.757602 0.609547 0.052530 0.157430
H4    H     H_    0.242023 0.390665 0.947254 0.159568
H5    H     H_    0.255232 0.115508 0.952663 0.155325
H6    H     H_    0.735811 0.880522 0.045279 0.156488
H7    H     H_    0.803054 0.873749 0.446074 0.155729
H8    H     H_    0.209131 0.121064 0.557407 0.150940
H9    H     H_    0.710368 0.469465 0.650814 0.147861
H10   H     H_    0.289096 0.530195 0.348861 0.147405
H11   H     H_    0.248917 0.543448 0.156692 0.149646
H12   H     H_    0.750736 0.456795 0.843140 0.149933
H13   H     H_    0.739400 0.039788 0.839827 0.148694
H14   H     H_    0.271310 0.964403 0.163549 0.143705
H15   H     H_    0.291538 0.969747 0.349595 0.149451
H16   H     H_    0.695821 0.035503 0.645761 0.147205
C49   C     C_2   0.371237 0.420490 0.439223 0.771274
O21   O     O_2   0.411548 0.393807 0.382322 -0.540589
O22   O     O_R   0.486033 0.403653 0.499013 -0.673148
H17   H     H_    0.595550 0.367964 0.488684 0.297821
C50   C     C_2   0.627399 0.578794 0.560182 0.772629
O23   O     O_2   0.585784 0.605204 0.617052 -0.535073
O24   O     O_R   0.513374 0.595615 0.500198 -0.673415
H18   H     H_    0.403151 0.631020 0.510386 0.299203
C51   C     C_2   0.870143 0.566850 0.927291 0.756988
O25   O     O_2   0.019440 0.540008 0.905897 -0.561158
O26   O     O_R   0.855780 0.644758 0.937411 -0.660463
H19   H     H_    0.979878 0.672409 0.927200 0.314663
C52   C     C_2   0.128109 0.433998 0.072222 0.756202
O27   O     O_2   0.979271 0.461243 0.093605 -0.562577
O28   O     O_R   0.140855 0.356085 0.061928 -0.656225
H20   H     H_    0.015883 0.328917 0.071844 0.306533
C53   C     C_2   0.156460 0.076580 0.080721 0.771206
O29   O     O_2   0.006248 0.052569 0.104245 -0.541004
O30   O     O_R   0.180040 0.154068 0.070034 -0.656955
H21   H     H_    0.061197 0.183971 0.082059 0.310168
C54   C     C_2   0.875590 0.936522 0.928028 0.752396
O31   O     O_2   0.907980 0.911255 0.869810 -0.533232
O32   O     O_R   0.008357 0.924592 0.983878 -0.667170
H22   H     H_    0.123043 0.893297 0.969863 0.300423
C55   C     C_2   0.614045 0.925490 0.555905 0.750956
O33   O     O_2   0.565212 0.901639 0.612968 -0.532830
O34   O     O_R   0.506537 0.906021 0.495096 -0.666183
H23   H     H_    0.394852 0.871009 0.505007 0.298434
C56   C     C_2   0.356453 0.085811 0.435083 0.757408
O35   O     O_2   0.517417 0.066782 0.417712 -0.540753
O36   O     O_R   0.315078 0.162267 0.444526 -0.662876
H24   H     H_    0.431101 0.195966 0.437323 0.313251

loop_
_geom_bond_atom_site_label_1
_geom_bond_atom_site_label_2
_ccdc_geom_bond_type
C33   H2    S    
C17   C49   S    
C9    C34   A    
O3    V2    S    
C18   C50   S    
C38   H5    S    
O24   H18   S    
O14   V3    S    
C12   C35   A    
C51   O25   D    
O5    C4    A    
C15   C40   A    
C53   O30   S    
O11   C3    A    
C50   O23   D    
C16   C39   A    
O20   V1    S    
C56   O36   S    
O34   H23   S    
C38   C46   A    
C23   C55   S    
C31   H16   S    
C22   C45   A    
O13   V4    S    
C35   C43   A    
C34   C42   A    
C15   C32   A    
C19   C44   A    
C18   C41   A    
C8    C14   S    
O30   H21   S    
C29   H14   S    
C49   O22   S    
O4    V1    S    
O9    V1    S    
C14   C37   A    
C4    C10   S    
C20   C28   A    
O17   V4    S    
O15   C7    A    
O11   V3    S    
O18   V3    S    
O16   C8    A    
O12   V4    S    
O19   V2    S    
C22   C30   A    
C17   C25   A    
C51   O26   S    
C21   C53   S    
C13   C38   A    
O5    V1    S    
C39   H8    S    
O17   V1    S    
O7    V3    S    
O19   V3    S    
C43   C44   A    
O8    V4    S    
C52   O27   D    
O20   V4    S    
C3    C9    S    
O22   H17   S    
C32   H15   S    
C9    C26   A    
C7    C13   S    
O1    V4    S    
O2    V3    S    
C25   H10   S    
C28   H11   S    
O6    C3    A    
C10   C33   A    
O10   V2    S    
O26   H19   S    
C5    C15   S    
C37   H6    S    
O36   H24   S    
O7    C2    A    
C6    C16   S    
O12   C4    A    
O13   C5    A    
C24   C56   S    
C12   C27   A    
C18   C26   A    
C13   C30   A    
O9    C1    A    
O6    V2    S    
C39   C47   A    
O18   V2    S    
C40   H7    S    
C24   C47   A    
C11   C28   A    
O15   V2    S    
C23   C31   A    
C55   O33   D    
C26   H9    S    
C37   C45   A    
C24   C32   A    
C10   C25   A    
O32   H22   S    
C21   C46   A    
C19   C51   S    
C33   C41   A    
C20   C43   A    
C16   C31   A    
C30   H13   S    
C20   C52   S    
C17   C42   A    
C53   O29   D    
C36   H3    S    
O8    C1    A    
O14   C6    A    
C54   O32   S    
O16   V1    S    
C47   C48   A    
C56   O35   D    
O4    C5    A    
C19   C27   A    
C50   O24   S    
C14   C29   A    
O10   C2    A    
C35   H4    S    
O2    C7    A    
C40   C48   A    
C45   C46   A    
C23   C48   A    
C21   C29   A    
C36   C44   A    
O1    C8    A    
C52   O28   S    
C41   C42   A    
C22   C54   S    
O28   H20   S    
C11   C36   A    
O3    C6    A    
C1    C11   S    
C49   O21   D    
C54   O31   D    
C2    C12   S    
C27   H12   S    
C34   H1    S    
C55   O34   S    
