data_mof_unit_38861.cif
_audit_creation_date              2012-12-11T14:21:24-0500
_audit_creation_method            fapswitch 2.2
_symmetry_space_group_name_H-M    P1
_symmetry_Int_Tables_number       1
_space_group_crystal_system       triclinic
_cell_length_a                    11.566471
_cell_length_b                    11.567107
_cell_length_c                    19.542793
_cell_angle_alpha                 90.271774
_cell_angle_beta                  89.677925
_cell_angle_gamma                 59.959006
_cell_volume                      2263.28856521

loop_
_atom_site_label
_atom_site_type_symbol
_atom_type_description
_atom_site_fract_x
_atom_site_fract_y
_atom_site_fract_z
_atom_type_partial_charge
C1    C     C_R   0.640131 0.117133 0.599312 0.550156
C2    C     C_1   0.652407 0.149500 0.668715 0.002815
C3    C     C_R   0.647334 0.696629 0.184659 0.023667
C4    C     C_R   0.612098 0.746231 0.598627 0.558054
C5    C     C_R   0.513871 0.768909 0.208518 0.009586
C6    C     C_R   0.490874 0.792958 0.279091 -0.025738
C7    C     C_R   0.729473 0.702548 0.296518 -0.143970
C8    C     C_R   0.753142 0.662161 0.229303 -0.150477
C9    C     C_R   0.403685 0.801858 0.165268 -0.147998
C10   C     C_R   0.286031 0.815086 0.192527 -0.081959
C11   C     C_R   0.270429 0.814657 0.263114 0.270613
C12   C     C_1   0.640479 0.704140 0.667997 0.002083
C13   C     C_R   0.363429 0.825822 0.304094 -0.104762
C14   C     C_R   0.599516 0.768989 0.322402 0.008270
C15   C     C_R   0.145375 0.190836 0.191159 -0.014807
C16   C     C_R   0.240849 0.145243 0.598113 0.549825
C17   C     C_R   0.218398 0.246554 0.218154 0.008296
C18   C     C_R   0.213326 0.265276 0.289358 0.005880
C19   C     C_R   0.123439 0.115843 0.303816 -0.160812
C20   C     C_R   0.097196 0.126702 0.234291 -0.145200
C21   C     C_R   0.279935 0.300970 0.175800 0.304387
C22   C     C_R   0.295313 0.404753 0.201284 -0.074261
C23   C     C_1   0.127104 0.198973 0.859391 0.001841
C24   C     C_R   0.265880 0.443197 0.269338 -0.205165
C25   C     C_R   0.227651 0.373651 0.313444 -0.108981
C26   C     C_R   0.186602 0.179608 0.332044 -0.003206
C27   C     C_R   0.660689 0.182503 0.189624 0.016510
C28   C     C_R   0.645248 0.108365 0.400649 0.539389
C29   C     C_R   0.724563 0.049434 0.212221 0.035983
C30   C     C_R   0.749292 0.027079 0.282767 -0.017136
C31   C     C_R   0.591776 0.263612 0.305199 -0.149262
C32   C     C_R   0.594548 0.288496 0.236239 -0.166497
C33   C     C_R   0.779814 0.940329 0.164800 0.304168
C34   C     C_1   0.171506 0.170115 0.727754 -0.031275
C35   C     C_R   0.885692 0.816959 0.186289 -0.100224
C36   C     C_R   0.925126 0.799553 0.253853 -0.128109
C37   C     C_R   0.856203 0.900971 0.301995 -0.084294
C38   C     C_R   0.669292 0.134083 0.329858 0.002306
C39   C     C_R   0.081901 0.231214 0.928680 0.552826
C40   C     C_R   0.581424 0.801116 0.395209 0.557951
C41   C     C_R   0.684021 0.604493 0.929562 0.533712
C42   C     C_R   0.708572 0.206688 0.930156 0.550250
C43   C     C_R   0.083046 0.234768 0.124821 0.572967
C44   C     C_R   0.679090 0.618732 0.122370 0.534852
C45   C     C_1   0.150475 0.182315 0.799008 -0.032101
C46   C     C_R   0.705023 0.210203 0.125224 0.597455
C47   C     C_R   0.243422 0.143635 0.401168 0.534296
C48   C     C_1   0.670852 0.646666 0.860191 0.000426
C49   C     C_1   0.654305 0.683940 0.728438 -0.032233
C50   C     C_1   0.663596 0.666932 0.799721 -0.032482
C51   C     C_3   0.808931 0.872175 0.049129 -0.102479
C52   C     C_3   0.178416 0.762231 0.356762 -0.153191
C53   C     C_3   0.406733 0.122958 0.104102 -0.089684
C54   C     C_1   0.195107 0.160678 0.667359 0.003422
C55   C     C_1   0.678877 0.190973 0.860877 -0.001044
C56   C     C_1   0.658181 0.166936 0.729121 -0.031101
C57   C     C_1   0.665735 0.180533 0.800464 -0.032216
Cr1   Cr    Cr6+3 0.404720 0.198220 0.499960 1.015947
Cr2   Cr    Cr6+3 0.698290 0.897110 0.500380 1.012446
Cr3   Cr    Cr6+3 0.396970 0.904720 0.499610 1.000828
Cr4   Cr    Cr6+3 0.926180 0.151990 0.028120 1.013053
Cr5   Cr    Cr6+3 0.921330 0.451820 0.027470 1.024328
Cr6   Cr    Cr6+3 0.626260 0.446870 0.028710 1.031792
H1    H     H_    0.814793 0.672771 0.329338 0.136636
H2    H     H_    0.412300 0.804150 0.110172 0.131042
H3    H     H_    0.855905 0.597250 0.213274 0.138123
H4    H     H_    0.208414 0.823015 0.158836 0.124572
H5    H     H_    0.333660 0.853229 0.355521 0.173977
H6    H     H_    0.092496 0.059900 0.335798 0.153970
H7    H     H_    0.037120 0.086453 0.214500 0.168550
H8    H     H_    0.817501 0.772634 0.053849 0.128669
H9    H     H_    0.908706 0.864637 0.050101 0.126915
H10   H     H_    0.764905 0.911834 0.998363 0.145515
H11   H     H_    0.150745 0.842959 0.395311 0.125407
H12   H     H_    0.330925 0.455330 0.168171 0.136562
H13   H     H_    0.282109 0.678963 0.365329 0.112396
H14   H     H_    0.113468 0.718901 0.365757 0.108300
H15   H     H_    0.351573 0.067890 0.099081 0.105244
H16   H     H_    0.475538 0.083885 0.148490 0.142414
H17   H     H_    0.468702 0.101823 0.057177 0.178128
H18   H     H_    0.276604 0.524898 0.288272 0.135169
H19   H     H_    0.200185 0.414121 0.364603 0.151930
H20   H     H_    0.533105 0.346508 0.339799 0.133460
H21   H     H_    0.548794 0.391304 0.219736 0.141031
H22   H     H_    0.936233 0.731853 0.152190 0.098080
H23   H     H_    0.005651 0.703358 0.269593 0.137099
H24   H     H_    0.895684 0.879313 0.352731 0.163876
O1    O     O_R   0.267740 0.231960 0.575440 -0.504298
O2    O     O_R   0.596130 0.579390 0.952730 -0.508779
O3    O     O_R   0.639060 0.321160 0.958670 -0.484950
O4    O     O_R   0.527280 0.186640 0.570530 -0.491441
O5    O     O_R   0.821240 0.124200 0.104370 -0.498755
O6    O     O_R   0.036890 0.167040 0.097840 -0.525977
O7    O     O_R   0.056180 0.349610 0.102880 -0.470485
O8    O     O_R   0.797660 0.564870 0.097950 -0.523846
O9    O     O_R   0.595880 0.584250 0.104270 -0.524453
O10   O     O_R   0.638830 0.325670 0.099150 -0.502844
O11   O     O_3   0.824590 0.350230 0.028100 -0.256905
O12   O     O_R   0.685970 0.784660 0.430010 -0.505732
O13   O     O_R   0.728090 0.003450 0.576380 -0.505147
O14   O     O_R   0.682970 0.789190 0.570490 -0.488816
O15   O     O_R   0.499290 0.771880 0.575530 -0.500474
O16   O     O_R   0.285330 0.030870 0.569730 -0.492765
O17   O     O_R   0.270980 0.227080 0.423890 -0.527657
O18   O     O_R   0.530280 0.182120 0.430050 -0.498054
O19   O     O_R   0.731330 0.998570 0.424830 -0.544874
O20   O     O_3   0.722303 0.960574 0.099993 -0.603747
O21   O     O_3   0.158079 0.815336 0.289625 -0.591724
O22   O     O_3   0.317284 0.262059 0.108236 -0.560603
O23   O     O_R   0.502530 0.767000 0.423990 -0.538046
O24   O     O_R   0.288330 0.026350 0.429250 -0.539619
O25   O     O_3   0.499990 0.000020 0.499980 -0.269564
O26   O     O_R   0.821500 0.119340 0.952830 -0.517577
O27   O     O_R   0.037130 0.162530 0.957360 -0.499711
O28   O     O_R   0.056440 0.344740 0.951340 -0.492576
O29   O     O_R   0.797900 0.560360 0.957470 -0.507359

loop_
_geom_bond_atom_site_label_1
_geom_bond_atom_site_label_2
_ccdc_geom_bond_type
C41   O2    A    
C8    H3    S    
C23   C45   T    
C27   C29   A    
Cr2   O12   S    
C19   C20   A    
C18   C26   A    
C40   O12   A    
C12   C49   T    
C7    C8    A    
C10   H4    S    
Cr5   O29   S    
Cr1   O25   S    
C36   C37   A    
C53   H16   S    
Cr6   O11   S    
C52   H11   S    
C5    C6    A    
Cr4   O6    S    
C46   O5    A    
C29   C33   A    
C11   C13   A    
C43   O7    A    
C31   H20   S    
C56   C57   S    
C30   C38   A    
C1    C2    S    
C19   C26   A    
C16   O16   A    
C43   O6    A    
Cr5   O11   S    
C7    C14   A    
Cr4   O11   S    
C28   O19   A    
C33   O20   S    
C47   O17   A    
C4    C12   S    
Cr3   O16   S    
Cr1   O4    S    
Cr4   O5    S    
C48   C50   T    
C1    O4    A    
Cr5   O8    S    
Cr2   O13   S    
C20   H7    S    
C18   C25   A    
C51   H8    S    
C22   H12   S    
Cr3   O15   S    
C1    O13   A    
Cr2   O25   S    
C16   C54   S    
C15   C20   A    
C32   H21   S    
C3    C44   S    
Cr2   O19   S    
Cr2   O14   S    
C53   H17   S    
C24   C25   A    
C3    C8    A    
C40   O23   A    
C3    C5    A    
Cr6   O9    S    
C17   C21   A    
C30   C37   A    
C4    O15   A    
C42   O3    A    
C35   C36   A    
C24   H18   S    
C5    C9    A    
C29   C30   A    
Cr3   O25   S    
C42   C55   S    
C6    C14   A    
C42   O26   A    
C31   C32   A    
C28   C38   S    
C28   O18   A    
C39   O27   A    
C4    O14   A    
Cr6   O2    S    
C17   C18   A    
C34   C45   S    
C26   C47   S    
C27   C46   S    
C46   O10   A    
C34   C54   T    
C39   O28   A    
Cr5   O7    S    
Cr4   O26   S    
C25   H19   S    
C22   C24   A    
C19   H6    S    
Cr1   O17   S    
C51   H9    S    
C41   O29   A    
C52   H14   S    
Cr4   O27   S    
C9    C10   A    
C53   O22   S    
C15   C17   A    
C44   O9    A    
C27   C32   A    
C37   H24   S    
C51   H10   S    
C52   H13   S    
Cr1   O1    S    
C21   O22   S    
C31   C38   A    
Cr1   O18   S    
C36   H23   S    
C55   C57   T    
C53   H15   S    
C15   C43   S    
Cr5   O28   S    
Cr6   O10   S    
Cr3   O24   S    
C2    C56   T    
C6    C13   A    
C35   H22   S    
C47   O24   A    
Cr6   O3    S    
C33   C35   A    
C41   C48   S    
C9    H2    S    
C7    H1    S    
Cr3   O23   S    
C10   C11   A    
C14   C40   S    
C52   O21   S    
C51   O20   S    
C49   C50   S    
C11   O21   S    
C16   O1    A    
C21   C22   A    
C23   C39   S    
C44   O8    A    
C13   H5    S    
