data_mof_unit_17515.cif
_audit_creation_date              2012-12-10T19:08:05-0500
_audit_creation_method            fapswitch 2.2
_symmetry_space_group_name_H-M    P1
_symmetry_Int_Tables_number       1
_space_group_crystal_system       triclinic
_cell_length_a                    9.114041
_cell_length_b                    10.929797
_cell_length_c                    9.652169
_cell_angle_alpha                 89.627925
_cell_angle_beta                  90.019232
_cell_angle_gamma                 92.620079
_cell_volume                      960.47173612

loop_
_atom_site_label
_atom_site_type_symbol
_atom_type_description
_atom_site_fract_x
_atom_site_fract_y
_atom_site_fract_z
_atom_type_partial_charge
C1    C     C_R   0.502910 0.263235 0.500341 0.815520
C2    C     C_R   0.557291 0.939424 0.388013 -0.311573
C3    C     C_R   0.491494 0.871722 0.496949 -0.134323
C4    C     C_R   0.425283 0.935994 0.603355 -0.002100
C5    C     C_3   0.450709 0.926587 0.756271 0.587075
C6    C     C_3   0.472757 0.066080 0.757671 0.007579
C7    C     C_R   0.627812 0.511906 0.072326 0.106357
C8    C     C_R   0.377346 0.466593 0.075698 -0.115689
C9    C     C_R   0.377514 0.460911 0.926803 0.315328
C10   C     C_R   0.628188 0.510574 0.926348 0.142290
C11   C     C_3   0.749772 0.605551 0.913730 0.127667
C12   C     C_R   0.220937 0.499777 0.499984 0.821411
C13   C     C_3   0.746048 0.612121 0.073203 0.411232
C14   C     C_R   0.498028 0.737678 0.499563 0.805017
C15   C     C_R   0.779069 0.500493 0.500042 0.828074
C16   C     C_1   0.065541 0.500000 0.500072 -0.182930
C17   C     C_1   0.934461 0.500255 0.500097 -0.158334
C18   C     C_R   0.434682 0.063606 0.606390 -0.098490
C19   C     C_R   0.504562 0.130460 0.499737 -0.124268
C20   C     C_R   0.565953 0.067396 0.388099 0.257062
Cu1   Cu    Cu3+1 0.499990 0.499980 0.640670 0.961158
Cu2   Cu    Cu3+1 0.500010 0.500020 0.359330 0.940568
H1    H     H_    0.718348 0.688584 0.856371 0.169722
H2    H     H_    0.613950 0.894401 0.308016 0.168735
H3    H     H_    0.588163 0.100941 0.774952 0.140257
H4    H     H_    0.280336 0.439074 0.133853 0.162018
N1    N     N_R   0.500920 0.500930 0.147930 -0.200563
N2    N     N_R   0.500930 0.500890 0.852020 -0.245428
O1    O     O_R   0.500000 0.319640 0.618810 -0.585559
O2    O     O_R   0.500020 0.319680 0.381230 -0.545764
O3    O     O_R   0.288380 0.499980 0.618770 -0.569403
O4    O     O_R   0.288400 0.500020 0.381190 -0.601031
O5    O     O_R   0.499980 0.680320 0.618770 -0.550620
O6    O     O_R   0.500000 0.680360 0.381190 -0.596977
O7    O     O_R   0.711600 0.499980 0.618810 -0.547008
O8    O     O_R   0.711620 0.500020 0.381230 -0.566025
N3    N     N_2   0.646093 0.130947 0.280794 -0.406628
H5    H     H_    0.645621 0.085009 0.187810 0.241797
C21   C     C_3   0.793087 0.173381 0.319572 -0.661259
H6    H     H_    0.862030 0.094035 0.340601 0.209284
H7    H     H_    0.791015 0.231912 0.413050 0.217933
H8    H     H_    0.843326 0.228715 0.233524 0.220619
N4    N     N_2   0.877829 0.572885 0.143346 -0.396730
H9    H     H_    0.902054 0.482508 0.129869 0.253091
C22   C     C_3   0.004061 0.658280 0.146767 -0.680633
H10   H     H_    0.094520 0.617004 0.205126 0.228742
H11   H     H_    0.976816 0.744108 0.199727 0.228971
H12   H     H_    0.042873 0.679880 0.040559 0.231998
N5    N     N_2   0.697575 0.727861 0.126475 -0.430691
H13   H     H_    0.718378 0.739146 0.230383 0.273792
C23   C     C_3   0.560298 0.776492 0.078732 -0.693618
H14   H     H_    0.577473 0.876141 0.059307 0.242927
H15   H     H_    0.472427 0.762644 0.156656 0.243468
H16   H     H_    0.518058 0.731117 0.984203 0.255099
N6    N     N_2   0.320955 0.880682 0.832313 -0.437819
H17   H     H_    0.329387 0.887389 0.938356 0.250934
C24   C     C_3   0.247719 0.767404 0.788270 -0.610858
H18   H     H_    0.138952 0.758074 0.838902 0.189838
H19   H     H_    0.312790 0.688756 0.819125 0.262849
H20   H     H_    0.228081 0.766964 0.674849 0.216833
O9    O     O_3   0.578137 0.866235 0.792310 -0.771687
H21   H     H_    0.661875 0.901296 0.736807 0.296761
N7    N     N_2   0.367839 0.128812 0.841426 -0.421992
H22   H     H_    0.258443 0.103012 0.828071 0.271090
C25   C     C_3   0.413033 0.148361 0.983715 -0.665578
H23   H     H_    0.326291 0.193378 0.041998 0.225707
H24   H     H_    0.514759 0.208275 0.987109 0.240637
H25   H     H_    0.433090 0.060147 0.035940 0.206863
N8    N     N_2   0.255674 0.404259 0.855542 -0.386163
H26   H     H_    0.282967 0.338431 0.785776 0.309480
C26   C     C_3   0.117496 0.378852 0.925281 -0.715348
H27   H     H_    0.125560 0.302248 0.000197 0.198709
H28   H     H_    0.031811 0.352921 0.847747 0.272062
H29   H     H_    0.085379 0.461845 0.979474 0.271403
O10   O     O_3   0.875574 0.553563 0.861361 -0.738426
H30   H     H_    0.930432 0.619184 0.808992 0.325561

loop_
_geom_bond_atom_site_label_1
_geom_bond_atom_site_label_2
_ccdc_geom_bond_type
C7    C10   A    
N6    H17   S    
N7    C25   S    
C8    H4    S    
C19   C20   A    
N4    H9    S    
C14   O5    A    
C21   H7    S    
C22   H10   S    
Cu1   O3    S    
Cu2   O4    S    
C9    N8    S    
C5    C6    S    
C24   H19   S    
C6    H3    S    
Cu1   O5    S    
C7    N1    A    
C18   C19   A    
N8    C26   S    
C12   C16   S    
C8    C9    A    
C25   H24   S    
C4    C18   A    
Cu1   Cu2   S    
C12   O4    A    
O9    H21   S    
C6    C18   S    
C15   O7    A    
C21   H8    S    
C22   H11   S    
Cu2   O6    S    
C1    C19   S    
C2    C20   A    
C23   H14   S    
C21   H6    S    
C26   H28   S    
C16   C17   T    
C24   H20   S    
N5    C23   S    
Cu1   O1    S    
C23   H15   S    
C6    N7    S    
O10   H30   S    
N3    H5    S    
C25   H25   S    
C1    O1    A    
C5    O9    S    
N4    C22   S    
C3    C14   S    
C13   N5    S    
Cu1   N2    S    
N5    H13   S    
Cu2   N1    S    
N6    C24   S    
C12   O3    A    
C2    H2    S    
C3    C4    A    
C15   O8    A    
C13   N4    S    
C22   H12   S    
C10   N2    A    
C15   C17   S    
Cu2   O2    S    
C5    N6    S    
C4    C5    S    
C14   O6    A    
C26   H29   S    
Cu1   O7    S    
Cu2   O8    S    
C23   H16   S    
C2    C3    A    
C26   H27   S    
N3    C21   S    
C11   O10   S    
C20   N3    S    
C11   C13   S    
C24   H18   S    
C11   H1    S    
C1    O2    A    
N8    H26   S    
C10   C11   S    
N7    H22   S    
C7    C13   S    
C25   H23   S    
C8    N1    A    
C9    N2    A    
