data_mof_unit_16760.cif
_audit_creation_date              2012-12-11T17:01:13-0500
_audit_creation_method            fapswitch 2.2
_symmetry_space_group_name_H-M    P1
_symmetry_Int_Tables_number       1
_space_group_crystal_system       triclinic
_cell_length_a                    19.464205
_cell_length_b                    7.103577
_cell_length_c                    17.548005
_cell_angle_alpha                 89.976987
_cell_angle_beta                  108.648385
_cell_angle_gamma                 90.012532
_cell_volume                      2298.90013596

loop_
_atom_site_label
_atom_site_type_symbol
_atom_type_description
_atom_site_fract_x
_atom_site_fract_y
_atom_site_fract_z
_atom_type_partial_charge
O1    O     O_R   0.413720 0.494330 0.415730 -0.535191
O2    O     O_R   0.586280 0.994330 0.584270 -0.534901
O3    O     O_R   0.560210 0.819300 0.430070 -0.543470
O4    O     O_R   0.439790 0.319300 0.569930 -0.544173
C1    C     C_R   0.581276 0.655369 0.414275 0.719189
C2    C     C_R   0.418966 0.155236 0.585993 0.715768
O5    O     O_R   0.412670 0.823730 0.406310 -0.543137
O6    O     O_R   0.587330 0.323730 0.593690 -0.544112
O7    O     O_R   0.437690 0.998790 0.560340 -0.540330
O8    O     O_R   0.562310 0.498790 0.439660 -0.539280
C3    C     C_R   0.385386 0.655251 0.383392 0.693030
C4    C     C_R   0.614533 0.155164 0.616665 0.692274
O9    O     O_3   0.508380 0.662350 0.550560 -0.375719
O10   O     O_3   0.491620 0.162350 0.449440 -0.374334
V1    V     V_3+5 0.498450 0.935370 0.490620 1.387734
V2    V     V_3+5 0.501550 0.435370 0.509380 1.386043
C5    C     C_R   0.730236 0.990075 0.694156 0.111061
C6    C     C_R   0.301586 0.491645 0.261411 0.107898
C7    C     C_R   0.684468 0.146900 0.683163 -0.113760
C8    C     C_R   0.318124 0.647210 0.313166 -0.113524
C9    C     C_R   0.709364 0.300309 0.735663 -0.188321
C10   C     C_R   0.269107 0.799427 0.294176 -0.184523
H1    H     H_    0.676437 0.425262 0.729418 0.141805
H2    H     H_    0.279625 0.923558 0.331704 0.137222
C11   C     C_R   0.774828 0.289192 0.800176 -0.176344
C12   C     C_R   0.203424 0.787618 0.229940 -0.179995
H3    H     H_    0.790392 0.406837 0.841176 0.134106
H4    H     H_    0.165693 0.903897 0.219642 0.134988
C13   C     C_R   0.817183 0.123708 0.814587 -0.107547
C14   C     C_R   0.184614 0.622925 0.182864 -0.104288
C15   C     C_R   0.794372 0.978389 0.758336 0.112537
C16   C     C_R   0.236822 0.479913 0.197920 0.107153
C17   C     C_3   0.784295 0.774038 0.770173 -0.422049
C18   C     C_3   0.230308 0.273828 0.210147 -0.428177
C19   C     C_3   0.714209 0.786459 0.699919 -0.400831
C20   C     C_3   0.300896 0.287024 0.279663 -0.398575
H5    H     H_    0.775534 0.744455 0.828601 0.166726
H6    H     H_    0.235247 0.189843 0.158717 0.174808
H7    H     H_    0.826526 0.686816 0.756936 0.179272
H8    H     H_    0.183000 0.238274 0.229674 0.175813
H9    H     H_    0.664811 0.763544 0.717543 0.171221
H10   H     H_    0.346446 0.210223 0.268376 0.176671
H11   H     H_    0.716043 0.706241 0.646212 0.170273
H12   H     H_    0.294126 0.260658 0.339330 0.169485
C21   C     C_R   0.327280 0.986718 0.633907 -0.226204
C22   C     C_R   0.674123 0.488113 0.367801 -0.225331
C23   C     C_R   0.370463 0.146712 0.636184 -0.084139
C24   C     C_R   0.630421 0.647390 0.364813 -0.085297
C25   C     C_R   0.366233 0.299415 0.685725 -0.225710
C26   C     C_R   0.635000 0.800448 0.315563 -0.224977
C27   C     C_R   0.319317 0.293262 0.732125 0.088216
C28   C     C_R   0.682453 0.794986 0.269805 0.088436
C29   C     C_R   0.274755 0.134245 0.727727 0.081571
C30   C     C_R   0.727172 0.636195 0.274485 0.081282
C31   C     C_R   0.279082 0.980397 0.678617 0.097975
C32   C     C_R   0.722856 0.482458 0.323708 0.097509
C33   C     C_R   0.315958 0.443557 0.782676 -0.194585
C34   C     C_R   0.686093 0.945671 0.219519 -0.194658
C35   C     C_R   0.268179 0.437639 0.827642 -0.160950
C36   C     C_R   0.734009 0.939921 0.174735 -0.160333
C37   C     C_R   0.222325 0.282156 0.822279 0.087915
C38   C     C_R   0.779592 0.784008 0.179863 0.087286
C39   C     C_R   0.225514 0.129538 0.772100 -0.002639
C40   C     C_R   0.776374 0.631356 0.230058 -0.003487
C41   C     C_R   0.179375 0.972811 0.765740 -0.011519
C42   C     C_R   0.822219 0.474140 0.236098 -0.012574
C43   C     C_R   0.186005 0.818446 0.718154 -0.181683
C44   C     C_R   0.816452 0.321153 0.284848 -0.177093
C45   C     C_R   0.234916 0.822812 0.674795 -0.205661
C46   C     C_R   0.767549 0.325655 0.328238 -0.205313
C47   C     C_R   0.174325 0.275888 0.867260 -0.274458
C48   C     C_R   0.827318 0.777389 0.134585 -0.273953
C49   C     C_R   0.127671 0.121354 0.861544 -0.172739
C50   C     C_R   0.873123 0.621496 0.139267 -0.166587
C51   C     C_R   0.127315 0.973914 0.806729 0.381604
C52   C     C_R   0.873004 0.472990 0.193458 0.374756
H13   H     H_    0.329989 0.868402 0.595943 0.126636
H14   H     H_    0.671326 0.369802 0.405767 0.127041
H15   H     H_    0.399777 0.422770 0.688583 0.128943
H16   H     H_    0.601244 0.923500 0.312357 0.129586
H17   H     H_    0.350141 0.566237 0.787247 0.134928
H18   H     H_    0.651936 0.068387 0.214910 0.134973
H19   H     H_    0.266612 0.555797 0.866097 0.133782
H20   H     H_    0.735713 0.058261 0.136385 0.134316
H21   H     H_    0.173971 0.391010 0.907689 0.156816
H22   H     H_    0.827860 0.893029 0.094428 0.157583
H23   H     H_    0.153313 0.693202 0.714117 0.159103
H24   H     H_    0.849412 0.196335 0.289415 0.157698
H25   H     H_    0.238087 0.702531 0.638085 0.133081
H26   H     H_    0.764645 0.205837 0.365347 0.133077
O11   O     O_R   0.937800 0.775460 0.060470 -0.542176
O12   O     O_R   0.062200 0.275460 0.939530 -0.541008
O13   O     O_R   0.087350 0.441340 0.093710 -0.546957
O14   O     O_R   0.912650 0.941340 0.906290 -0.544302
C53   C     C_R   0.114854 0.610228 0.116235 0.674903
C54   C     C_R   0.884824 0.110260 0.884171 0.672231
O15   O     O_R   0.939820 0.446010 0.069950 -0.514139
O16   O     O_R   0.060180 0.946010 0.930050 -0.512016
O17   O     O_R   0.913690 0.271230 0.915700 -0.540165
O18   O     O_R   0.086310 0.771230 0.084300 -0.541202
C55   C     C_R   0.920062 0.614288 0.086717 0.723825
C56   C     C_R   0.080118 0.114323 0.913464 0.732324
O19   O     O_3   0.991670 0.603050 0.949510 -0.367005
O20   O     O_3   0.008330 0.103050 0.050490 -0.372370
V3    V     V_3+5 0.001550 0.329940 0.009370 1.431695
V4    V     V_3+5 0.998450 0.829940 0.990630 1.439033
O21   O     O_3   0.076905 0.829579 0.795022 -0.565954
C57   C     C_3   0.022694 0.849359 0.718888 0.058396
H27   H     H_    0.997132 0.709167 0.701661 0.142258
H28   H     H_    0.044690 0.891597 0.670095 0.110709
C58   C     C_3   0.963973 0.989018 0.722569 -0.314840
H29   H     H_    0.940655 0.941411 0.769130 0.204657
H30   H     H_    0.987992 0.131011 0.739141 0.174855
C59   C     C_3   0.903806 0.002616 0.641737 -0.840783
H31   H     H_    0.926544 0.044326 0.593660 0.229701
H32   H     H_    0.863784 0.110827 0.645234 0.234036
H33   H     H_    0.875540 0.865213 0.626048 0.231144
O22   O     O_3   0.921229 0.324381 0.202757 -0.565756
C60   C     C_3   0.977521 0.339079 0.277583 0.051894
H34   H     H_    0.988160 0.195520 0.303911 0.136423
H35   H     H_    0.963941 0.429087 0.322980 0.105738
C61   C     C_3   0.046755 0.412440 0.264684 -0.275125
H36   H     H_    0.061115 0.318561 0.221587 0.209178
H37   H     H_    0.037271 0.556728 0.239016 0.168263
C62   C     C_3   0.109768 0.417836 0.343414 -0.874825
H38   H     H_    0.096399 0.510422 0.387692 0.235067
H39   H     H_    0.158858 0.474331 0.332263 0.246146
H40   H     H_    0.121964 0.273852 0.368872 0.229432

loop_
_geom_bond_atom_site_label_1
_geom_bond_atom_site_label_2
_ccdc_geom_bond_type
C42   C44   A    
C39   C41   A    
C51   O21   S    
C36   H20   S    
C29   C31   A    
C20   H10   S    
C58   H29   S    
O1    C3    A    
O2    C4    A    
C2    O7    A    
O20   V4    S    
C59   H31   S    
C23   C25   A    
O5    C3    A    
C17   H7    S    
C50   C52   A    
C18   H8    S    
C7    C9    A    
C35   H19   S    
C34   H18   S    
C17   C19   S    
C33   C35   A    
C34   C36   A    
C54   O17   A    
C57   H27   S    
C36   C38   A    
C21   C23   A    
C37   C39   A    
O22   C60   S    
C38   C40   A    
O13   V3    S    
C47   H21   S    
O19   V3    S    
C41   C43   A    
C62   H40   S    
C26   C28   A    
O21   C57   S    
C15   C17   S    
C27   C33   A    
O19   V4    S    
C19   H11   S    
C18   C20   S    
O12   C56   A    
O15   V3    S    
C37   C47   A    
C24   C26   A    
O6    V2    S    
C49   C51   A    
O11   V4    S    
C46   H26   S    
O11   C55   A    
C45   H25   S    
O20   V3    S    
C28   C30   A    
C22   C24   A    
C60   H35   S    
C11   C13   A    
O17   V3    S    
C1    C24   S    
C30   C32   A    
C3    C8    S    
C35   C37   A    
C2    C23   S    
C48   C50   A    
C22   H14   S    
C53   O18   A    
C25   C27   A    
O16   C56   A    
C52   O22   S    
C25   H15   S    
C43   H23   S    
C43   C45   A    
C40   C42   A    
O4    V2    S    
C14   C53   S    
C48   H22   S    
O6    C4    A    
C42   C52   A    
C38   C48   A    
C58   H30   S    
O1    V2    S    
O14   C54   A    
O2    V1    S    
C31   C45   A    
C28   C34   A    
C50   C55   S    
O4    C2    A    
C49   C56   S    
C8    C10   A    
C12   C14   A    
C32   C46   A    
C9    H1    S    
C62   H38   S    
C44   H24   S    
C10   H2    S    
C20   H12   S    
C6    C16   A    
C61   H37   S    
O3    V1    S    
C47   C49   A    
C60   C61   S    
C9    C11   A    
O14   V4    S    
C18   H6    S    
O18   V4    S    
O3    C1    A    
C26   H16   S    
C13   C54   S    
C59   H32   S    
C60   H34   S    
C11   H3    S    
C12   H4    S    
O16   V4    S    
C57   C58   S    
C61   C62   S    
O7    V1    S    
C1    O8    A    
C13   C15   A    
O8    V2    S    
C14   C16   A    
C29   C39   A    
C30   C40   A    
C5    C15   A    
C4    C7    S    
O5    V1    S    
C5    C7    A    
C57   H28   S    
C58   C59   S    
C6    C8    A    
C19   H9    S    
C33   H17   S    
C17   H5    S    
C59   H33   S    
O12   V3    S    
C21   C31   A    
O13   C53   A    
C10   C12   A    
O9    V2    S    
C22   C32   A    
C62   H39   S    
C44   C46   A    
O10   V1    S    
C21   H13   S    
C5    C19   S    
C27   C29   A    
C61   H36   S    
C6    C20   S    
O15   C55   A    
C41   C51   A    
C16   C18   S    
