data_mof_unit_51933.cif
_audit_creation_date              2012-12-10T18:45:10-0500
_audit_creation_method            fapswitch 2.2
_symmetry_space_group_name_H-M    P1
_symmetry_Int_Tables_number       1
_space_group_crystal_system       triclinic
_cell_length_a                    10.698641
_cell_length_b                    9.857191
_cell_length_c                    10.630457
_cell_angle_alpha                 89.997572
_cell_angle_beta                  90.182763
_cell_angle_gamma                 89.938866
_cell_volume                      1121.0662147

loop_
_atom_site_label
_atom_site_type_symbol
_atom_type_description
_atom_site_fract_x
_atom_site_fract_y
_atom_site_fract_z
_atom_type_partial_charge
C1    C     C_R   0.259968 0.499997 0.499906 0.932420
C2    C     C_R   0.502232 0.499998 0.739491 0.984524
C3    C     C_R   0.720238 0.602304 0.131781 -0.320249
C4    C     C_R   0.720185 0.602359 0.869526 -0.318509
C5    C     C_R   0.823579 0.651619 0.066496 0.620255
C6    C     C_R   0.823541 0.651661 0.935451 0.630555
C7    C     C_R   0.614355 0.552752 0.934452 -0.047815
C8    C     C_R   0.614371 0.552744 0.066220 -0.052499
C9    C     C_R   0.508898 0.499719 0.128316 -0.293608
C10   C     C_R   0.508886 0.499704 0.871720 -0.273075
C11   C     C_R   0.407474 0.444290 0.064039 0.576233
C12   C     C_R   0.740016 0.499904 0.500028 0.825489
C13   C     C_R   0.407467 0.444284 0.935369 0.546982
C14   C     C_R   0.064246 0.382716 0.536607 -0.091276
C15   C     C_R   0.936179 0.382681 0.536671 -0.136644
C16   C     C_R   0.872448 0.499915 0.499919 -0.046190
C17   C     C_R   0.127488 0.500025 0.499870 -0.029563
C18   C     C_R   0.935660 0.617208 0.463083 -0.106241
C19   C     C_R   0.063741 0.617272 0.463074 -0.091846
C20   C     C_R   0.578689 0.071716 0.577393 0.601643
C21   C     C_R   0.421304 0.071916 0.422628 0.609364
C22   C     C_R   0.578649 0.927924 0.577304 -0.174261
C23   C     C_R   0.421352 0.928133 0.422716 -0.181154
C24   C     C_R   0.502241 0.500007 0.260515 0.981236
F1    F     F_    0.307295 0.393290 0.126599 -0.567429
F2    F     F_    0.307273 0.393292 0.872186 -0.601828
F3    F     F_    0.924452 0.698264 0.130800 -0.612207
F4    F     F_    0.924371 0.698353 0.871759 -0.598121
F5    F     F_    0.657574 0.139296 0.655150 -0.633679
F6    F     F_    0.342345 0.139690 0.344947 -0.587256
H1    H     H_    0.724769 0.601884 0.233383 0.178035
H2    H     H_    0.724691 0.601983 0.767933 0.181554
H3    H     H_    0.113448 0.291954 0.566224 0.188604
H4    H     H_    0.887379 0.291930 0.566358 0.206067
H5    H     H_    0.886431 0.707899 0.433314 0.181318
H6    H     H_    0.112550 0.708018 0.433361 0.175216
H7    H     H_    0.641512 0.873278 0.639136 0.190392
H8    H     H_    0.358443 0.873664 0.360938 0.194082
N1    N     N_R   0.500000 0.857200 0.500000 -0.143735
N2    N     N_R   0.500000 0.142810 0.500000 -0.196032
O1    O     O_R   0.316770 0.614620 0.499990 -0.630022
O2    O     O_R   0.683230 0.614620 0.500010 -0.644960
O3    O     O_R   0.316800 0.385290 0.500000 -0.570452
O4    O     O_R   0.683200 0.385290 0.500000 -0.591643
O5    O     O_R   0.500010 0.614690 0.316770 -0.625778
O6    O     O_R   0.499990 0.614690 0.683230 -0.622523
O7    O     O_R   0.500040 0.385360 0.316770 -0.552870
O8    O     O_R   0.499960 0.385360 0.683230 -0.550194
Zn1   Zn    Zn3+2 0.500000 0.653120 0.500000 0.981919
Zn2   Zn    Zn3+2 0.500000 0.346880 0.500000 1.105772

loop_
_geom_bond_atom_site_label_1
_geom_bond_atom_site_label_2
_ccdc_geom_bond_type
C7    C10   A    
N1    Zn1   S    
C9    C24   S    
C22   H7    S    
C23   H8    S    
C11   C13   A    
C18   H5    S    
C15   H4    S    
C1    C17   S    
C14   C17   A    
O5    Zn1   S    
C19   H6    S    
C14   H3    S    
O8    Zn2   S    
C7    C8    A    
C12   O4    A    
C2    O6    A    
C3    H1    S    
C9    C11   A    
O6    Zn1   S    
C4    H2    S    
C21   N2    A    
C4    C7    A    
C23   N1    A    
C24   O5    A    
O1    Zn1   S    
C17   C19   A    
C20   C22   A    
C3    C8    A    
O7    Zn2   S    
C20   F5    S    
C21   C23   A    
C5    C6    A    
C20   N2    A    
N2    Zn2   S    
C13   F2    S    
C4    C6    A    
C11   F1    S    
O2    Zn1   S    
C15   C16   A    
C2    C10   S    
O3    Zn2   S    
C12   C16   S    
C16   C18   A    
C18   C19   A    
C21   F6    S    
O4    Zn2   S    
C14   C15   A    
C12   O2    A    
C2    O8    A    
C5    F3    S    
C24   O7    A    
C22   N1    A    
C1    O3    A    
C6    F4    S    
C1    O1    A    
C8    C9    A    
C3    C5    A    
C10   C13   A    
