data_mof_unit_15747.cif
_audit_creation_date              2012-10-26T18:39:12-0400
_audit_creation_method            fapswitch 2.2
_symmetry_space_group_name_H-M    P1
_symmetry_Int_Tables_number       1
_space_group_crystal_system       triclinic
_cell_length_a                    9.50299
_cell_length_b                    10.607388
_cell_length_c                    17.148333
_cell_angle_alpha                 90.092513
_cell_angle_beta                  86.126647
_cell_angle_gamma                 89.76592
_cell_volume                      1724.61866747

loop_
_atom_site_label
_atom_site_type_symbol
_atom_type_description
_atom_site_fract_x
_atom_site_fract_y
_atom_site_fract_z
_atom_type_partial_charge
C1    C     C_R   0.500000 0.740168 0.500007 0.555177
C2    C     C_3   0.634993 0.958404 0.501474 -0.132782
C3    C     C_3   0.952800 0.388526 0.487681 0.267424
C4    C     C_3   0.047200 0.611474 0.512319 0.267424
C5    C     C_3   0.043556 0.427330 0.553630 0.298600
C6    C     C_3   0.956444 0.572670 0.446370 0.298600
C7    C     C_3   0.057367 0.461286 0.433997 0.284718
C8    C     C_3   0.942633 0.538714 0.566003 0.284718
C9    C     C_R   0.481561 0.499818 0.649796 0.518040
C10   C     C_R   0.518439 0.500182 0.350203 0.518040
C11   C     C_R   0.472141 0.507684 0.734847 -0.018329
C12   C     C_R   0.500000 0.259832 0.499993 0.555177
C13   C     C_R   0.527859 0.492315 0.265153 -0.018329
C14   C     C_R   0.556813 0.597098 0.769346 -0.117581
C15   C     C_R   0.443185 0.402903 0.230654 -0.117582
C16   C     C_R   0.552415 0.610460 0.850443 0.262981
C17   C     C_R   0.447582 0.389541 0.149557 0.262980
C18   C     C_R   0.457292 0.537490 0.896888 0.014680
C19   C     C_R   0.542708 0.462508 0.103112 0.014681
C20   C     C_R   0.371110 0.449130 0.862949 -0.085994
C21   C     C_R   0.628892 0.550867 0.137051 -0.085994
C22   C     C_R   0.378802 0.431544 0.782213 0.234716
C23   C     C_3   0.442131 0.958102 0.434536 -0.160005
C24   C     C_R   0.621199 0.568454 0.217787 0.234716
C25   C     C_2   0.459638 0.542751 0.982744 0.313799
C26   C     C_2   0.540362 0.457248 0.017256 0.313798
C27   C     C_3   0.715461 0.301863 0.010225 -0.108483
C28   C     C_3   0.284535 0.698130 0.989776 -0.108484
C29   C     C_3   0.223511 0.342799 0.120859 -0.105716
C30   C     C_3   0.776485 0.657205 0.879142 -0.105716
C31   C     C_3   0.709312 0.996517 0.324353 -0.080618
C32   C     C_3   0.290686 0.003483 0.675647 -0.080616
C33   C     C_3   0.557869 0.041898 0.565464 -0.160005
C34   C     C_3   0.574766 0.040454 0.437618 0.281469
C35   C     C_3   0.425234 0.959546 0.562382 0.281468
C36   C     C_3   0.499296 0.122956 0.500389 0.020323
C37   C     C_3   0.500704 0.877044 0.499611 0.020323
C38   C     C_3   0.365007 0.041596 0.498526 -0.132782
Cu1   Cu    Cu3+1 0.356850 0.500010 0.499980 1.088919
Cu2   Cu    Cu3+1 0.643150 0.499990 0.500020 1.088919
H1    H     H_    0.625719 0.657535 0.733182 0.151280
H2    H     H_    0.017467 0.788668 0.528593 0.303858
H3    H     H_    0.164738 0.337685 0.373883 0.316430
H4    H     H_    0.835262 0.662315 0.626117 0.316431
H5    H     H_    0.664786 0.685761 0.300219 0.341722
H6    H     H_    0.335216 0.314238 0.699780 0.341721
H7    H     H_    0.671275 0.244363 0.060126 0.159926
H8    H     H_    0.793366 0.371257 0.029734 0.090838
H9    H     H_    0.772639 0.236753 0.968364 0.154194
H10   H     H_    0.206631 0.628734 0.970270 0.090836
H11   H     H_    0.328715 0.755631 0.939874 0.159925
H12   H     H_    0.374278 0.342467 0.266818 0.151281
H13   H     H_    0.227356 0.763240 0.031637 0.154193
H14   H     H_    0.212891 0.438239 0.094849 0.138153
H15   H     H_    0.178687 0.342295 0.182464 0.151931
H16   H     H_    0.160001 0.277019 0.087345 0.137009
H17   H     H_    0.821310 0.657706 0.817538 0.151929
H18   H     H_    0.787106 0.561766 0.905154 0.138153
H19   H     H_    0.839993 0.722987 0.912656 0.137009
H20   H     H_    0.624527 0.939770 0.299874 0.125469
H21   H     H_    0.781631 0.934756 0.355686 0.139509
H22   H     H_    0.771967 0.039633 0.274464 0.156162
H23   H     H_    0.301212 0.390520 0.899809 0.149962
H24   H     H_    0.218364 0.065240 0.644313 0.139509
H25   H     H_    0.375470 0.060233 0.700124 0.125470
H26   H     H_    0.228033 0.960366 0.725536 0.156162
H27   H     H_    0.010016 0.310734 0.637935 0.333111
H28   H     H_    0.989984 0.689266 0.362064 0.333112
H29   H     H_    0.698791 0.609476 0.100191 0.149960
H30   H     H_    0.396652 0.920722 0.381257 0.121523
H31   H     H_    0.603348 0.079278 0.618743 0.121524
H32   H     H_    0.255340 0.078044 0.498228 0.129813
H33   H     H_    0.744660 0.921956 0.501771 0.129814
H34   H     H_    0.982532 0.211332 0.471407 0.303858
N1    N     N_3   0.141720 0.500030 0.499940 -0.246295
N2    N     N_3   0.858280 0.499970 0.500060 -0.246295
O1    O     O_R   0.379130 0.683150 0.499960 -0.420119
O2    O     O_3   0.100435 0.731519 0.525996 -0.638850
O3    O     O_3   0.120936 0.420049 0.362597 -0.672705
O4    O     O_3   0.879063 0.579950 0.637403 -0.672704
O5    O     O_3   0.702703 0.662739 0.246944 -0.674509
O6    O     O_3   0.297301 0.337258 0.753056 -0.674510
O7    O     O_3   0.607049 0.361892 0.971767 -0.582021
O8    O     O_3   0.392952 0.638107 0.028233 -0.582018
O9    O     O_3   0.364884 0.300824 0.115294 -0.554203
O10   O     O_3   0.635111 0.699178 0.884706 -0.554200
O11   O     O_3   0.652624 0.093797 0.373015 -0.530076
O12   O     O_R   0.620870 0.316850 0.500040 -0.420119
O13   O     O_3   0.347376 0.906202 0.626985 -0.530076
O14   O     O_3   0.094736 0.349053 0.610835 -0.658930
O15   O     O_3   0.905264 0.650947 0.389164 -0.658930
O16   O     O_R   0.620910 0.683140 0.500000 -0.524156
O17   O     O_R   0.379090 0.316860 0.500000 -0.524156
O18   O     O_R   0.365090 0.500030 0.613580 -0.436819
O19   O     O_R   0.634910 0.499970 0.386420 -0.436819
O20   O     O_R   0.606870 0.500020 0.613610 -0.493543
O21   O     O_R   0.393130 0.499980 0.386390 -0.493544
O22   O     O_3   0.899565 0.268481 0.474004 -0.638850

loop_
_geom_bond_atom_site_label_1
_geom_bond_atom_site_label_2
_ccdc_geom_bond_type
C27   H8    S    
C26   O7    S    
C28   O8    S    
C1    O1    A    
C31   H21   S    
C23   H30   S    
C4    C8    S    
H28   O15   S    
H34   O22   S    
C17   O9    S    
Cu1   O1    S    
C32   H26   S    
C35   C37   S    
C3    C7    S    
C11   C14   A    
Cu1   O21   S    
C29   H14   S    
H3    O3    S    
C6    O15   S    
C30   H17   S    
C8    N2    S    
C33   C36   S    
C19   C26   S    
Cu1   O17   S    
C4    N1    S    
C33   C35   S    
H6    O6    S    
C28   H10   S    
C25   O8    S    
Cu1   N1    S    
C12   C36   S    
C29   O9    S    
C5    O14   S    
C1    C37   S    
C2    C34   S    
C16   O10   S    
C31   H22   S    
C18   C25   S    
Cu2   O20   S    
C38   H32   S    
C31   O11   S    
C12   O12   A    
H4    O4    S    
C35   C38   S    
C32   H24   S    
C4    C6    S    
Cu1   Cu2   S    
C17   C19   A    
C7    N1    S    
C29   H15   S    
C25   C26   D    
C23   C37   S    
H27   O14   S    
Cu2   N2    S    
C13   C24   A    
C21   H29   S    
C31   H20   S    
C5    N1    S    
C10   O21   A    
C24   O5    S    
Cu1   O18   S    
C4    O2    S    
C32   O13   S    
C23   C34   S    
C30   H19   S    
C15   H12   S    
Cu2   O16   S    
C3    N2    S    
C9    C11   S    
C9    O20   A    
C2    H33   S    
C14   H1    S    
C35   O13   S    
C2    C33   S    
C20   C22   A    
H2    O2    S    
C1    O16   A    
C13   C15   A    
C14   C16   A    
C12   O17   A    
C30   O10   S    
Cu2   O19   S    
C22   O6    S    
C7    O3    S    
C27   H7    S    
C15   C17   A    
C19   C21   A    
H5    O5    S    
C3    C5    S    
C10   C13   S    
C5    C8    S    
C28   H13   S    
C6    N2    S    
C6    C7    S    
C29   H16   S    
C23   C38   S    
C11   C22   A    
Cu2   O12   S    
C20   H23   S    
C36   C38   S    
C2    C37   S    
C10   O19   A    
C30   H18   S    
C27   O7    S    
C28   H11   S    
C34   C36   S    
C18   C20   A    
C34   O11   S    
C33   H31   S    
C16   C18   A    
C21   C24   A    
C8    O4    S    
C9    O18   A    
C3    O22   S    
C27   H9    S    
C32   H25   S    
