data_mof_unit_68306.cif
_audit_creation_date              2012-12-10T19:24:03-0500
_audit_creation_method            fapswitch 2.2
_symmetry_space_group_name_H-M    P1
_symmetry_Int_Tables_number       1
_space_group_crystal_system       triclinic
_cell_length_a                    10.549363
_cell_length_b                    10.658933
_cell_length_c                    9.935971
_cell_angle_alpha                 89.53805
_cell_angle_beta                  92.61153
_cell_angle_gamma                 89.977254
_cell_volume                      1116.05284182

loop_
_atom_site_label
_atom_site_type_symbol
_atom_type_description
_atom_site_fract_x
_atom_site_fract_y
_atom_site_fract_z
_atom_type_partial_charge
C1    C     C_R   0.504643 0.258442 0.499863 0.882204
C2    C     C_3   0.613286 0.516244 0.054487 -0.163633
C3    C     C_R   0.258273 0.497824 0.497270 0.878817
C4    C     C_R   0.741727 0.502175 0.502730 0.878814
C5    C     C_3   0.048607 0.437193 0.605760 0.210931
C6    C     C_3   0.951394 0.562807 0.394240 0.210931
C7    C     C_3   0.955117 0.379345 0.499698 -0.310047
C8    C     C_3   0.044883 0.620655 0.500301 -0.310045
C9    C     C_3   0.876902 0.502085 0.507039 -0.162191
C10   C     C_3   0.123098 0.497916 0.492961 -0.162191
C11   C     C_3   0.970622 0.557478 0.612823 0.240902
C12   C     C_R   0.495358 0.741558 0.500137 0.882208
C13   C     C_3   0.029378 0.442522 0.387177 0.240902
C14   C     C_3   0.590302 0.037557 0.589851 0.139056
C15   C     C_3   0.409699 0.962444 0.410149 0.139053
C16   C     C_3   0.612196 0.953322 0.469046 0.172486
C17   C     C_3   0.387805 0.046678 0.530954 0.172486
C18   C     C_3   0.493632 0.876401 0.502658 -0.295038
C19   C     C_3   0.506369 0.123599 0.497342 -0.295037
C20   C     C_3   0.031688 0.313288 0.813950 -0.749524
C21   C     C_3   0.968313 0.686712 0.186051 -0.749525
C22   C     C_3   0.036546 0.679421 0.810736 -0.761603
C23   C     C_3   0.471456 0.962462 0.624151 0.213718
C24   C     C_3   0.963456 0.320577 0.189265 -0.761610
C25   C     C_3   0.837212 0.979629 0.418615 -0.810567
C26   C     C_3   0.162789 0.020370 0.581385 -0.810556
C27   C     C_3   0.755078 0.997644 0.768486 -0.725343
C28   C     C_3   0.244922 0.002356 0.231515 -0.725348
C29   C     C_3   0.405321 0.018989 0.847324 -0.850497
C30   C     C_3   0.594680 0.981012 0.152676 -0.850501
C31   C     C_2   0.661628 0.316903 0.914660 0.347789
C32   C     C_2   0.338370 0.683096 0.085339 0.347776
C33   C     C_2   0.399082 0.279345 0.096250 0.411527
C34   C     C_3   0.528545 0.037538 0.375849 0.213717
C35   C     C_2   0.600918 0.720655 0.903750 0.411526
C36   C     C_3   0.457861 0.396171 0.046517 -0.001037
C37   C     C_3   0.542139 0.603829 0.953483 -0.001036
C38   C     C_3   0.569971 0.412020 0.957317 0.035021
C39   C     C_3   0.430028 0.587980 0.042683 0.035023
C40   C     C_3   0.386714 0.483756 0.945513 -0.163637
H1    H     H_    0.915717 0.282787 0.501921 0.161711
H2    H     H_    0.909545 0.745109 0.114225 0.223892
H3    H     H_    0.013479 0.612314 0.127624 0.280618
H4    H     H_    0.040777 0.747886 0.236674 0.267551
H5    H     H_    0.876841 0.565471 0.792409 0.300448
H6    H     H_    0.996817 0.736252 0.891715 0.247978
H7    H     H_    0.090153 0.743545 0.745650 0.231495
H8    H     H_    0.101871 0.607857 0.856883 0.247964
H9    H     H_    0.123158 0.434530 0.207590 0.300446
H10   H     H_    0.003184 0.263751 0.108282 0.247979
H11   H     H_    0.898126 0.392138 0.143124 0.247968
H12   H     H_    0.084284 0.717213 0.498078 0.161711
H13   H     H_    0.909856 0.256448 0.254350 0.231497
H14   H     H_    0.755690 0.819912 0.499258 0.229323
H15   H     H_    0.914142 0.927724 0.370607 0.238546
H16   H     H_    0.874854 0.016121 0.516541 0.261155
H17   H     H_    0.808672 0.059705 0.352297 0.243097
H18   H     H_    0.244311 0.180087 0.500743 0.229322
H19   H     H_    0.085858 0.072276 0.629394 0.238544
H20   H     H_    0.191329 0.940293 0.647705 0.243095
H21   H     H_    0.125148 0.983878 0.483459 0.261153
H22   H     H_    0.669487 0.168463 0.719706 0.268587
H23   H     H_    0.290753 0.469749 0.897760 0.168903
H24   H     H_    0.840597 0.042591 0.816044 0.222808
H25   H     H_    0.785800 0.913123 0.714599 0.286950
H26   H     H_    0.691101 0.970617 0.848629 0.252773
H27   H     H_    0.330522 0.831542 0.280286 0.268590
H28   H     H_    0.159403 0.957409 0.183957 0.222809
H29   H     H_    0.308897 0.029386 0.151371 0.252773
H30   H     H_    0.214200 0.086875 0.285404 0.286949
H31   H     H_    0.371601 0.848151 0.753463 0.224774
H32   H     H_    0.396671 0.978394 0.949024 0.225249
H33   H     H_    0.313089 0.062916 0.817244 0.272862
H34   H     H_    0.709247 0.530251 0.102240 0.168903
H35   H     H_    0.480167 0.091980 0.850584 0.243707
H36   H     H_    0.628401 0.151849 0.246539 0.224776
H37   H     H_    0.603333 0.021608 0.050977 0.225250
H38   H     H_    0.519834 0.908023 0.149413 0.243706
H39   H     H_    0.686911 0.937083 0.182757 0.272864
H40   H     H_    0.654384 0.220641 0.948961 0.021318
H41   H     H_    0.345608 0.779355 0.051030 0.021324
H42   H     H_    0.427784 0.190246 0.057290 0.047134
H43   H     H_    0.572217 0.809754 0.942712 0.047133
H44   H     H_    0.178783 0.306697 0.684551 0.242121
H45   H     H_    0.090456 0.254891 0.885775 0.223892
H46   H     H_    0.959223 0.252115 0.763327 0.267552
H47   H     H_    0.986523 0.387687 0.872377 0.280619
H48   H     H_    0.821217 0.693302 0.315448 0.242121
N1    N     N_3   0.499910 0.500030 0.863290 -0.088370
N2    N     N_2   0.307933 0.914556 0.323304 -0.315945
N3    N     N_2   0.436605 0.920321 0.755856 -0.284573
N4    N     N_2   0.563397 0.079680 0.244144 -0.284573
N5    N     N_3   0.500090 0.499970 0.136710 -0.088369
N6    N     N_2   0.111973 0.368849 0.716360 -0.308865
N7    N     N_2   0.888028 0.631151 0.283640 -0.308865
N8    N     N_2   0.934162 0.619434 0.734078 -0.262348
N9    N     N_2   0.065839 0.380566 0.265922 -0.262346
N10   N     N_2   0.731800 0.895585 0.438009 -0.299745
N11   N     N_2   0.268201 0.104414 0.561991 -0.299746
N12   N     N_2   0.692071 0.085443 0.676693 -0.315948
O1    O     O_R   0.500010 0.313960 0.616610 -0.627249
O2    O     O_2   0.250796 0.651077 0.153383 -0.595238
O3    O     O_2   0.313832 0.284618 0.174620 -0.559725
O4    O     O_2   0.686167 0.715382 0.825379 -0.559726
O5    O     O_R   0.499990 0.686040 0.383390 -0.627246
O6    O     O_R   0.500060 0.313950 0.383350 -0.591748
O7    O     O_R   0.499940 0.686050 0.616650 -0.591748
O8    O     O_R   0.313930 0.499970 0.616610 -0.638412
O9    O     O_R   0.686070 0.500030 0.383390 -0.638412
O10   O     O_R   0.313980 0.499960 0.383350 -0.541447
O11   O     O_R   0.686020 0.500040 0.616650 -0.541450
O12   O     O_2   0.749208 0.348924 0.846624 -0.595244
Zn1   Zn    Zn3+2 0.499970 0.500010 0.655740 0.999737
Zn2   Zn    Zn3+2 0.500030 0.499990 0.344260 0.999739

loop_
_geom_bond_atom_site_label_1
_geom_bond_atom_site_label_2
_ccdc_geom_bond_type
C11   N8    S    
O8    Zn1   S    
C15   C18   S    
C22   H8    S    
C4    O9    A    
C23   N3    S    
O1    Zn1   S    
C28   H29   S    
C25   H16   S    
C6    C9    S    
C5    N6    S    
C31   H40   S    
C32   H41   S    
C38   N1    S    
C17   C23   S    
C40   H23   S    
O6    Zn2   S    
C35   C37   S    
C26   H21   S    
C5    C11   S    
C12   O5    A    
C29   H33   S    
C3    O10   A    
C20   H47   S    
C33   C36   S    
C7    C9    S    
C32   C39   S    
O7    Zn1   S    
C16   C34   S    
C21   H3    S    
C30   H37   S    
C36   N5    S    
C39   N5    S    
C20   H46   S    
C31   O12   D    
C40   N1    S    
C33   H42   S    
C8    H12   S    
C15   C34   S    
C2    H34   S    
C1    O6    A    
C29   H32   S    
C24   H11   S    
C22   H7    S    
H48   N7    S    
C25   H17   S    
C24   H10   S    
N1    Zn1   S    
C27   N12   S    
C1    C19   S    
C18   C23   S    
O5    Zn2   S    
C36   C40   S    
C30   N4    S    
C35   O4    D    
C39   C40   S    
C5    C7    S    
C35   H43   S    
C6    C8    S    
C21   N7    S    
C24   H13   S    
C19   C34   S    
H27   N2    S    
C24   N9    S    
C14   C23   S    
C27   H25   S    
C21   H4    S    
C9    C11   S    
C2    C38   S    
C20   H45   S    
O11   Zn1   S    
H44   N6    S    
C17   N11   S    
O9    Zn2   S    
H36   N4    S    
H22   N12   S    
C30   H39   S    
C8    C10   S    
C22   H6    S    
C4    O11   A    
C32   O2    D    
C1    O1    A    
O10   Zn2   S    
C29   N3    S    
C26   H19   S    
C15   C17   S    
C20   N6    S    
C28   H28   S    
C33   O3    D    
C22   N8    S    
C14   C19   S    
C2    N5    S    
C28   H30   S    
H18   N11   S    
C25   H15   S    
C10   C13   S    
C12   O7    A    
C14   N12   S    
C29   H35   S    
C3    O8    A    
C26   N11   S    
C31   C38   S    
C37   N1    S    
C36   C38   S    
C5    C10   S    
C37   C39   S    
C3    C10   S    
C15   N2    S    
C2    C37   S    
C16   N10   S    
C8    C11   S    
C17   C19   S    
C14   C16   S    
N5    Zn2   S    
C7    H1    S    
C13   N9    S    
C34   N4    S    
C27   H24   S    
H9    N9    S    
C21   H2    S    
C30   H38   S    
C25   N10   S    
C7    C13   S    
H31   N3    S    
C16   C18   S    
C6    N7    S    
C12   C18   S    
C27   H26   S    
H14   N10   S    
C28   N2    S    
C4    C9    S    
H5    N8    S    
C26   H20   S    
C6    C13   S    
