data_mof_unit_20940.cif
_audit_creation_date              2012-12-11T17:39:29-0500
_audit_creation_method            fapswitch 2.2
_symmetry_space_group_name_H-M    P1
_symmetry_Int_Tables_number       1
_space_group_crystal_system       triclinic
_cell_length_a                    15.138642
_cell_length_b                    14.984722
_cell_length_c                    14.946529
_cell_angle_alpha                 108.656627
_cell_angle_beta                  110.197402
_cell_angle_gamma                 110.053173
_cell_volume                      2593.63520491

loop_
_atom_site_label
_atom_site_type_symbol
_atom_type_description
_atom_site_fract_x
_atom_site_fract_y
_atom_site_fract_z
_atom_type_partial_charge
C1    C     C_R   0.909187 0.967751 0.722904 -0.112286
C2    C     C_R   0.911253 0.704862 0.511704 -0.141766
C3    C     C_R   0.754041 0.778538 0.187229 -0.136476
C4    C     C_R   0.090638 0.315750 0.555514 -0.118451
C5    C     C_R   0.257487 0.943210 0.533279 -0.141316
C6    C     C_R   0.729922 0.676476 0.178209 0.138162
C7    C     C_R   0.284318 0.963647 0.458874 0.049895
C8    C     C_R   0.003191 0.704266 0.575547 0.079222
C9    C     C_R   0.993040 0.063948 0.194878 0.137045
C10   C     C_R   0.494638 0.603750 0.308122 -0.125759
C11   C     C_R   0.481319 0.693185 0.317126 -0.147790
C12   C     C_R   0.997845 0.324927 0.537036 0.053556
C13   C     C_R   0.453018 0.739255 0.392846 0.104671
C14   C     C_R   0.431546 0.689456 0.454214 -0.139628
C15   C     C_R   0.441283 0.597294 0.441914 -0.097491
C16   C     C_R   0.294076 0.218603 0.808232 -0.130554
C17   C     C_R   0.473841 0.555106 0.369697 -0.111340
C18   C     C_R   0.366324 0.852660 0.419202 -0.240057
C19   C     C_R   0.364547 0.949310 0.435710 0.080349
C20   C     C_R   0.445235 0.035246 0.438464 0.025664
C21   C     C_R   0.528589 0.024430 0.430723 -0.255346
C22   C     C_R   0.535618 0.932335 0.422811 0.065605
C23   C     C_R   0.347113 0.318574 0.814737 -0.048338
C24   C     C_R   0.451895 0.842364 0.411621 0.025442
C25   C     C_R   0.417963 0.165013 0.376122 -0.190569
C26   C     C_R   0.432783 0.268712 0.398508 -0.109433
C27   C     C_R   0.487716 0.352363 0.507179 -0.110792
C28   C     C_R   0.699228 0.998366 0.405919 -0.181991
C29   C     C_R   0.527256 0.332178 0.593460 -0.115604
C30   C     C_R   0.510775 0.227927 0.571396 -0.135480
C31   C     C_R   0.455578 0.143529 0.462387 0.105897
C32   C     C_R   0.725837 0.242751 0.214270 -0.129586
C33   C     C_R   0.814479 0.323320 0.319329 -0.130539
C34   C     C_R   0.639279 0.943351 0.441092 0.055094
C35   C     C_R   0.803009 0.339047 0.411590 0.113915
C36   C     C_R   0.701480 0.274659 0.397544 -0.187761
C37   C     C_R   0.614656 0.190646 0.292541 -0.141571
C38   C     C_R   0.626450 0.175491 0.201025 -0.063603
C39   C     C_R   0.901106 0.526262 0.554311 -0.235049
C40   C     C_R   0.291718 0.308191 0.714482 -0.175629
C41   C     C_R   0.002282 0.622391 0.610484 0.050700
C42   C     C_R   0.098194 0.622929 0.672323 0.106600
C43   C     C_R   0.089938 0.523499 0.659101 -0.165653
C44   C     C_R   0.993416 0.425296 0.574777 0.049987
C45   C     C_R   0.754046 0.687308 0.280068 -0.143950
C46   C     C_R   0.897045 0.427283 0.521493 0.011014
C47   C     C_R   0.287517 0.727301 0.707338 0.637690
C48   C     C_R   0.382831 0.829102 0.757694 -0.304178
C49   C     C_R   0.401709 0.921739 0.841544 -0.094355
C50   C     C_R   0.327528 0.913447 0.878040 -0.067001
C51   C     C_R   0.231638 0.813650 0.827843 -0.233023
C52   C     C_R   0.699585 0.911226 0.501900 -0.114097
C53   C     C_R   0.208861 0.721253 0.739443 -0.093024
C54   C     C_2   0.533861 0.456878 0.891963 -0.354284
C55   C     C_2   0.448880 0.416851 0.906694 0.621475
C56   C     C_R   0.244846 0.027059 0.433164 -0.098126
C57   C     C_2   0.634661 0.559619 0.980148 -0.077296
C58   C     C_2   0.679054 0.571908 0.080392 -0.106039
C59   C     C_R   0.360117 0.150882 0.106373 -0.213049
C60   C     C_R   0.250477 0.116434 0.073017 0.202129
C61   C     C_R   0.209884 0.185927 0.059056 0.071788
C62   C     C_R   0.280493 0.289273 0.079907 -0.201774
C63   C     C_R   0.389622 0.321716 0.111856 -0.109482
C64   C     C_R   0.908145 0.220667 0.470963 -0.122951
C65   C     C_R   0.429415 0.252943 0.124979 -0.162199
C66   C     C_R   0.086757 0.168852 0.127416 -0.223036
C67   C     C_R   0.092183 0.793070 0.595961 -0.112976
C68   C     C_R   0.987190 0.098413 0.111476 0.003690
C69   C     C_R   0.890664 0.051239 0.008988 -0.105243
C70   C     C_R   0.901691 0.070106 0.926625 0.549246
C71   C     C_R   0.003011 0.097296 0.931013 -0.123608
C72   C     C_R   0.098412 0.156238 0.036868 0.022347
C73   C     C_R   0.746785 0.855047 0.909669 -0.086821
C74   C     C_R   0.646702 0.771977 0.880891 -0.244190
C75   C     C_R   0.583205 0.797719 0.921428 -0.291898
C76   C     C_R   0.091623 0.062019 0.813177 -0.121215
C77   C     C_R   0.617729 0.908158 0.988080 0.693719
C78   C     C_R   0.906713 0.003333 0.201560 -0.148147
C79   C     C_R   0.712285 0.991180 0.005904 -0.322960
C80   C     C_R   0.781458 0.965119 0.974657 0.137910
C81   C     C_R   0.002088 0.046335 0.826976 0.107583
C82   C     C_3   0.338073 0.603614 0.647171 -0.322217
C83   C     C_3   0.369992 0.494501 0.987286 -0.295529
C84   C     C_3   0.820707 0.133074 0.824010 -0.277199
C85   C     C_3   0.524445 0.873859 0.078987 -0.283529
C86   C     C_R   0.087500 0.095377 0.289150 -0.114330
H1    H     H_    0.824694 0.929560 0.700366 0.162972
H2    H     H_    0.523061 0.573921 0.254679 0.130847
H3    H     H_    0.497150 0.729041 0.267914 0.114451
H4    H     H_    0.174570 0.381408 0.602421 0.098055
H5    H     H_    0.410201 0.723474 0.513566 0.129664
H6    H     H_    0.425721 0.559834 0.489929 0.096863
H7    H     H_    0.301804 0.786377 0.413789 0.139048
H8    H     H_    0.594261 0.094019 0.441252 0.133068
H9    H     H_    0.375647 0.100729 0.291729 0.145846
H10   H     H_    0.402246 0.284390 0.331739 0.129996
H11   H     H_    0.500323 0.433014 0.524630 0.094770
H12   H     H_    0.245416 0.052649 0.373860 0.128551
H13   H     H_    0.571845 0.397823 0.677383 0.104123
H14   H     H_    0.542369 0.213354 0.638872 0.108946
H15   H     H_    0.557843 0.113142 0.119583 0.149829
H16   H     H_    0.326200 0.195145 0.867697 0.110335
H17   H     H_    0.734124 0.232966 0.143253 0.106485
H18   H     H_    0.891700 0.374486 0.328958 0.124365
H19   H     H_    0.691086 0.287072 0.467859 0.131761
H20   H     H_    0.538127 0.137296 0.281777 0.121654
H21   H     H_    0.825554 0.523901 0.512432 0.129059
H22   H     H_    0.162625 0.523042 0.705407 0.113979
H23   H     H_    0.177517 0.826373 0.648327 0.113362
H24   H     H_    0.440640 0.837407 0.729551 0.146311
H25   H     H_    0.474394 0.000090 0.878796 0.135757
H26   H     H_    0.342574 0.985337 0.942571 0.130203
H27   H     H_    0.670792 0.021985 0.345315 0.114706
H28   H     H_    0.172137 0.809739 0.853170 0.183313
H29   H     H_    0.525427 0.418992 0.812123 0.112297
H30   H     H_    0.657395 0.628917 0.966797 0.126450
H31   H     H_    0.656221 0.499717 0.089889 0.137339
H32   H     H_    0.514314 0.279681 0.150651 0.137084
H33   H     H_    0.391442 0.098482 0.118784 0.133088
H34   H     H_    0.823527 0.980941 0.158104 0.109348
H35   H     H_    0.251435 0.344813 0.072829 0.132449
H36   H     H_    0.444442 0.400747 0.128289 0.174025
H37   H     H_    0.319141 0.365423 0.687269 0.090407
H38   H     H_    0.160432 0.215761 0.207266 0.135181
H39   H     H_    0.797729 0.833765 0.881894 0.130143
H40   H     H_    0.619514 0.687298 0.829199 0.139259
H41   H     H_    0.507636 0.731593 0.900676 0.128395
H42   H     H_    0.738231 0.075963 0.054583 0.137511
H43   H     H_    0.672690 0.857745 0.532907 0.116124
H44   H     H_    0.824514 0.194851 0.446749 0.122710
H45   H     H_    0.170851 0.154954 0.319896 0.097776
H46   H     H_    0.176446 0.114912 0.873262 0.123581
H47   H     H_    0.745280 0.623976 0.301988 0.098919
H48   H     H_    0.344644 0.589774 0.717520 0.121785
H49   H     H_    0.419807 0.662652 0.666667 0.157470
H50   H     H_    0.308637 0.524246 0.576927 0.174086
H51   H     H_    0.290706 0.418498 0.948837 0.156311
H52   H     H_    0.364631 0.535019 0.936350 0.134357
H53   H     H_    0.386155 0.551515 0.067601 0.170008
H54   H     H_    0.887612 0.164424 0.807085 0.146367
H55   H     H_    0.835157 0.198896 0.898440 0.138012
H56   H     H_    0.828379 0.657537 0.491983 0.091522
H57   H     H_    0.743727 0.109462 0.753090 0.179747
H58   H     H_    0.588180 0.858942 0.124999 0.134243
H59   H     H_    0.447478 0.795484 0.013496 0.155469
H60   H     H_    0.505592 0.918047 0.138143 0.174805
H61   H     H_    0.744883 0.798907 0.122831 0.108208
H62   H     H_    0.278314 0.897957 0.572124 0.110487
H63   H     H_    0.483756 0.485353 0.362052 0.108034
I1    I     I_    0.151040 0.959673 0.046544 -0.533307
N1    N     N_R   0.941940 0.944580 0.650780 -0.053853
N2    N     N_R   0.204460 0.150250 0.707090 -0.039451
N3    N     N_R   0.794270 0.003240 0.446420 -0.038185
N4    N     N_R   0.204920 0.207570 0.650770 -0.028192
N5    N     N_R   0.793810 0.945920 0.502740 -0.043623
N6    N     N_R   0.943620 0.152590 0.446420 -0.043001
N7    N     N_R   0.055110 0.000900 0.707100 -0.045889
N8    N     N_R   0.795080 0.792430 0.349230 -0.041055
N9    N     N_R   0.206190 0.054080 0.497260 -0.044439
N10   N     N_R   0.056380 0.847410 0.553580 -0.043572
N11   N     N_R   0.944890 0.999100 0.292900 -0.043418
N12   N     N_R   0.058060 0.055420 0.349220 -0.046185
N13   N     N_R   0.943200 0.791100 0.497260 -0.040297
N14   N     N_R   0.795540 0.849750 0.292910 -0.045929
N15   N     N_R   0.205730 0.996760 0.553580 -0.042420
N16   N     N_R   0.056800 0.208900 0.502740 -0.043837
Ni1   Ni    Ni4+2 0.869690 0.869690 0.500000 0.212217
Ni2   Ni    Ni4+2 0.130310 0.130310 0.500000 0.216224
Ni3   Ni    Ni4+2 0.129250 0.998840 0.629170 0.216098
Ni4   Ni    Ni4+2 0.870750 0.001160 0.370830 0.213908
O1    O     O_3   0.262367 0.638130 0.616009 -0.618858
O2    O     O_3   0.456284 0.472627 0.005761 -0.631355
O3    O     O_3   0.808363 0.039961 0.834494 -0.633171
O4    O     O_3   0.560754 0.939100 0.034667 -0.642539

loop_
_geom_bond_atom_site_label_1
_geom_bond_atom_site_label_2
_ccdc_geom_bond_type
C1    H1    S    
C66   C68   A    
C79   H42   S    
C63   C65   A    
C25   C31   A    
C77   O4    S    
C6    C45   A    
C27   C29   A    
C33   H18   S    
C76   H46   S    
C41   C42   A    
C6    C58   S    
N14   Ni4   S    
C35   C36   A    
C56   H12   S    
C3    C6    A    
N4    Ni2   S    
C83   H53   S    
N11   N12   A    
C39   C41   A    
C52   N5    A    
C3    H61   S    
C9    C78   A    
C10   H2    S    
C26   C27   A    
C37   C38   A    
C18   C24   A    
C52   H43   S    
N1    N7    A    
C36   C37   A    
C85   H59   S    
C56   N9    A    
C32   C38   A    
C42   C53   S    
C30   C31   A    
C12   C64   A    
N1    Ni1   S    
C86   H45   S    
C21   H8    S    
C10   C17   A    
C1    C81   A    
C23   C40   A    
C30   H14   S    
N9    Ni2   S    
C18   C19   A    
C73   C74   A    
C82   H49   S    
N7    Ni3   S    
C15   H6    S    
C54   C55   D    
C67   H23   S    
C66   C72   A    
C19   C20   A    
N5    Ni1   S    
C68   C69   A    
N3    Ni4   S    
C65   H32   S    
C67   N10   A    
C86   N12   A    
C5    N15   A    
C4    C12   A    
C29   C30   A    
N8    N14   A    
C47   C53   A    
C28   C34   A    
C59   C60   A    
C5    H62   S    
C13   C14   A    
C54   H29   S    
C26   H10   S    
C40   N4    A    
C61   C62   A    
C7    C56   A    
C85   H58   S    
C44   C46   A    
N8    Ni1   S    
C85   O4    S    
C57   H30   S    
C4    H4    S    
C77   C79   A    
N15   Ni3   S    
C22   C34   S    
C17   H63   S    
C76   N7    A    
C51   H28   S    
C74   C75   A    
C29   H13   S    
N10   N13   A    
N16   Ni2   S    
C85   H60   S    
C10   C11   A    
C5    C7    A    
C84   H57   S    
C25   C26   A    
C58   H31   S    
N9    N15   A    
C13   C24   S    
C60   C61   A    
C51   C53   A    
C82   H48   S    
C78   H34   S    
C43   C44   A    
C62   C63   A    
C9    C86   A    
C11   H3    S    
C47   C48   A    
N6    N16   A    
N13   Ni1   S    
N10   Ni3   S    
C83   O2    S    
C50   H26   S    
C50   C51   A    
C32   H17   S    
C16   N2    A    
C60   I1    S    
C8    C41   S    
C75   C77   A    
C70   C71   A    
C3    N14   A    
C78   N11   A    
C39   C46   A    
N12   Ni2   S    
N11   Ni4   S    
C61   C72   S    
C16   H16   S    
C48   C49   A    
C64   H44   S    
C25   H9    S    
C16   C23   A    
C7    C19   S    
C28   N3    A    
C2    H56   S    
C66   H38   S    
C22   C24   A    
N3    N5    A    
C42   C43   A    
C84   O3    S    
C55   O2    S    
C83   H51   S    
C63   H36   S    
C15   C17   A    
C40   H37   S    
C82   O1    S    
C27   H11   S    
C59   H33   S    
C36   H19   S    
C34   C52   A    
C2    C8    A    
C45   N8    A    
N2    N4    A    
C2    N13   A    
C39   H21   S    
C47   O1    S    
C23   C55   S    
C38   H15   S    
C64   N6    A    
C45   H47   S    
C76   C81   A    
C49   H25   S    
C32   C33   A    
C9    C68   S    
C71   C72   A    
C12   C44   S    
C59   C65   A    
N2    Ni3   S    
C11   C13   A    
C57   C58   D    
C74   H40   S    
C84   H55   S    
C73   H39   S    
N6    Ni4   S    
C33   C35   A    
C73   C80   A    
C4    N16   A    
C1    N1    A    
C75   H41   S    
C43   H22   S    
C62   H35   S    
C82   H50   S    
C69   C70   A    
C70   O3    S    
C14   H5    S    
C28   H27   S    
C79   C80   A    
C37   H20   S    
C20   C21   A    
C84   H54   S    
C8    C67   A    
C49   C50   A    
C18   H7    S    
C14   C15   A    
C69   C80   S    
C48   H24   S    
C21   C22   A    
C35   C46   S    
C54   C57   S    
C83   H52   S    
C71   C81   S    
C20   C31   S    
