data_mof_unit_25721.cif
_audit_creation_date              2012-12-10T17:43:37-0500
_audit_creation_method            fapswitch 2.2
_symmetry_space_group_name_H-M    P1
_symmetry_Int_Tables_number       1
_space_group_crystal_system       triclinic
_cell_length_a                    15.02784
_cell_length_b                    10.726935
_cell_length_c                    9.869609
_cell_angle_alpha                 89.082775
_cell_angle_beta                  89.634243
_cell_angle_gamma                 91.798396
_cell_volume                      1589.98207744

loop_
_atom_site_label
_atom_site_type_symbol
_atom_type_description
_atom_site_fract_x
_atom_site_fract_y
_atom_site_fract_z
_atom_type_partial_charge
C1    C     C_R   0.504876 0.259665 0.502157 0.865723
C2    C     C_R   0.907612 0.485742 0.377687 0.134599
C3    C     C_R   0.951366 0.529252 0.745868 -0.342344
C4    C     C_R   0.043677 0.529771 0.747779 0.684791
C5    C     C_R   0.091698 0.515513 0.626296 -0.161861
C6    C     C_R   0.045988 0.500241 0.502534 -0.097137
C7    C     C_R   0.092777 0.485233 0.379754 0.138299
C8    C     C_R   0.047053 0.470564 0.257547 -0.150804
C9    C     C_R   0.954646 0.471006 0.256479 -0.214017
C10   C     C_R   0.184241 0.516396 0.625342 0.620049
C11   C     C_R   0.230398 0.500678 0.502718 -0.232664
C12   C     C_R   0.326519 0.500231 0.500716 0.907855
C13   C     C_R   0.184713 0.485144 0.380950 -0.323361
C14   C     C_R   0.508333 0.105697 0.763279 -0.175263
C15   C     C_R   0.476795 0.041364 0.878720 -0.167015
C16   C     C_R   0.430793 0.927953 0.865795 -0.140317
C17   C     C_R   0.424485 0.873280 0.739062 -0.135896
C18   C     C_R   0.464033 0.932725 0.623257 0.087443
C19   C     C_R   0.493659 0.057090 0.631895 0.101557
C20   C     C_R   0.507225 0.125532 0.508138 -0.116612
C21   C     C_R   0.509300 0.064560 0.384045 -0.220861
C22   C     C_R   0.498306 0.937656 0.380616 -0.210990
C23   C     C_R   0.490624 0.738761 0.499536 0.884442
C24   C     C_R   0.478607 0.870970 0.500002 -0.123649
C25   C     C_R   0.381575 0.337866 0.144005 -0.176569
C26   C     C_R   0.322577 0.259451 0.075170 -0.215202
C27   C     C_R   0.322387 0.260144 0.934969 -0.128722
C28   C     C_R   0.381481 0.338853 0.862909 -0.079027
C29   C     C_R   0.441544 0.420415 0.929346 0.155928
C30   C     C_R   0.441595 0.420220 0.074205 0.173283
C31   C     C_R   0.555667 0.576532 0.069763 -0.126521
C32   C     C_R   0.555661 0.576473 0.926348 -0.117247
C33   C     C_R   0.673330 0.500315 0.499625 0.899033
C34   C     C_R   0.815457 0.486169 0.377619 -0.263438
C35   C     C_R   0.769118 0.500504 0.499417 -0.077440
C36   C     C_R   0.814253 0.514792 0.621848 -0.215973
C37   C     C_R   0.906175 0.514818 0.623630 0.030863
C38   C     C_R   0.953293 0.500220 0.501298 0.100102
H1    H     H_    0.780009 0.474769 0.283008 0.161409
H2    H     H_    0.546955 0.190314 0.780465 0.171431
H3    H     H_    0.486699 0.080802 0.978016 0.145109
H4    H     H_    0.402804 0.880241 0.954454 0.153057
H5    H     H_    0.388622 0.784530 0.732608 0.185859
H6    H     H_    0.507208 0.891811 0.284625 0.170617
H7    H     H_    0.601049 0.638954 0.122390 0.146012
H8    H     H_    0.377980 0.330808 0.251462 0.209314
H9    H     H_    0.277043 0.197323 0.131148 0.159340
H10   H     H_    0.276980 0.198224 0.881532 0.156587
H11   H     H_    0.378893 0.331867 0.755622 0.200527
H12   H     H_    0.778016 0.526387 0.715997 0.160624
H13   H     H_    0.601027 0.638888 0.870625 0.150697
H14   H     H_    0.915196 0.540255 0.840109 0.169016
H15   H     H_    0.220599 0.472767 0.286643 0.200751
H16   H     H_    0.082758 0.458983 0.163026 0.197843
H17   H     H_    0.920029 0.459825 0.161213 0.153885
H18   H     H_    0.520993 0.114584 0.288982 0.171052
N1    N     N_R   0.499150 0.498800 0.142780 -0.120653
N2    N     N_R   0.499120 0.498720 0.857170 -0.126436
O1    O     O_R   0.500000 0.316780 0.614690 -0.664445
O2    O     O_R   0.499990 0.316750 0.385360 -0.642451
O3    O     O_R   0.367850 0.499980 0.614680 -0.582238
O4    O     O_R   0.367840 0.499960 0.385350 -0.645979
O5    O     O_R   0.500010 0.683250 0.614640 -0.624953
O6    O     O_R   0.500000 0.683220 0.385310 -0.618935
O7    O     O_R   0.632160 0.500040 0.614650 -0.629683
O8    O     O_R   0.632150 0.500020 0.385320 -0.622758
Zn1   Zn    Zn3+2 0.500010 0.500020 0.653130 0.948782
Zn2   Zn    Zn3+2 0.499990 0.499980 0.346870 0.937061
F1    F     F_    0.085199 0.543907 0.868636 -0.627941
F2    F     F_    0.229157 0.533998 0.743067 -0.613541

loop_
_geom_bond_atom_site_label_1
_geom_bond_atom_site_label_2
_ccdc_geom_bond_type
C27   H10   S    
C2    C9    A    
C21   H18   S    
O8    Zn2   S    
C23   C24   S    
C17   H5    S    
C32   H13   S    
C29   C30   A    
C9    H17   S    
O4    Zn2   S    
C12   O4    A    
C28   H11   S    
O3    Zn1   S    
C4    F1    S    
C19   C20   A    
O7    Zn1   S    
C32   N2    A    
O5    Zn1   S    
C11   C12   S    
C16   C17   A    
C31   N1    A    
C23   O5    A    
C17   C18   A    
C33   O7    A    
C5    C10   A    
C21   C22   A    
C29   N2    A    
C12   O3    A    
C11   C13   A    
C15   H3    S    
C26   C27   A    
C37   C38   A    
C26   H9    S    
C18   C24   A    
C10   F2    S    
C1    C20   S    
C14   C19   A    
C23   O6    A    
C33   C35   S    
C33   O8    A    
C18   C19   A    
C6    C7    A    
C13   H15   S    
C1    O1    A    
C5    C6    A    
C2    C34   A    
C3    H14   S    
C22   C24   A    
C7    C8    A    
C10   C11   A    
N1    Zn2   S    
C14   H2    S    
C15   C16   A    
C30   N1    A    
O6    Zn2   S    
N2    Zn1   S    
C4    C5    A    
C36   H12   S    
C20   C21   A    
O2    Zn2   S    
C36   C37   A    
C34   C35   A    
C31   H7    S    
C1    O2    A    
C8    H16   S    
C25   C30   A    
C2    C38   A    
C14   C15   A    
C28   C29   A    
C34   H1    S    
C7    C13   A    
O1    Zn1   S    
C25   C26   A    
C16   H4    S    
C6    C38   A    
C25   H8    S    
C31   C32   A    
C22   H6    S    
C3    C4    A    
C3    C37   A    
C8    C9    A    
C27   C28   A    
C35   C36   A    
