data_mof_unit_47298.cif
_audit_creation_date              2013-03-05T15:52:26-0500
_audit_creation_method            fapswitch 2.2
_symmetry_space_group_name_H-M    P1
_symmetry_Int_Tables_number       1
_space_group_crystal_system       triclinic
_cell_length_a                    27.790822
_cell_length_b                    10.77426
_cell_length_c                    9.598878
_cell_angle_alpha                 90.813399
_cell_angle_beta                  90.182723
_cell_angle_gamma                 93.257374
_cell_volume                      2869.19353307

loop_
_atom_site_label
_atom_site_type_symbol
_atom_site_description
_atom_site_fract_x
_atom_site_fract_y
_atom_site_fract_z
_atom_type_partial_charge
O1    O     O_R   0.500000 0.319640 0.618810 -0.563864
O2    O     O_R   0.500000 0.319660 0.381240 -0.574858
C1    C     C_R   0.498161 0.262356 0.498727 0.893695
O3    O     O_R   0.430260 0.500010 0.618770 -0.577229
O4    O     O_R   0.430270 0.500030 0.381200 -0.585559
C2    C     C_R   0.407664 0.503722 0.499958 0.859698
Cu1   Cu    Cu3+1 0.500000 0.499990 0.640660 0.948729
Cu2   Cu    Cu3+1 0.500000 0.500010 0.359340 0.941696
O5    O     O_R   0.500000 0.680340 0.618760 -0.605187
O6    O     O_R   0.500000 0.680360 0.381190 -0.590856
O7    O     O_R   0.569730 0.499970 0.618800 -0.600641
O8    O     O_R   0.569740 0.499990 0.381230 -0.602848
C3    C     C_R   0.499899 0.737265 0.501079 0.753104
C4    C     C_R   0.592498 0.501008 0.500237 0.768837
C5    C     C_R   0.176283 0.403823 0.509523 0.561886
O9    O     O_2   0.199187 0.297344 0.522123 -0.542577
N1    N     N_R   0.202486 0.514434 0.497314 -0.467358
C6    C     C_R   0.180450 0.623687 0.481848 0.527831
C7    C     C_R   0.278548 0.491478 0.622549 -0.120948
C8    C     C_R   0.328647 0.488864 0.623348 -0.191977
C9    C     C_R   0.330129 0.534427 0.376501 -0.254511
C10   C     C_R   0.280042 0.537432 0.376105 -0.101781
C11   C     C_R   0.254092 0.515330 0.498893 0.358146
C12   C     C_R   0.102192 0.511678 0.493882 -0.049314
C13   C     C_R   0.125665 0.400483 0.508215 -0.091183
C14   C     C_R   0.098458 0.287817 0.515023 -0.235130
C15   C     C_R   0.129948 0.624307 0.478943 0.003825
C16   C     C_R   0.354856 0.509380 0.500013 -0.033130
H1    H     H_    0.349441 0.551137 0.280146 0.158858
H2    H     H_    0.261293 0.555626 0.280118 0.139781
H3    H     H_    0.116764 0.201900 0.512915 0.194698
C17   C     C_R   0.645550 0.503764 0.500758 -0.037060
C18   C     C_R   0.972793 0.401391 0.532368 0.057374
C19   C     C_R   0.977060 0.619648 0.457745 0.042706
C20   C     C_R   0.949653 0.510455 0.495633 0.063388
C21   C     C_R   0.944344 0.302642 0.590926 -0.141497
C22   C     C_R   0.894409 0.304278 0.595816 -0.168820
C23   C     C_R   0.871015 0.406483 0.546738 -0.019956
C24   C     C_R   0.898563 0.510796 0.498692 -0.047224
C25   C     C_R   0.874979 0.615726 0.454676 -0.019512
C26   C     C_R   0.824412 0.613301 0.456617 0.533120
N2    N     N_R   0.798321 0.510219 0.501971 -0.468581
C27   C     C_R   0.820546 0.408020 0.547356 0.540332
C28   C     C_R   0.721382 0.507517 0.627687 -0.102375
C29   C     C_R   0.671158 0.504959 0.627398 -0.219875
C30   C     C_R   0.671143 0.505988 0.374607 -0.225059
C31   C     C_R   0.721361 0.508582 0.375227 -0.102736
C32   C     C_R   0.746662 0.509083 0.501669 0.354414
O10   O     O_2   0.793857 0.307716 0.591522 -0.535382
C33   C     C_R   0.023590 0.396982 0.515539 -0.060797
C34   C     C_R   0.051121 0.510277 0.492871 0.006020
C35   C     C_R   0.028049 0.622353 0.467943 0.073564
C36   C     C_R   0.047800 0.283651 0.518116 0.478522
H4    H     H_    0.652460 0.503876 0.726235 0.165080
H5    H     H_    0.740724 0.508381 0.725839 0.143615
H6    H     H_    0.874233 0.225278 0.639704 0.190667
H7    H     H_    0.959967 0.225194 0.640092 0.187071
O11   O     O_2   0.207335 0.731300 0.469854 -0.542967
C37   C     C_R   0.106843 0.734815 0.461414 -0.151837
H8    H     H_    0.346750 0.469239 0.719979 0.156086
H9    H     H_    0.258641 0.474366 0.717806 0.137639
H10   H     H_    0.127306 0.822870 0.451541 0.185260
C38   C     C_R   0.952329 0.722815 0.411691 -0.214920
C39   C     C_R   0.902263 0.720435 0.409700 -0.140556
O12   O     O_2   0.801488 0.713474 0.414683 -0.538424
C40   C     C_R   0.056903 0.733957 0.455177 -0.215224
H11   H     H_    0.970714 0.806004 0.372895 0.153102
H12   H     H_    0.652437 0.505566 0.275431 0.165076
H13   H     H_    0.885019 0.801734 0.373374 0.191205
H14   H     H_    0.740675 0.509529 0.277412 0.143984
H15   H     H_    0.041829 0.823185 0.443994 0.141554
H16   H     H_    0.566112 0.122987 0.405711 0.148256
C41   C     C_R   0.408822 0.110627 0.568643 0.464328
C42   C     C_R   0.371293 0.039955 0.631841 -0.191504
H17   H     H_    0.337562 0.081388 0.654805 0.171037
C43   C     C_R   0.375752 0.914387 0.656414 -0.207375
H18   H     H_    0.346082 0.859616 0.701795 0.174007
C44   C     C_R   0.417134 0.857371 0.614737 -0.185391
H19   H     H_    0.417731 0.758168 0.628359 0.159564
C45   C     C_R   0.456341 0.927446 0.555818 0.045435
C46   C     C_R   0.453608 0.057431 0.542113 -0.013369
C47   C     C_R   0.494867 0.127775 0.494424 -0.103695
C48   C     C_R   0.535040 0.069111 0.444922 -0.200587
H20   H     H_    0.566995 0.896758 0.405963 0.131366
C49   C     C_R   0.535787 0.941077 0.446501 -0.194432
C50   C     C_R   0.497363 0.870591 0.503862 -0.050041
H21   H     H_    0.444962 0.358957 0.126388 0.130707
C51   C     C_R   0.564733 0.665674 0.146900 -0.148929
H22   H     H_    0.567885 0.673496 0.256906 0.193190
C52   C     C_R   0.596273 0.746639 0.075958 -0.205900
H23   H     H_    0.621042 0.809838 0.133198 0.158759
C53   C     C_R   0.596057 0.746884 0.932334 -0.199672
H24   H     H_    0.620654 0.810262 0.877222 0.160894
C54   C     C_R   0.564324 0.666090 0.858727 -0.148954
H25   H     H_    0.566978 0.673972 0.748906 0.197881
C55   C     C_R   0.531672 0.581612 0.926644 0.205643
C56   C     C_R   0.531762 0.581455 0.076236 0.213909
N3    N     N_R   0.500460 0.501210 0.147910 -0.198362
C57   C     C_R   0.469748 0.422494 0.072398 -0.065560
H26   H     H_    0.444994 0.358941 0.868000 0.145665
C58   C     C_R   0.469774 0.422498 0.924481 -0.059821
N4    N     N_R   0.500480 0.501290 0.852040 -0.201124
O13   O     O_3   0.399104 0.225595 0.517475 -0.605064
C59   C     C_3   0.379556 0.206669 0.382063 -0.311492
H27   H     H_    0.405103 0.160796 0.311479 0.154813
H28   H     H_    0.372687 0.297486 0.336039 0.188657
H29   H     H_    0.344404 0.151834 0.384806 0.182303
O14   O     O_3   0.021849 0.170574 0.497623 -0.577577
C60   C     C_3   0.036118 0.080478 0.592780 -0.372687
H30   H     H_    0.043789 0.120370 0.698851 0.163118
H31   H     H_    0.067650 0.032600 0.552409 0.177884
H32   H     H_    0.006115 0.008802 0.603101 0.195316

loop_
_geom_bond_atom_site_label_1
_geom_bond_atom_site_label_2
_geom_bond_distance
_ccdc_geom_bond_type
Cu2   N3    2.029792 S    
C58   N4    1.367708 A    
C55   N4    1.380721 A    
C26   N2    1.368572 A    
C20   C24   1.420434 A    
C7    C8    1.394178 A    
C36   O14   1.391250 S    
C12   C15   1.409757 A    
C59   H28   1.105436 S    
C56   N3    1.383047 A    
Cu1   Cu2   2.700359 S    
C49   C50   1.394139 A    
Cu1   O7    1.949858 S    
N1    C11   1.433682 S    
C42   C43   1.388978 A    
C21   C22   1.389804 A    
C43   C44   1.391479 A    
C60   H31   1.109962 S    
C37   C40   1.388468 A    
C23   C24   1.407520 A    
O7    C4    1.303779 A    
C44   C45   1.414103 A    
C5    C13   1.405150 A    
C5    O9    1.349945 S    
C18   C21   1.413229 A    
O14   C60   1.414371 S    
Cu1   O5    1.957440 S    
C19   C20   1.417244 A    
C41   C42   1.400875 A    
O5    C3    1.293073 A    
C53   H24   1.083007 S    
C45   C50   1.413476 A    
C22   H6    1.083411 S    
C6    O11   1.349710 S    
C2    C16   1.472285 S    
C31   C32   1.400510 A    
Cu1   N4    2.028857 S    
C3    C50   1.442088 S    
C8    H8    1.082983 S    
C51   C56   1.416723 A    
C12   C34   1.418514 A    
C14   H3    1.081300 S    
C9    C10   1.394162 A    
O3    Cu1   1.948837 S    
C41   C46   1.421788 A    
C59   H27   1.113925 S    
C46   C47   1.418856 A    
H21   C57   1.081878 S    
C43   H18   1.082677 S    
C38   H11   1.077841 S    
C33   C36   1.427730 A    
C42   H17   1.082902 S    
C34   C35   1.421869 A    
C12   C13   1.404538 A    
O3    C2    1.302370 A    
C21   H7    1.076369 S    
C60   H32   1.109503 S    
C4    C17   1.472969 S    
C24   C25   1.407929 A    
C44   H19   1.079702 S    
C27   O10   1.349703 S    
C26   O12   1.349661 S    
C8    C16   1.405561 A    
C33   C34   1.423109 A    
C18   C33   1.424797 A    
C9    H1    1.082966 S    
O1    C1    1.299234 A    
C7    C11   1.400064 A    
C31   H14   1.082884 S    
C30   H12   1.083045 S    
C22   C23   1.396898 A    
C52   C53   1.378665 A    
C40   H15   1.076868 S    
Cu2   O8    1.948832 S    
C55   C56   1.435930 A    
C1    C47   1.447687 S    
C53   C54   1.387818 A    
N1    C6    1.367120 A    
C17   C29   1.406164 A    
N2    C32   1.435010 S    
C39   H13   1.083427 S    
H20   C49   1.084243 S    
C54   C55   1.415494 A    
C25   C26   1.404244 A    
C48   C49   1.381097 A    
C9    C16   1.405569 A    
O8    C4    1.303577 A    
C29   H4    1.083050 S    
C47   C48   1.395266 A    
N2    C27   1.368544 A    
C14   C36   1.406407 A    
C35   C40   1.413910 A    
C28   C29   1.394459 A    
C5    N1    1.367540 A    
C30   C31   1.394288 A    
C37   H10   1.083536 S    
C10   H2    1.082832 S    
C57   C58   1.419837 A    
O1    Cu1   1.951462 S    
C17   C30   1.406095 A    
O2    Cu2   1.957440 S    
C6    C15   1.404075 A    
C51   C52   1.388073 A    
C45   C46   1.414822 A    
O6    C3    1.296314 A    
O4    Cu2   1.949861 S    
C19   C35   1.418715 A    
C25   C39   1.397424 A    
O2    C1    1.293121 A    
C13   C14   1.395616 A    
C23   C27   1.403657 A    
C15   C37   1.396468 A    
C60   H30   1.114720 S    
C28   H5    1.082878 S    
C52   H23   1.083081 S    
O4    C2    1.304559 A    
C7    H9    1.082834 S    
C19   C38   1.414975 A    
C18   C20   1.419482 A    
C54   H25   1.061240 S    
H16   C48   1.084230 S    
C38   C39   1.390217 A    
C41   O13   1.379475 S    
C51   H22   1.061044 S    
Cu2   O6    1.951462 S    
N3    C57   1.367287 A    
O13   C59   1.414779 S    
C10   C11   1.399941 A    
H26   C58   1.081929 S    
C59   H29   1.113156 S    
C28   C32   1.400613 A    
