data_mof_unit_25980.cif
_audit_creation_date              2013-03-05T15:49:19-0500
_audit_creation_method            fapswitch 2.2
_symmetry_space_group_name_H-M    P1
_symmetry_Int_Tables_number       1
_space_group_crystal_system       triclinic
_cell_length_a                    10.638705
_cell_length_b                    11.995263
_cell_length_c                    12.947797
_cell_angle_alpha                 92.538531
_cell_angle_beta                  90.772952
_cell_angle_gamma                 89.302942
_cell_volume                      1650.43862693

loop_
_atom_site_label
_atom_site_type_symbol
_atom_site_description
_atom_site_fract_x
_atom_site_fract_y
_atom_site_fract_z
_atom_type_partial_charge
O1    O     O_R   0.506170 0.421690 0.658830 -0.577739
O2    O     O_R   0.491330 0.609320 0.646410 -0.618359
C1    C     C_R   0.501373 0.521184 0.700164 1.000396
O3    O     O_R   0.690660 0.406170 0.506210 -0.623927
O4    O     O_R   0.675810 0.593790 0.493790 -0.602567
C2    C     C_R   0.739325 0.503996 0.503557 0.940950
Zn1   Zn    Zn3+2 0.509910 0.374720 0.508290 1.059193
Zn2   Zn    Zn3+2 0.490090 0.625280 0.491710 1.021204
O5    O     O_R   0.508670 0.390680 0.353590 -0.617422
O6    O     O_R   0.493830 0.578310 0.341170 -0.607955
O7    O     O_R   0.324190 0.406210 0.506210 -0.558407
O8    O     O_R   0.309340 0.593830 0.493790 -0.613958
C3    C     C_R   0.499433 0.478832 0.300097 0.913533
C4    C     C_R   0.260272 0.495723 0.493585 0.948317
C5    C     C_R   0.863431 0.505509 0.309422 -0.310332
H1    H     H_    0.766390 0.533456 0.308815 0.148371
C6    C     C_R   0.922649 0.482561 0.214576 0.351367
C7    C     C_R   0.045325 0.436667 0.214489 0.453444
C8    C     C_R   0.109279 0.422833 0.309505 0.199533
C9    C     C_R   0.057298 0.468951 0.402795 -0.131237
C10   C     C_R   0.929934 0.496803 0.403779 0.000543
C11   C     C_R   0.871460 0.513662 0.499841 -0.169277
C12   C     C_R   0.939364 0.527514 0.593117 0.201707
C13   C     C_R   0.069404 0.517214 0.590162 0.233017
C14   C     C_R   0.127000 0.486916 0.495938 -0.178626
C15   C     C_R   0.501966 0.467386 0.189581 -0.076191
C16   C     C_R   0.499062 0.532520 0.811196 -0.138979
C17   C     C_R   0.416784 0.629933 0.962064 -0.116686
C18   C     C_R   0.435284 0.623928 0.856856 -0.127313
C19   C     C_R   0.548796 0.447129 0.871301 0.305368
C20   C     C_R   0.533354 0.454382 0.977773 0.001947
C21   C     C_R   0.466604 0.546549 0.023762 0.010043
C22   C     C_R   0.450025 0.552212 0.130558 0.415749
C23   C     C_R   0.566335 0.376558 0.144015 -0.232557
C24   C     C_R   0.582769 0.370312 0.038892 -0.053478
H2    H     H_    0.608163 0.312304 0.190192 0.202898
H3    H     H_    0.361766 0.699527 0.993446 0.193827
H4    H     H_    0.636337 0.300158 0.006681 0.224493
H5    H     H_    0.394362 0.688455 0.810512 0.208174
N1    N     N_R   0.523130 0.207800 0.519340 -0.153468
N2    N     N_R   0.476870 0.792180 0.480660 -0.141977
C25   C     C_R   0.394002 0.949296 0.391976 0.227539
C26   C     C_R   0.400887 0.834095 0.406410 -0.031374
C27   C     C_R   0.548342 0.859969 0.543895 0.032306
C28   C     C_R   0.546114 0.976798 0.533872 -0.086970
C29   C     C_R   0.465411 0.022232 0.458153 -0.083352
C30   C     C_R   0.456661 0.139426 0.452955 0.041702
C31   C     C_R   0.605345 0.165437 0.588920 0.030302
C32   C     C_R   0.620258 0.049704 0.597818 0.224077
H6    H     H_    0.397501 0.177482 0.396378 0.233870
H7    H     H_    0.662653 0.222225 0.635539 0.218847
H8    H     H_    0.347275 0.777043 0.356605 0.200435
H9    H     H_    0.605486 0.821686 0.602413 0.202111
N3    N     N_R   0.876970 0.553169 0.689655 0.233850
O9    O     O_R   0.917449 0.510259 0.774653 -0.243041
O10   O     O_R   0.786656 0.627239 0.694740 -0.365896
N4    N     N_R   0.610805 0.351185 0.824397 0.191979
O11   O     O_R   0.556905 0.254315 0.823078 -0.346402
O12   O     O_R   0.723387 0.359487 0.788005 -0.330693
N5    N     N_R   0.316534 0.989390 0.309464 0.220705
O13   O     O_R   0.208682 0.943089 0.288357 -0.315817
O14   O     O_R   0.363207 0.055898 0.243533 -0.321252
N6    N     N_R   0.712860 0.008839 0.669105 0.211264
O15   O     O_R   0.732562 0.062423 0.757303 -0.273032
O16   O     O_R   0.792878 0.931682 0.638749 -0.329019
O17   O     O_3   0.860234 0.498195 0.121958 -0.728687
H10   H     H_    0.777548 0.534372 0.136002 0.342107
O18   O     O_3   0.102520 0.398970 0.123986 -0.650442
H11   H     H_    0.046912 0.412737 0.063880 0.408392
N7    N     N_R   0.205367 0.338280 0.314614 0.219031
O19   O     O_R   0.283775 0.321224 0.239236 -0.301502
O20   O     O_R   0.190539 0.259453 0.379065 -0.356398
N8    N     N_R   0.143767 0.539260 0.682077 0.221159
O21   O     O_R   0.215127 0.461143 0.718711 -0.356806
O22   O     O_R   0.136523 0.635988 0.731358 -0.318046
O23   O     O_3   0.381011 0.637436 0.178522 -0.740656
H12   H     H_    0.413989 0.708954 0.155384 0.336087

loop_
_geom_bond_atom_site_label_1
_geom_bond_atom_site_label_2
_geom_bond_distance
_ccdc_geom_bond_type
N1    C30   1.358968 A    
N6    O16   1.301306 A    
C32   N6    1.437548 S    
C16   C18   1.395509 A    
N2    C26   1.357362 A    
N8    O21   1.300671 A    
C8    C9    1.422062 A    
C28   C29   1.417241 A    
Zn1   O7    2.007132 S    
C6    O17   1.381871 S    
N5    O14   1.301212 A    
C17   C18   1.377583 A    
C7    C8    1.413049 A    
C19   C20   1.389310 A    
O7    C4    1.279382 A    
C13   N8    1.436645 S    
N4    O12   1.299528 A    
C9    C14   1.416853 A    
C7    O18   1.383284 S    
C5    H1    1.081609 S    
C2    C11   1.413570 S    
C19   N4    1.434911 S    
Zn1   O5    2.020426 S    
C23   C24   1.373266 A    
C25   C29   1.417373 A    
N1    C31   1.357713 A    
O5    C3    1.291506 A    
C22   O23   1.381166 S    
N3    O9    1.301364 A    
C27   H9    1.079883 S    
C15   C23   1.392792 A    
C31   H7    1.078809 S    
O18   H11   0.989691 S    
Zn1   N1    2.016737 S    
N7    O19   1.300133 A    
O17   H10   0.991582 S    
Zn2   N2    2.016500 S    
C10   C11   1.403725 A    
C16   C19   1.407502 A    
N8    O22   1.301118 A    
O3    Zn1   1.964871 S    
C30   H6    1.073005 S    
N3    O10   1.301036 A    
C17   C21   1.402130 A    
C24   H4    1.081907 S    
C13   C14   1.404061 A    
O3    C2    1.290359 A    
C25   N5    1.436666 S    
N5    O13   1.301263 A    
O1    C1    1.286873 A    
C15   C22   1.403050 A    
C20   C21   1.419554 A    
C28   C32   1.416869 A    
Zn2   O8    1.964868 S    
C18   H5    1.083784 S    
C6    C7    1.410285 A    
O23   H12   0.990811 S    
C31   C32   1.404989 A    
O8    C4    1.293073 A    
N2    C27   1.359781 A    
C20   C24   1.402189 A    
C3    C15   1.432025 S    
C25   C26   1.403535 A    
C27   C28   1.412994 A    
C12   N3    1.442586 S    
C5    C6    1.402667 A    
C29   C30   1.412242 A    
O1    Zn1   2.005622 S    
O2    Zn2   2.020427 S    
O6    C3    1.285758 A    
O4    Zn2   2.007132 S    
C21   C22   1.394893 A    
C1    C16   1.438537 S    
O2    C1    1.293816 A    
N4    O11   1.301345 A    
O4    C2    1.274674 A    
C17   H3    1.081237 S    
C23   H2    1.083901 S    
C4    C14   1.423894 S    
C26   H8    1.081655 S    
C12   C13   1.388356 A    
N6    O15   1.301147 A    
C5    C10   1.410757 A    
C9    C10   1.391705 A    
Zn2   O6    2.005623 S    
C11   C12   1.403457 A    
C8    N7    1.434211 S    
N7    O20   1.300932 A    
