data_mof_unit_10691.cif
_audit_creation_date              2012-12-10T17:36:21-0500
_audit_creation_method            fapswitch 2.2
_symmetry_space_group_name_H-M    P1
_symmetry_Int_Tables_number       1
_space_group_crystal_system       triclinic
_cell_length_a                    12.32876
_cell_length_b                    13.179234
_cell_length_c                    15.868145
_cell_angle_alpha                 77.915775
_cell_angle_beta                  101.093509
_cell_angle_gamma                 116.565888
_cell_volume                      2240.56601933

loop_
_atom_site_label
_atom_site_type_symbol
_atom_type_description
_atom_site_fract_x
_atom_site_fract_y
_atom_site_fract_z
_atom_type_partial_charge
C1    C     C_R   0.854860 0.286587 0.507392 0.769323
C2    C     C_R   0.228000 0.834473 0.469892 -0.046878
C3    C     C_R   0.815332 0.085309 0.563490 -0.192112
C4    C     C_R   0.999514 0.499803 0.659551 0.824690
C5    C     C_R   0.736567 0.970481 0.580462 -0.148448
C6    C     C_R   0.613230 0.932758 0.550388 -0.184620
C7    C     C_R   0.566405 0.009413 0.499243 0.078203
C8    C     C_R   0.649820 0.123757 0.473585 0.082541
C9    C     C_R   0.439778 0.976072 0.471853 0.072080
C10   C     C_R   0.400022 0.053258 0.413131 0.168218
C11   C     C_R   0.485183 0.160291 0.380750 -0.244325
C12   C     C_3   0.074170 0.438159 0.069836 -0.387879
C13   C     C_R   0.608279 0.194389 0.409332 -0.201712
C14   C     C_R   0.351031 0.868412 0.501577 -0.255054
C15   C     C_R   0.189669 0.912030 0.413421 -0.198715
C16   C     C_R   0.145075 0.713374 0.487504 0.793698
C17   C     C_R   0.772903 0.163577 0.512151 -0.101466
C18   C     C_R   0.345402 0.327516 0.636751 -0.303899
C19   C     C_R   0.760296 0.646008 0.384106 0.077751
C20   C     C_R   0.664259 0.678127 0.358920 -0.260473
C21   C     C_R   0.560485 0.623044 0.402492 -0.192720
C22   C     C_R   0.551632 0.534711 0.472374 -0.006485
C23   C     C_3   0.001125 0.502538 0.082643 0.298201
C24   C     C_R   0.652830 0.505119 0.496109 0.287113
C25   C     C_R   0.446953 0.475061 0.519712 -0.038483
C26   C     C_R   0.445943 0.387482 0.589289 0.176962
C27   C     C_R   0.545431 0.360419 0.611538 -0.282720
C28   C     C_R   0.000424 0.500156 0.340434 0.820102
C29   C     C_R   0.646655 0.418264 0.566355 -0.176873
C30   C     C_R   0.342407 0.498088 0.501496 0.020487
C31   C     C_R   0.245898 0.354430 0.615609 0.072945
C32   C     C_3   0.074221 0.439794 0.971957 -0.443078
C33   C     C_3   0.867788 0.441177 0.942183 -0.369911
C34   C     C_3   0.060149 0.627546 0.036945 -0.372423
C35   C     C_3   0.868485 0.443677 0.039433 -0.381230
C36   C     C_1   0.001264 0.500497 0.250800 -0.183363
C37   C     C_3   0.999708 0.504044 0.916408 0.326474
C38   C     C_3   0.001850 0.706973 0.882854 -0.906445
C39   C     C_3   0.060465 0.629619 0.938403 0.041191
C40   C     C_1   0.001415 0.501211 0.175107 -0.108832
C41   C     C_1   0.999150 0.501916 0.824385 -0.105783
C42   C     C_1   0.999104 0.500645 0.749023 -0.186355
C43   C     C_R   0.275372 0.021353 0.385627 -0.194783
Cu1   Cu    Cu3+1 0.098280 0.475420 0.519630 0.932749
Cu2   Cu    Cu3+1 0.901720 0.524580 0.480370 0.920938
H1    H     H_    0.033070 0.347863 0.102000 0.170114
H2    H     H_    0.557818 0.842555 0.566732 0.129700
H3    H     H_    0.770637 0.910716 0.619538 0.142220
H4    H     H_    0.034655 0.350201 0.957516 0.173538
H5    H     H_    0.670206 0.275717 0.378316 0.175819
H6    H     H_    0.167875 0.308484 0.651927 0.119941
H7    H     H_    0.545451 0.293895 0.664968 0.149183
H8    H     H_    0.343911 0.260375 0.689960 0.133430
H9    H     H_    0.335106 0.562993 0.449813 0.123891
H10   H     H_    0.840537 0.689285 0.349961 0.122632
H11   H     H_    0.488983 0.651431 0.380228 0.134808
H12   H     H_    0.169920 0.482198 0.955578 0.161244
H13   H     H_    0.670273 0.745951 0.305443 0.140450
H14   H     H_    0.718404 0.392023 0.589395 0.206095
H15   H     H_    0.808459 0.480546 0.901783 0.168020
H16   H     H_    0.827035 0.350531 0.929992 0.156801
H17   H     H_    0.822717 0.354527 0.072676 0.162355
H18   H     H_    0.815229 0.490592 0.045854 0.162376
H19   H     H_    0.157309 0.669243 0.924543 0.142867
H20   H     H_    0.155705 0.671465 0.066990 0.137691
H21   H     H_    0.003510 0.709846 0.812695 0.244670
H22   H     H_    0.906197 0.676963 0.895774 0.242219
H23   H     H_    0.169851 0.478901 0.100558 0.164640
H24   H     H_    0.054315 0.795873 0.898433 0.230383
H25   H     H_    0.009912 0.675348 0.047436 0.172661
H26   H     H_    0.094540 0.886734 0.388081 0.146291
H27   H     H_    0.456577 0.218068 0.332930 0.143716
H28   H     H_    0.244611 0.079875 0.340671 0.131413
H29   H     H_    0.374991 0.808075 0.548936 0.147888
H30   H     H_    0.909310 0.113292 0.592458 0.150800
N1    N     N_R   0.246300 0.438200 0.549400 -0.179371
N2    N     N_R   0.754300 0.561180 0.451130 -0.206059
O1    O     O_R   0.972520 0.318130 0.524690 -0.580462
O2    O     O_R   0.806530 0.359650 0.491530 -0.604410
O3    O     O_R   0.083030 0.479240 0.637150 -0.576304
O4    O     O_R   0.917040 0.520750 0.603990 -0.591310
O5    O     O_R   0.193470 0.640350 0.508470 -0.587501
O6    O     O_R   0.027480 0.681870 0.475310 -0.586917
O7    O     O_R   0.082960 0.479250 0.396010 -0.575500
O8    O     O_R   0.916970 0.520760 0.362850 -0.588623

loop_
_geom_bond_atom_site_label_1
_geom_bond_atom_site_label_2
_ccdc_geom_bond_type
C43   H28   S    
C8    C13   A    
C28   O7    A    
C41   C42   T    
C19   C20   A    
C18   C26   A    
C7    C8    A    
C27   H7    S    
C39   H19   S    
C12   H23   S    
C12   C23   S    
C26   C27   A    
C14   H29   S    
C4    O3    A    
Cu1   O5    S    
C5    C6    A    
C27   C29   A    
C23   C40   S    
C19   N2    A    
Cu1   N1    S    
C24   C29   A    
C18   H8    S    
C4    O4    A    
C29   H14   S    
C22   C25   A    
C3    H30   S    
C9    C10   A    
C34   H25   S    
C30   H9    S    
C38   H24   S    
C21   C22   A    
C12   C32   S    
C1    O1    A    
Cu2   O6    S    
C32   H12   S    
C34   H20   S    
C5    H3    S    
C6    H2    S    
C34   C39   S    
C38   H21   S    
C36   C40   T    
C12   H1    S    
C11   H27   S    
C3    C5    A    
C25   C26   A    
C16   O6    A    
C33   C37   S    
Cu2   O8    S    
C9    C14   A    
C30   N1    A    
Cu1   O3    S    
C23   C34   S    
C16   O5    A    
Cu2   O2    S    
C32   C37   S    
C20   C21   A    
C2    C15   A    
C33   H15   S    
C23   C35   S    
C1    O2    A    
C22   C24   A    
C20   H13   S    
C2    C16   S    
Cu1   Cu2   S    
C19   H10   S    
C25   C30   A    
C7    C9    A    
C10   C43   A    
Cu2   O4    S    
C31   H6    S    
Cu1   O7    S    
C21   H11   S    
Cu2   N2    S    
C6    C7    A    
C15   H26   S    
C1    C17   S    
C8    C17   A    
Cu1   O1    S    
C15   C43   A    
C37   C39   S    
C11   C13   A    
C31   N1    A    
C38   C39   S    
C4    C42   S    
C33   C35   S    
C3    C17   A    
C35   H17   S    
C37   C41   S    
C2    C14   A    
C32   H4    S    
C10   C11   A    
C13   H5    S    
C24   N2    A    
C38   H22   S    
C28   C36   S    
C33   H16   S    
C28   O8    A    
C35   H18   S    
C18   C31   A    
