data_mof_unit_65040.cif
_audit_creation_date              2012-10-26T17:44:33-0400
_audit_creation_method            fapswitch 2.2
_symmetry_space_group_name_H-M    P1
_symmetry_Int_Tables_number       1
_space_group_crystal_system       triclinic
_cell_length_a                    28.447977
_cell_length_b                    18.35513
_cell_length_c                    18.355751
_cell_angle_alpha                 89.96017
_cell_angle_beta                  130.032438
_cell_angle_gamma                 90.062957
_cell_volume                      7338.85457766

loop_
_atom_site_label
_atom_site_type_symbol
_atom_type_description
_atom_site_fract_x
_atom_site_fract_y
_atom_site_fract_z
_atom_type_partial_charge
Br1   Br    Br    0.611827 0.701382 0.748085 -0.407990
Br2   Br    Br    0.106452 0.157996 0.390631 -0.505588
Br3   Br    Br    0.359000 0.608491 0.535458 -0.452937
Br4   Br    Br    0.607621 0.655217 0.394009 -0.495921
Br5   Br    Br    0.383147 0.682567 0.296748 -0.370340
Br6   Br    Br    0.100550 0.215708 0.755432 -0.432583
Br7   Br    Br    0.883732 0.183768 0.293774 -0.374103
Br8   Br    Br    0.824600 0.886722 0.937296 -0.468685
Br9   Br    Br    0.173909 0.875205 0.075309 -0.474396
Br10  Br    Br    0.323909 0.388056 0.938147 -0.439399
Br11  Br    Br    0.674020 0.375979 0.074344 -0.473717
Br12  Br    Br    0.865969 0.115805 0.548092 -0.450782
C1    C     C_R   0.499945 0.000002 0.360044 0.548011
C2    C     C_R   0.217238 0.051670 0.258778 0.027332
C3    C     C_R   0.834972 0.424560 0.174410 -0.121682
C4    C     C_R   0.637904 0.909899 0.864046 -0.089532
C5    C     C_R   0.368661 0.877534 0.162724 -0.084013
C6    C     C_R   0.142393 0.424982 0.875869 -0.091283
C7    C     C_R   0.868418 0.379859 0.160945 -0.084220
C8    C     C_R   0.620605 0.837273 0.836975 0.106774
C9    C     C_R   0.383101 0.806401 0.198182 0.105813
C10   C     C_R   0.120345 0.353820 0.848046 0.109444
C11   C     C_R   0.883107 0.308581 0.195889 0.106053
C12   C     C_R   0.781874 0.953369 0.830292 0.119355
C13   C     C_R   0.282066 0.543824 0.732101 0.025488
C14   C     C_R   0.217517 0.947788 0.175365 0.116197
C15   C     C_R   0.281660 0.454934 0.831532 0.127026
C16   C     C_R   0.717565 0.448151 0.174927 0.116119
C17   C     C_R   0.717271 0.551257 0.259296 0.027198
C18   C     C_R   0.718175 0.044748 0.668766 0.079428
C19   C     C_R   0.281255 0.050945 0.324380 0.074533
C20   C     C_R   0.217952 0.543082 0.667192 0.080269
C21   C     C_R   0.781291 0.550531 0.324876 0.074623
C22   C     C_R   0.685822 0.999875 0.685813 -0.023198
C23   C     C_R   0.313809 0.999790 0.314116 -0.026794
C24   C     C_R   0.185685 0.500114 0.686002 -0.023402
C25   C     C_R   0.499958 0.999975 0.639859 0.549087
C26   C     C_R   0.813835 0.499792 0.314122 -0.026704
C27   C     C_R   0.717641 0.954368 0.766761 -0.041931
C28   C     C_R   0.281767 0.948281 0.239150 -0.041296
C29   C     C_R   0.217464 0.456884 0.768817 -0.044738
C30   C     C_R   0.781816 0.448693 0.238693 -0.041558
C31   C     C_R   0.823122 0.083616 0.651795 0.152737
C32   C     C_R   0.165592 0.106675 0.317344 0.156276
C33   C     C_R   0.320396 0.579121 0.645614 0.152920
C34   C     C_R   0.666096 0.605183 0.319152 0.155879
C35   C     C_R   0.854519 0.134540 0.638939 0.180595
C36   C     C_R   0.999958 0.500003 0.360056 0.549377
C37   C     C_R   0.133857 0.165228 0.318533 0.181912
C38   C     C_R   0.351192 0.628733 0.630138 0.178862
C39   C     C_R   0.634315 0.663302 0.320993 0.180994
C40   C     C_R   0.877458 0.199350 0.692902 0.123857
C41   C     C_R   0.122255 0.229185 0.266545 0.122868
C42   C     C_R   0.376181 0.693354 0.684247 0.122826
C43   C     C_R   0.622141 0.727451 0.268982 0.122649
C44   C     C_R   0.868847 0.212823 0.758537 -0.088728
C45   C     C_R   0.142278 0.234199 0.214358 -0.096613
C46   C     C_R   0.370288 0.707892 0.752770 -0.086061
C47   C     C_R   0.999953 0.499973 0.639856 0.549623
C48   C     C_R   0.641662 0.733091 0.216147 -0.096215
C49   C     C_R   0.838303 0.162354 0.771855 -0.156826
C50   C     C_R   0.172458 0.175962 0.211590 -0.164045
C51   C     C_R   0.340098 0.658852 0.768378 -0.154408
C52   C     C_R   0.671922 0.675292 0.212786 -0.163925
C53   C     C_R   0.618906 0.000026 0.618743 0.540298
C54   C     C_R   0.380962 0.999988 0.381417 0.539308
C55   C     C_R   0.118859 0.500065 0.618905 0.544366
C56   C     C_R   0.880971 0.499989 0.381419 0.540559
C57   C     C_R   0.815278 0.097747 0.718839 0.087463
C58   C     C_R   0.814133 0.999400 0.814261 -0.011239
C59   C     C_R   0.184159 0.112059 0.262545 0.078989
C60   C     C_R   0.314937 0.594502 0.715105 0.088955
C61   C     C_R   0.684186 0.611207 0.263758 0.079673
C62   C     C_1   0.499877 0.999979 0.282442 -0.044575
C63   C     C_1   0.499935 0.999955 0.717370 -0.040466
C64   C     C_1   0.999897 0.499985 0.282462 -0.044758
C65   C     C_1   0.999906 0.499948 0.717342 -0.039850
C66   C     C_1   0.499836 0.999901 0.217086 -0.036183
C67   C     C_1   0.500031 0.999938 0.782783 -0.034686
C68   C     C_1   0.999849 0.499909 0.217098 -0.036761
C69   C     C_R   0.185512 0.999540 0.185278 -0.003756
C70   C     C_1   0.000009 0.499926 0.782762 -0.032258
C71   C     C_R   0.999980 0.139935 0.999962 0.538531
C72   C     C_R   0.499955 0.639934 0.999935 0.538154
C73   C     C_R   0.881047 0.999320 0.881151 0.564660
C74   C     C_R   0.118825 0.999468 0.118698 0.571086
C75   C     C_R   0.381002 0.499207 0.881094 0.563645
C76   C     C_R   0.618834 0.499439 0.118706 0.571007
C77   C     C_R   0.000016 0.860122 0.000037 0.582455
C78   C     C_R   0.500019 0.360122 0.000040 0.582731
C79   C     C_R   0.500022 0.139681 0.000034 0.555000
C80   C     C_R   0.314008 0.499337 0.814099 -0.015959
C81   C     C_R   0.000022 0.639681 0.000033 0.554263
C82   C     C_R   0.499924 0.999874 0.139623 0.558024
C83   C     C_R   0.500056 0.999918 0.860357 0.557002
C84   C     C_R   0.999926 0.499875 0.139625 0.557958
C85   C     C_R   0.000053 0.499902 0.860354 0.559654
C86   C     C_R   0.499964 0.860305 0.999944 0.560724
C87   C     C_R   0.999970 0.360305 0.999944 0.562275
C88   C     C_1   0.999882 0.217456 0.999827 -0.044257
C89   C     C_1   0.499832 0.717454 0.999770 -0.045032
C90   C     C_R   0.635454 0.801255 0.786244 0.240842
C91   C     C_R   0.685539 0.499513 0.185299 -0.004541
C92   C     C_R   0.363247 0.780037 0.246646 0.239861
C93   C     C_R   0.130576 0.313957 0.793721 0.225523
C94   C     C_R   0.863516 0.281469 0.244429 0.240011
C95   C     C_1   0.499844 0.782766 0.999784 -0.043119
C96   C     C_1   0.999882 0.282768 0.999828 -0.043646
C97   C     C_1   0.000053 0.782571 0.000106 0.002282
C98   C     C_1   0.500056 0.282571 0.000109 0.003172
C99   C     C_1   0.500063 0.217246 0.000105 -0.010322
C100  C     C_1   0.000062 0.717246 0.000103 -0.011491
C101  C     C_R   0.667778 0.838430 0.763373 0.166358
C102  C     C_R   0.782262 0.045377 0.733728 0.026429
C103  C     C_R   0.329197 0.825382 0.259426 0.164012
C104  C     C_R   0.163040 0.345809 0.767620 0.174779
C105  C     C_R   0.829475 0.326221 0.257800 0.164320
C106  C     C_R   0.684122 0.912341 0.789925 0.041499
C107  C     C_R   0.315192 0.897438 0.223648 0.047891
C108  C     C_R   0.184036 0.418761 0.794926 0.047886
C109  C     C_R   0.815273 0.398458 0.222626 0.047628
C110  C     C_R   0.668896 0.947367 0.840067 -0.127396
C111  C     C_R   0.335155 0.922799 0.175522 -0.121399
C112  C     C_R   0.173408 0.457402 0.848909 -0.132550
Cu1   Cu    Cu3+1 0.500000 0.927480 0.500000 1.034284
Cu2   Cu    Cu3+1 0.438200 0.999990 0.938190 1.018879
Cu3   Cu    Cu3+1 0.061800 0.499990 0.061810 1.029379
Cu4   Cu    Cu3+1 0.938200 0.499990 0.938190 1.017008
Cu5   Cu    Cu3+1 0.000000 0.427480 0.500000 1.017913
Cu6   Cu    Cu3+1 0.500000 0.072500 0.500000 0.975571
Cu7   Cu    Cu3+1 1.000000 0.572500 0.500000 0.974507
Cu8   Cu    Cu3+1 0.999980 0.000040 0.072510 1.062044
Cu9   Cu    Cu3+1 0.000020 0.000040 0.927490 1.065741
Cu10  Cu    Cu3+1 0.499980 0.500040 0.072510 1.060756
Cu11  Cu    Cu3+1 0.500020 0.500040 0.927490 1.061872
Cu12  Cu    Cu3+1 0.561800 0.999990 0.061810 1.026725
H1    H     H_    0.885969 0.262744 0.799538 0.153239
H2    H     H_    0.325087 0.978040 0.148482 0.133961
H3    H     H_    0.189465 0.513007 0.870482 0.138560
H4    H     H_    0.824716 0.479929 0.147770 0.133662
H5    H     H_    0.627002 0.937644 0.903553 0.161000
H6    H     H_    0.383881 0.898064 0.125597 0.151703
H7    H     H_    0.135021 0.455679 0.918073 0.165202
H8    H     H_    0.883397 0.400943 0.123704 0.152075
H9    H     H_    0.545789 0.783555 0.799112 0.264478
H10   H     H_    0.613227 0.755404 0.902843 0.264516
H11   H     H_    0.458454 0.746075 0.251562 0.279745
H12   H     H_    0.133992 0.283346 0.175028 0.165691
H13   H     H_    0.392797 0.715267 0.147206 0.270160
H14   H     H_    0.043615 0.308743 0.814045 0.262270
H15   H     H_    0.110307 0.275882 0.915090 0.265520
H16   H     H_    0.958552 0.248755 0.248445 0.279400
H17   H     H_    0.892860 0.218088 0.144024 0.270514
H18   H     H_    0.880705 0.269652 0.611398 0.271743
H19   H     H_    0.947902 0.226967 0.696985 0.279324
H20   H     H_    0.114066 0.307161 0.335557 0.268992
H21   H     H_    0.046635 0.271796 0.238510 0.266124
H22   H     H_    0.377520 0.762734 0.600048 0.271856
H23   H     H_    0.389145 0.757598 0.794093 0.151680
H24   H     H_    0.444533 0.718505 0.682343 0.274389
H25   H     H_    0.614110 0.804850 0.338747 0.268994
H26   H     H_    0.546648 0.769225 0.242087 0.266841
H27   H     H_    0.731295 0.801253 0.755250 0.265329
H28   H     H_    0.664640 0.828459 0.650254 0.255111
H29   H     H_    0.262696 0.800818 0.266351 0.266368
H30   H     H_    0.328846 0.832035 0.369273 0.245007
H31   H     H_    0.203724 0.329359 0.707684 0.248192
H32   H     H_    0.131932 0.297401 0.645028 0.267675
H33   H     H_    0.763125 0.300668 0.264725 0.266121
H34   H     H_    0.632938 0.782397 0.176804 0.165081
H35   H     H_    0.829249 0.331674 0.367848 0.246722
H36   H     H_    0.663087 0.130802 0.589086 0.260599
H37   H     H_    0.655860 0.057708 0.524949 0.244247
H38   H     H_    0.335277 0.140356 0.392807 0.262664
H39   H     H_    0.343255 0.074326 0.465999 0.247058
H40   H     H_    0.162511 0.628024 0.584568 0.259887
H41   H     H_    0.155556 0.553211 0.523002 0.244035
H42   H     H_    0.835381 0.639750 0.394130 0.262248
H43   H     H_    0.843306 0.573173 0.466695 0.246813
H44   H     H_    0.768508 0.030316 0.525863 0.268833
H45   H     H_    0.832350 0.173709 0.823393 0.118790
H46   H     H_    0.836105 0.988237 0.611740 0.265676
H47   H     H_    0.205400 0.055596 0.442481 0.268195
H48   H     H_    0.137521 0.019207 0.347714 0.268847
H49   H     H_    0.262929 0.525970 0.519918 0.269310
H50   H     H_    0.330421 0.482758 0.603476 0.265555
H51   H     H_    0.706591 0.553677 0.444261 0.268258
H52   H     H_    0.638702 0.517114 0.349738 0.268615
H53   H     H_    0.187042 0.180728 0.169899 0.128653
H54   H     H_    0.336071 0.671136 0.821881 0.116199
H55   H     H_    0.686117 0.680538 0.170610 0.127346
H56   H     H_    0.681402 0.003859 0.861064 0.137085
N1    N     N_3   0.587995 0.801145 0.861765 -0.615304
N2    N     N_3   0.310515 0.798243 0.310671 -0.539006
N3    N     N_3   0.173873 0.303191 0.713906 -0.530555
N4    N     N_3   0.810946 0.298271 0.308936 -0.537886
N5    N     N_3   0.686830 0.089746 0.585298 -0.600685
N6    N     N_3   0.312105 0.102153 0.401723 -0.599371
N7    N     N_3   0.186437 0.586306 0.582208 -0.600712
N8    N     N_3   0.812166 0.601315 0.402682 -0.599723
N9    N     N_3   0.799585 0.017198 0.598207 -0.592752
N10   N     N_3   0.178916 0.041545 0.370717 -0.589072
N11   N     N_3   0.295026 0.512790 0.592147 -0.591979
N12   N     N_3   0.418300 0.761993 0.184710 -0.619235
N13   N     N_3   0.679906 0.539827 0.372401 -0.589112
N14   N     N_3   0.087562 0.323130 0.875635 -0.613995
N15   N     N_3   0.918276 0.264786 0.181799 -0.619611
N16   N     N_3   0.909669 0.252225 0.682207 -0.615477
N17   N     N_3   0.090098 0.289652 0.265539 -0.607667
N18   N     N_3   0.407706 0.744992 0.670708 -0.612908
N19   N     N_3   0.589909 0.787488 0.268612 -0.608167
N20   N     N_3   0.683580 0.800619 0.713393 -0.537759
O1    O     O_R   0.500010 0.938760 0.394210 -0.495069
O2    O     O_R   0.552210 1.000000 0.946390 -0.508477
O3    O     O_R   0.947790 0.500000 0.053610 -0.506954
O4    O     O_R   0.052210 0.500000 0.946390 -0.506698
O5    O     O_R   0.552190 0.894190 0.052180 -0.503516
O6    O     O_R   0.447810 0.894190 0.947820 -0.509115
O7    O     O_R   0.052190 0.394190 0.052180 -0.500685
O8    O     O_R   0.947810 0.394190 0.947820 -0.509884
O9    O     O_R   0.499990 0.061230 0.394210 -0.501211
O10   O     O_R   0.500010 0.061230 0.605790 -0.502837
O11   O     O_R   0.999990 0.561230 0.394210 -0.500817
O12   O     O_R   0.499990 0.938760 0.605790 -0.494276
O13   O     O_R   0.000010 0.561230 0.605790 -0.502528
O14   O     O_R   0.590180 0.938760 0.590180 -0.511086
O15   O     O_R   0.409820 0.938760 0.409820 -0.511362
O16   O     O_R   0.090180 0.438760 0.590180 -0.516309
O17   O     O_R   0.909820 0.438760 0.409820 -0.510351
O18   O     O_R   0.590160 0.061230 0.590180 -0.516020
O19   O     O_R   0.409840 0.061230 0.409820 -0.516550
O20   O     O_R   0.090160 0.561230 0.590180 -0.515432
O21   O     O_R   0.909840 0.561230 0.409820 -0.516173
O22   O     O_R   0.999970 0.105830 0.061210 -0.505742
O23   O     O_R   0.000010 0.438760 0.394210 -0.495542
O24   O     O_R   0.000030 0.105830 0.938790 -0.506391
O25   O     O_R   0.499970 0.605830 0.061210 -0.505403
O26   O     O_R   0.500030 0.605830 0.938790 -0.508051
O27   O     O_R   0.909810 0.000030 0.971060 -0.465001
O28   O     O_R   0.090190 0.000030 0.028940 -0.466931
O29   O     O_R   0.409810 0.500030 0.971060 -0.466891
O30   O     O_R   0.590190 0.500030 0.028940 -0.467732
O31   O     O_R   0.909820 0.000000 0.848600 -0.515100
O32   O     O_R   0.090180 1.000000 0.151400 -0.513003
O33   O     O_R   0.409820 0.500000 0.848600 -0.514397
O34   O     O_R   0.999990 0.438760 0.605790 -0.495588
O35   O     O_R   0.590180 0.500000 0.151400 -0.512709
O36   O     O_R   0.000000 0.894230 0.061260 -0.484676
O37   O     O_R   0.000000 0.894230 0.938740 -0.484048
O38   O     O_R   0.500000 0.394230 0.061260 -0.485283
O39   O     O_R   0.500000 0.394230 0.938740 -0.483321
O40   O     O_R   0.552180 0.105790 0.052210 -0.493336
O41   O     O_R   0.447820 0.105790 0.947790 -0.493786
O42   O     O_R   0.052180 0.605790 0.052210 -0.493373
O43   O     O_R   0.947820 0.605790 0.947790 -0.495473
O44   O     O_R   0.552180 0.999990 0.157990 -0.492653
O45   O     O_R   0.447820 0.999990 0.842010 -0.498298
O46   O     O_R   0.052180 0.499990 0.157990 -0.492092
O47   O     O_R   0.947820 0.499990 0.842010 -0.498857
O48   O     O_R   0.447790 1.000000 0.053610 -0.506371

loop_
_geom_bond_atom_site_label_1
_geom_bond_atom_site_label_2
_ccdc_geom_bond_type
Br10  C15   S    
C89   C95   T    
C34   N13   S    
C51   H54   S    
H22   N18   S    
C7    H8    S    
C77   C97   S    
Cu8   O22   S    
H46   N9    S    
C18   C102  A    
C2    C59   S    
Cu11  O33   S    
H16   N15   S    
C72   O25   A    
C2    C19   A    
H29   N2    S    
C47   C65   S    
C24   C55   S    
Cu3   O7    S    
C45   C50   A    
H39   N6    S    
Cu7   O21   S    
C3    C7    A    
C87   C96   S    
C78   O38   A    
C111  H2    S    
C17   C91   A    
C81   C100  S    
C38   C42   A    
C84   O3    A    
C77   O37   A    
C53   O18   A    
Cu5   O23   S    
C65   C70   T    
Cu11  O30   S    
H11   N12   S    
Cu8   O27   S    
C66   C82   S    
C25   O10   A    
C26   C30   A    
C20   N7    S    
C46   H23   S    
C76   O30   A    
Cu3   O4    S    
C75   O29   A    
C8    C90   A    
H43   N8    S    
C26   C56   S    
C79   C99   S    
Cu3   O42   S    
C41   N17   S    
Cu5   O17   S    
C73   O31   A    
Cu4   O43   S    
Cu10  O25   S    
C10   N14   S    
C32   C59   A    
C106  C110  A    
C1    O1    A    
C36   C64   S    
C98   C99   T    
C105  C109  A    
C93   C104  A    
H17   N15   S    
C104  N3    S    
Cu1   O1    S    
Cu1   Cu6   S    
C5    C111  A    
C82   O48   A    
C17   C21   A    
Cu8   Cu9   S    
C85   O4    A    
C54   O15   A    
C31   N9    S    
C74   O28   A    
C52   C61   A    
Cu9   O28   S    
Br1   C90   S    
H33   N4    S    
Cu4   O8    S    
H9    N1    S    
C69   C74   S    
C4    C8    A    
Cu5   O34   S    
Cu11  O26   S    
C13   C20   A    
C25   C63   S    
Br5   C92   S    
Cu2   Cu12  S    
C31   C57   A    
C40   N16   S    
C43   C48   A    
C33   C60   A    
C32   N10   S    
C72   C89   S    
C9    C92   A    
C9    N12   S    
C24   C29   A    
Br12  C35   S    
C15   C80   A    
C22   C53   S    
Br3   C38   S    
Cu8   O32   S    
Br9   C14   S    
C75   O33   A    
C50   H53   S    
Cu12  O2    S    
C79   O40   A    
C57   C102  S    
H52   N13   S    
C88   C96   T    
H38   N6    S    
C18   C22   A    
Br4   C39   S    
H37   N5    S    
C22   C27   A    
H35   N4    S    
Cu4   O47   S    
H30   N2    S    
C53   O14   A    
Cu6   O10   S    
H48   N10   S    
H14   N14   S    
H44   N9    S    
C97   C100  T    
Cu11  O39   S    
C41   C45   A    
C81   O42   A    
Cu8   O36   S    
C40   C44   A    
Cu12  O5    S    
C79   O41   A    
C23   C54   S    
C112  H3    S    
C34   C39   A    
H32   N3    S    
C32   C37   A    
C58   C102  A    
C86   C95   S    
C104  C108  A    
C5    H6    S    
C73   O27   A    
Cu9   O24   S    
C7    C11   A    
Cu10  O29   S    
C67   C83   S    
Br2   C37   S    
C82   O44   A    
C92   C103  A    
H25   N19   S    
C15   C29   A    
H13   N12   S    
C71   O22   A    
C33   N11   S    
C55   O16   A    
H51   N13   S    
C81   O43   A    
Br7   C94   S    
H36   N5    S    
C44   C49   A    
C13   C60   S    
H21   N17   S    
C51   C60   A    
H10   N1    S    
C4    C110  A    
C8    N1    S    
Cu10  Cu11  S    
C84   O46   A    
C71   O24   A    
C103  N2    S    
C87   O7    A    
C55   O20   A    
H19   N16   S    
C14   C69   A    
C103  C107  A    
C71   C88   S    
C86   O6    A    
C94   C105  A    
H41   N7    S    
C70   C85   S    
C19   C23   A    
C45   H12   S    
Cu10  O38   S    
C68   C84   S    
C78   C98   S    
H40   N7    S    
Cu3   Cu4   S    
C10   C93   A    
Cu9   O37   S    
Cu10  O35   S    
Br11  C16   S    
C76   C91   S    
C56   O17   A    
C85   O47   A    
C3    H4    S    
C42   C46   A    
Cu1   O12   S    
C49   C57   A    
C46   C51   A    
C83   O45   A    
H42   N8    S    
C6    H7    S    
C13   C80   A    
C3    C109  A    
Cu2   O45   S    
C11   N15   S    
H20   N17   S    
C6    C10   A    
H47   N10   S    
H31   N3    S    
Cu12  O44   S    
Cu6   O9    S    
C72   O26   A    
C64   C68   T    
C101  N20   S    
C1    O9    A    
C52   H55   S    
H27   N20   S    
C20   C24   A    
Cu7   O20   S    
C110  H56   S    
C35   C40   A    
C36   O11   A    
C107  C111  A    
C27   C106  S    
H24   N18   S    
C78   O39   A    
C62   C66   T    
C49   H45   S    
C21   C26   A    
C21   N8    S    
C77   O36   A    
Cu2   O48   S    
C48   C52   A    
C48   H34   S    
H49   N11   S    
Cu7   O13   S    
C23   C28   A    
C105  N4    S    
Cu1   O15   S    
Cu9   O31   S    
C76   O35   A    
C33   C38   A    
C44   H1    S    
C11   C94   A    
C16   C91   A    
C14   C28   A    
C12   C58   A    
C63   C67   T    
Cu6   O19   S    
H28   N20   S    
C37   C41   A    
C54   O19   A    
Cu5   O16   S    
C16   C30   A    
Cu2   O41   S    
Br8   C12   S    
Br6   C93   S    
Cu3   O46   S    
C50   C59   A    
C4    H5    S    
C47   O34   A    
C39   C43   A    
C19   N6    S    
H15   N14   S    
C47   O13   A    
C5    C9    A    
C25   O12   A    
C36   O23   A    
C56   O21   A    
Cu4   O3    S    
C43   N19   S    
C101  C106  A    
C108  C112  A    
C42   N18   S    
C18   N5    S    
C17   C61   S    
C87   O8    A    
C30   C109  S    
C74   O32   A    
C28   C107  S    
H26   N19   S    
C86   O5    A    
H50   N11   S    
C90   C101  A    
C83   O2    A    
Cu6   O18   S    
Cu1   O14   S    
Cu12  O40   S    
Cu7   O11   S    
C2    C69   A    
C75   C80   S    
C58   C73   S    
C31   C35   A    
C12   C27   A    
C34   C61   A    
H18   N16   S    
Cu2   O6    S    
C29   C108  S    
C6    C112  A    
C1    C62   S    
Cu5   Cu7   S    
