data_mof_unit_47831.cif
_audit_creation_date              2012-12-10T19:44:33-0500
_audit_creation_method            fapswitch 2.2
_symmetry_space_group_name_H-M    P1
_symmetry_Int_Tables_number       1
_space_group_crystal_system       triclinic
_cell_length_a                    8.594605
_cell_length_b                    14.966438
_cell_length_c                    14.229544
_cell_angle_alpha                 90.039364
_cell_angle_beta                  98.522253
_cell_angle_gamma                 90.306302
_cell_volume                      1810.11713329

loop_
_atom_site_label
_atom_site_type_symbol
_atom_type_description
_atom_site_fract_x
_atom_site_fract_y
_atom_site_fract_z
_atom_type_partial_charge
C1    C     C_R   0.500769 0.327390 0.499714 0.895983
C2    C     C_R   0.501254 0.671529 0.500195 0.808548
C3    C     C_R   0.358292 0.470455 0.094769 -0.084467
C4    C     C_R   0.534679 0.584490 0.895370 -0.088346
C5    C     C_R   0.373661 0.464231 0.195309 -0.043697
C6    C     C_R   0.546092 0.576111 0.797117 -0.038745
C7    C     C_R   0.615316 0.542472 0.212198 0.519324
C8    C     C_R   0.443459 0.429458 0.794277 0.514073
C9    C     C_R   0.613341 0.542084 0.113550 -0.274844
C10   C     C_R   0.445383 0.431436 0.892847 -0.271701
C11   C     C_R   0.483708 0.508103 0.052156 -0.024602
C12   C     C_R   0.486549 0.509311 0.945593 -0.029559
C13   C     C_R   0.201259 0.498962 0.475229 0.983694
C14   C     C_R   0.798827 0.499594 0.524842 0.945044
C15   C     C_2   0.036359 0.495890 0.462091 -0.283085
C16   C     C_2   0.963937 0.500184 0.538289 -0.352213
C17   C     C_R   0.607087 0.091306 0.566516 -0.103746
C18   C     C_R   0.398724 0.909230 0.464799 -0.065882
C19   C     C_R   0.597424 0.183332 0.573048 -0.056695
C20   C     C_R   0.382012 0.817672 0.468296 -0.084227
C21   C     C_R   0.508785 0.230248 0.497100 -0.149097
C22   C     C_R   0.515433 0.766766 0.501127 -0.182893
C23   C     C_R   0.439823 0.184414 0.413154 -0.040471
C24   C     C_R   0.666314 0.805702 0.525279 -0.013479
C25   C     C_R   0.472777 0.093393 0.402749 -0.069832
C26   C     C_R   0.683423 0.898726 0.514296 -0.022104
C27   C     C_R   0.549995 0.046953 0.482193 -0.048407
C28   C     C_R   0.546993 0.949552 0.484596 -0.070323
H1    H     H_    0.975130 0.489594 0.389915 0.221593
H2    H     H_    0.025482 0.505322 0.610646 0.193715
H3    H     H_    0.663130 0.053501 0.627095 0.198347
H4    H     H_    0.295025 0.950120 0.445757 0.201116
H5    H     H_    0.280208 0.434723 0.228391 0.208626
H6    H     H_    0.585021 0.632456 0.758991 0.191883
H7    H     H_    0.711823 0.571294 0.084870 0.188721
H8    H     H_    0.408848 0.372280 0.927756 0.195323
N1    N     N_R   0.500000 0.499980 0.252470 -0.150378
N2    N     N_R   0.500000 0.500020 0.747530 -0.150919
O1    O     O_R   0.500010 0.369070 0.579480 -0.583039
O2    O     O_R   0.499990 0.630930 0.420520 -0.571244
O3    O     O_R   0.500010 0.369060 0.420520 -0.622915
O4    O     O_R   0.499990 0.630940 0.579480 -0.642749
O5    O     O_R   0.271750 0.500000 0.560890 -0.593595
O6    O     O_R   0.728250 0.500000 0.439110 -0.568687
O7    O     O_R   0.271750 0.499990 0.401930 -0.618093
O8    O     O_R   0.728250 0.500010 0.598070 -0.642439
Zn1   Zn    Zn3+2 0.500000 0.500010 0.606140 0.996365
Zn2   Zn    Zn3+2 0.500000 0.499990 0.393860 1.022545
C29   C     C_2   0.688447 0.227988 0.657486 0.521626
H9    H     H_    0.731151 0.295896 0.653358 0.073521
O9    O     O_2   0.720653 0.188224 0.732731 -0.504017
C30   C     C_2   0.225342 0.776236 0.436247 0.562143
H10   H     H_    0.204335 0.706078 0.449093 0.061281
O10   O     O_2   0.117846 0.819981 0.393514 -0.500359
C31   C     C_2   0.333000 0.230868 0.336877 0.538295
H11   H     H_    0.349337 0.224103 0.263077 0.105956
O11   O     O_2   0.224532 0.276338 0.356327 -0.557896
C32   C     C_2   0.803097 0.746984 0.557804 0.525716
H12   H     H_    0.791204 0.692560 0.606558 0.043168
O12   O     O_2   0.927371 0.755977 0.527233 -0.519002
C33   C     C_2   0.426397 0.044213 0.311359 0.375392
H13   H     H_    0.498776 0.989430 0.293234 0.113067
O13   O     O_2   0.304876 0.060593 0.258333 -0.529557
C34   C     C_2   0.839460 0.944248 0.533341 0.507238
H14   H     H_    0.863659 0.001266 0.490578 0.067840
O14   O     O_2   0.938572 0.921980 0.599565 -0.503094
C35   C     C_2   0.207211 0.443217 0.037062 0.430603
H15   H     H_    0.180000 0.462685 0.963113 0.087166
O15   O     O_2   0.109557 0.399748 0.071922 -0.529198
C36   C     C_2   0.563025 0.673250 0.941515 0.435150
H16   H     H_    0.525915 0.686456 0.009722 0.097414
O16   O     O_2   0.626227 0.733538 0.903093 -0.528832
Cl1   Cl    Cl    0.761369 0.607121 0.280173 -0.567743
Cl2   Cl    Cl    0.351148 0.336771 0.734071 -0.548303

loop_
_geom_bond_atom_site_label_1
_geom_bond_atom_site_label_2
_ccdc_geom_bond_type
C2    C22   S    
O6    Zn2   S    
C11   C12   S    
C6    N2    A    
C26   C34   S    
C1    C21   S    
C36   H16   S    
C5    N1    A    
C25   C27   A    
C19   C29   S    
C26   C28   A    
C13   C15   S    
C31   H11   S    
C3    C11   A    
C6    H6    S    
C34   H14   S    
C7    Cl1   S    
C27   C28   S    
C4    C36   S    
C7    N1    A    
C3    C5    A    
C20   C30   S    
C25   C33   S    
N1    Zn2   S    
C23   C31   S    
C9    C11   A    
C24   C26   A    
C5    H5    S    
N2    Zn1   S    
C18   H4    S    
C10   C12   A    
C8    N2    A    
C2    O4    A    
C8    C10   A    
C19   C21   A    
O3    Zn2   S    
C30   O10   D    
C15   H1    S    
C32   O12   D    
C22   C24   A    
O4    Zn1   S    
C31   O11   D    
C21   C23   A    
C33   H13   S    
C17   H3    S    
C14   C16   S    
C4    C6    A    
C4    C12   A    
C1    O1    A    
C16   H2    S    
C35   H15   S    
C17   C27   A    
C24   C32   S    
C2    O2    A    
C13   O5    A    
C23   C25   A    
C18   C28   A    
C30   H10   S    
C13   O7    A    
C18   C20   A    
C14   O6    A    
C29   H9    S    
O7    Zn2   S    
C1    O3    A    
C8    Cl2   S    
C9    H7    S    
C29   O9    D    
C7    C9    A    
O2    Zn2   S    
C17   C19   A    
C10   H8    S    
C35   O15   D    
C32   H12   S    
O8    Zn1   S    
O1    Zn1   S    
O5    Zn1   S    
C36   O16   D    
C33   O13   D    
C3    C35   S    
C15   C16   D    
C20   C22   A    
C14   O8    A    
C34   O14   D    
