data_mof_unit_60928.cif
_audit_creation_date              2012-12-10T18:46:35-0500
_audit_creation_method            fapswitch 2.2
_symmetry_space_group_name_H-M    P1
_symmetry_Int_Tables_number       1
_space_group_crystal_system       triclinic
_cell_length_a                    38.761547
_cell_length_b                    38.761484
_cell_length_c                    38.761645
_cell_angle_alpha                 89.999257
_cell_angle_beta                  89.999646
_cell_angle_gamma                 90.00056
_cell_volume                      58237.6305801

loop_
_atom_site_label
_atom_site_type_symbol
_atom_type_description
_atom_site_fract_x
_atom_site_fract_y
_atom_site_fract_z
_atom_type_partial_charge
C1    C     C_R   0.999999 0.500001 0.567204 0.841874
C2    C     C_R   0.500000 1.000000 0.567203 0.841812
C3    C     C_R   0.518053 0.025458 0.159088 -0.188891
C4    C     C_R   0.481953 0.159088 0.025462 -0.188897
C5    C     C_R   0.481929 0.025442 0.840910 -0.188979
C6    C     C_R   0.481950 0.840912 0.974537 -0.188892
C7    C     C_R   0.481944 0.974545 0.159090 -0.188892
C8    C     C_R   0.840911 0.974544 0.481947 -0.188906
C9    C     C_R   0.974544 0.159089 0.481944 -0.188898
C10   C     C_R   0.159089 0.025456 0.481946 -0.188900
C11   C     C_R   0.025459 0.840911 0.481950 -0.188883
C12   C     C_R   0.159088 0.974537 0.518049 -0.188884
C13   C     C_R   0.567203 0.000000 0.500000 0.841797
C14   C     C_R   0.025456 0.159089 0.518054 -0.188907
C15   C     C_R   0.840912 0.025459 0.518053 -0.188898
C16   C     C_R   0.974545 0.840910 0.518058 -0.188901
C17   C     C_R   0.974540 0.518049 0.159088 -0.188894
C18   C     C_R   0.159089 0.518056 0.025457 -0.188887
C19   C     C_R   0.025448 0.518062 0.840911 -0.188894
C20   C     C_R   0.840911 0.518052 0.974542 -0.188899
C21   C     C_R   0.974524 0.481967 0.840914 -0.188890
C22   C     C_R   0.159089 0.481945 0.974545 -0.188905
C23   C     C_R   0.025459 0.481949 0.159088 -0.188889
C24   C     C_R   0.500000 0.000000 0.432797 0.841775
C25   C     C_R   0.840911 0.481943 0.025456 -0.188888
C26   C     C_R   0.000001 0.322787 0.499998 0.003725
C27   C     C_R   1.000000 0.499999 0.322786 0.003715
C28   C     C_R   0.000001 0.677212 0.500003 0.003723
C29   C     C_R   0.999978 0.500026 0.677215 0.003797
C30   C     C_R   0.322787 0.500002 0.000000 0.003725
C31   C     C_R   0.499998 0.677213 0.999998 0.003726
C32   C     C_R   0.677213 0.499996 0.999997 0.003719
C33   C     C_R   0.500005 0.322787 0.000003 0.003719
C34   C     C_R   0.499999 0.999997 0.677213 0.003736
C35   C     C_R   0.500000 0.000000 0.067203 0.841788
C36   C     C_R   0.677213 0.000001 0.500001 0.003723
C37   C     C_R   0.499998 0.000002 0.322787 0.003705
C38   C     C_R   0.322787 0.999997 0.499999 0.003724
C39   C     C_R   0.499999 0.822787 0.999997 0.003725
C40   C     C_R   0.499998 0.999996 0.822786 0.003768
C41   C     C_R   0.500003 0.177213 0.000002 0.003723
C42   C     C_R   0.499998 0.000002 0.177213 0.003717
C43   C     C_R   0.822787 0.000002 0.500000 0.003725
C44   C     C_R   0.000000 0.177213 0.499999 0.003726
C45   C     C_R   0.177213 0.999996 0.499997 0.003719
C46   C     C_R   0.500000 0.932797 1.000000 0.841821
C47   C     C_R   0.000002 0.822786 0.500004 0.003719
C48   C     C_R   1.000000 0.499999 0.177213 0.003717
C49   C     C_R   0.177213 0.500001 0.000001 0.003720
C50   C     C_R   0.999982 0.500019 0.822788 0.003714
C51   C     C_R   0.822787 0.499997 0.999998 0.003720
C52   C     C_R   0.999999 0.395160 0.499999 -0.105102
C53   C     C_R   0.000000 0.500000 0.395159 -0.105115
C54   C     C_R   0.000001 0.604840 0.500001 -0.105087
C55   C     C_R   0.999996 0.500008 0.604842 -0.105111
C56   C     C_R   0.395159 0.500001 0.000000 -0.105102
C57   C     C_R   0.500000 1.000000 0.932796 0.841838
C58   C     C_R   0.499999 0.604841 0.999999 -0.105103
C59   C     C_R   0.604840 0.499999 0.999999 -0.105107
C60   C     C_R   0.500002 0.395159 0.000001 -0.105107
C61   C     C_R   0.500000 0.999999 0.604840 -0.105091
C62   C     C_R   0.604841 0.000000 0.500000 -0.105106
C63   C     C_R   0.499999 0.000001 0.395160 -0.105116
C64   C     C_R   0.395159 0.999999 0.500000 -0.105108
C65   C     C_R   0.500000 0.895160 0.999999 -0.105100
C66   C     C_R   0.500000 0.999999 0.895159 -0.105084
C67   C     C_R   0.500000 0.104840 0.000000 -0.105104
C68   C     C_R   0.500000 0.067203 0.000000 0.841822
C69   C     C_R   0.500000 0.000001 0.104841 -0.105114
C70   C     C_R   0.895159 0.000001 0.500000 -0.105102
C71   C     C_R   1.000000 0.104841 0.500000 -0.105106
C72   C     C_R   0.104840 0.999998 0.499999 -0.105106
C73   C     C_R   0.000001 0.895159 0.500001 -0.105112
C74   C     C_R   1.000000 0.499999 0.104840 -0.105104
C75   C     C_R   0.104841 0.500000 0.000001 -0.105109
C76   C     C_R   0.999996 0.500003 0.895160 -0.105096
C77   C     C_R   0.895159 0.499999 1.000000 -0.105110
C78   C     C_R   0.000001 0.215085 0.499998 0.312404
C79   C     C_R   1.000000 0.932797 0.500000 0.841789
C80   C     C_R   1.000000 0.499999 0.215084 0.312407
C81   C     C_R   0.000002 0.784915 0.500005 0.312402
C82   C     C_R   0.999977 0.500026 0.784917 0.312414
C83   C     C_R   0.215085 0.500001 0.000001 0.312407
C84   C     C_R   0.499999 0.784915 0.999997 0.312405
C85   C     C_R   0.784915 0.499996 0.999997 0.312406
C86   C     C_R   0.500005 0.215084 0.000003 0.312403
C87   C     C_R   0.499998 0.999995 0.784915 0.312408
C88   C     C_R   0.784915 0.000002 0.500000 0.312406
C89   C     C_R   0.499998 0.000002 0.215085 0.312405
C90   C     C_R   0.932797 0.000000 0.500000 0.841802
C91   C     C_R   0.215085 0.999995 0.499997 0.312406
C92   C     C_R   0.499998 0.715085 0.999998 0.312406
C93   C     C_R   0.499999 0.999996 0.715084 0.312410
C94   C     C_R   0.500006 0.284915 0.000004 0.312405
C95   C     C_R   0.499998 0.000003 0.284915 0.312405
C96   C     C_R   0.715085 0.000002 0.500001 0.312406
C97   C     C_R   0.000001 0.284916 0.499998 0.312402
C98   C     C_R   0.284915 0.999996 0.499998 0.312405
C99   C     C_R   0.000002 0.715084 0.500004 0.312403
C100  C     C_R   1.000000 0.499999 0.284915 0.312407
C101  C     C_R   0.000000 0.067203 0.500000 0.841799
C102  C     C_R   0.284915 0.500002 0.000000 0.312407
C103  C     C_R   0.999973 0.500030 0.715086 0.312410
C104  C     C_R   0.715085 0.499995 0.999996 0.312406
C105  C     C_3   0.036864 0.394668 0.555451 -0.416187
C106  C     C_3   0.075761 0.394719 0.549415 -0.808372
C107  C     C_3   0.036895 0.444566 0.394667 -0.416233
C108  C     C_3   0.075789 0.450616 0.394703 -0.808403
C109  C     C_3   0.036865 0.605334 0.444547 -0.416242
C110  C     C_3   0.075763 0.605300 0.450576 -0.808389
C111  C     C_3   0.036956 0.555400 0.605331 -0.416157
C112  C     C_R   1.000000 0.432797 0.500000 0.841859
C113  C     C_R   0.067203 1.000000 0.500000 0.841792
C114  C     C_3   0.075843 0.549295 0.605281 -0.808346
C115  C     C_3   0.963149 0.605327 0.555462 -0.416196
C116  C     C_3   0.924251 0.605276 0.549436 -0.808386
C117  C     C_3   0.963104 0.555432 0.394665 -0.416231
C118  C     C_3   0.924210 0.549379 0.394704 -0.808378
C119  C     C_3   0.963128 0.394669 0.444551 -0.416235
C120  C     C_3   0.924231 0.394704 0.450586 -0.808385
C121  C     C_3   0.963017 0.444631 0.605342 -0.415891
C122  C     C_3   0.924138 0.450809 0.605189 -0.808081
C123  C     C_3   0.394666 0.444564 0.963111 -0.416213
C124  C     C_R   0.932797 0.500000 0.000000 0.841784
C125  C     C_3   0.394712 0.450616 0.924217 -0.808366
C126  C     C_3   0.444562 0.605332 0.963111 -0.416220
C127  C     C_3   0.450610 0.605291 0.924216 -0.808393
C128  C     C_3   0.605335 0.555438 0.963112 -0.416213
C129  C     C_3   0.605290 0.549389 0.924217 -0.808369
C130  C     C_3   0.555442 0.394669 0.963116 -0.416233
C131  C     C_3   0.549399 0.394703 0.924220 -0.808388
C132  C     C_3   0.605331 0.444558 0.036884 -0.416233
C133  C     C_3   0.605297 0.450599 0.075780 -0.808389
C134  C     C_3   0.555436 0.605334 0.036889 -0.416214
C135  C     C_R   0.000000 0.500000 0.067203 0.841793
C136  C     C_3   0.549383 0.605289 0.075784 -0.808367
C137  C     C_3   0.394668 0.555439 0.036888 -0.416220
C138  C     C_3   0.394709 0.549391 0.075783 -0.808391
C139  C     C_3   0.444563 0.394665 0.036888 -0.416216
C140  C     C_3   0.450613 0.394709 0.075783 -0.808367
C141  C     C_3   0.444564 0.036890 0.605333 -0.416206
C142  C     C_3   0.450620 0.075784 0.605284 -0.808353
C143  C     C_3   0.605332 0.036889 0.555438 -0.416218
C144  C     C_3   0.605293 0.075784 0.549390 -0.808390
C145  C     C_3   0.555446 0.036877 0.394666 -0.416215
C146  C     C_R   0.067203 0.500000 0.000000 0.841792
C147  C     C_3   0.549413 0.075775 0.394694 -0.808427
C148  C     C_3   0.394667 0.036892 0.444564 -0.416210
C149  C     C_3   0.394712 0.075786 0.450618 -0.808352
C150  C     C_3   0.444553 0.963124 0.394668 -0.416249
C151  C     C_3   0.450585 0.924227 0.394694 -0.808400
C152  C     C_3   0.605334 0.963111 0.444564 -0.416207
C153  C     C_3   0.605288 0.924217 0.450616 -0.808356
C154  C     C_3   0.555435 0.963108 0.605333 -0.416210
C155  C     C_3   0.549381 0.924213 0.605284 -0.808343
C156  C     C_3   0.394666 0.963108 0.555436 -0.416212
C157  C     C_R   1.000000 0.500000 0.932797 0.841795
C158  C     C_3   0.394708 0.924213 0.549386 -0.808382
C159  C     C_3   0.536881 0.894666 0.055441 -0.416212
C160  C     C_3   0.575776 0.894711 0.049394 -0.808357
C161  C     C_3   0.536920 0.944581 0.894667 -0.416166
C162  C     C_3   0.575810 0.950665 0.894731 -0.808338
C163  C     C_3   0.536878 0.105333 0.944555 -0.416208
C164  C     C_3   0.575774 0.105291 0.950595 -0.808394
C165  C     C_3   0.536890 0.055438 0.105333 -0.416232
C166  C     C_3   0.575785 0.049391 0.105297 -0.808390
C167  C     C_3   0.463119 0.105332 0.055443 -0.416219
C168  C     C_R   0.018124 0.376933 0.526015 0.129230
C169  C     C_3   0.424224 0.105290 0.049398 -0.808365
C170  C     C_3   0.463078 0.055414 0.894663 -0.416144
C171  C     C_3   0.424189 0.049323 0.894739 -0.808256
C172  C     C_3   0.463123 0.894670 0.944554 -0.416214
C173  C     C_3   0.424226 0.894711 0.950595 -0.808393
C174  C     C_3   0.463109 0.944564 0.105335 -0.416227
C175  C     C_3   0.424214 0.950611 0.105297 -0.808367
C176  C     C_3   0.894666 0.944563 0.463112 -0.416212
C177  C     C_3   0.894712 0.950615 0.424217 -0.808364
C178  C     C_3   0.944563 0.105333 0.463110 -0.416217
C179  C     C_R   0.018137 0.473993 0.376932 0.129250
C180  C     C_3   0.950613 0.105292 0.424215 -0.808391
C181  C     C_3   0.105335 0.055439 0.463114 -0.416215
C182  C     C_3   0.105290 0.049391 0.424219 -0.808369
C183  C     C_3   0.055439 0.894667 0.463114 -0.416235
C184  C     C_3   0.049396 0.894701 0.424219 -0.808391
C185  C     C_3   0.105331 0.944557 0.536882 -0.416232
C186  C     C_3   0.105297 0.950597 0.575778 -0.808391
C187  C     C_3   0.055435 0.105334 0.536891 -0.416213
C188  C     C_3   0.049382 0.105288 0.575785 -0.808366
C189  C     C_3   0.894668 0.055439 0.536887 -0.416218
C190  C     C_R   0.018123 0.623068 0.473983 0.129231
C191  C     C_3   0.894709 0.049392 0.575782 -0.808391
C192  C     C_3   0.944564 0.894666 0.536891 -0.416213
C193  C     C_3   0.950614 0.894711 0.575785 -0.808363
C194  C     C_3   0.944558 0.536881 0.105333 -0.416227
C195  C     C_3   0.950603 0.575777 0.105292 -0.808379
C196  C     C_3   0.105332 0.536892 0.055436 -0.416226
C197  C     C_3   0.105294 0.575787 0.049387 -0.808385
C198  C     C_3   0.055442 0.536880 0.894665 -0.416226
C199  C     C_3   0.049405 0.575777 0.894708 -0.808399
C200  C     C_3   0.894667 0.536890 0.944563 -0.416215
C201  C     C_R   0.018163 0.525997 0.623067 0.129218
C202  C     C_3   0.894709 0.575785 0.950613 -0.808362
C203  C     C_3   0.944551 0.463124 0.894671 -0.416245
C204  C     C_3   0.950590 0.424228 0.894698 -0.808412
C205  C     C_3   0.105334 0.463108 0.944566 -0.416215
C206  C     C_3   0.105291 0.424213 0.950620 -0.808360
C207  C     C_3   0.055442 0.463118 0.105333 -0.416231
C208  C     C_3   0.049400 0.424222 0.105295 -0.808399
C209  C     C_3   0.894666 0.463109 0.055437 -0.416218
C210  C     C_3   0.894705 0.424214 0.049390 -0.808383
C211  C     C_R   0.981883 0.623065 0.526022 0.129236
C212  C     C_R   1.000000 0.500000 0.432796 0.841780
C213  C     C_R   0.981862 0.526006 0.376931 0.129253
C214  C     C_R   0.981874 0.376933 0.473984 0.129228
C215  C     C_R   0.981817 0.474031 0.623073 0.129166
C216  C     C_R   0.376931 0.473992 0.981866 0.129242
C217  C     C_R   0.473990 0.623067 0.981864 0.129243
C218  C     C_R   0.623069 0.526008 0.981865 0.129243
C219  C     C_R   0.526013 0.376933 0.981869 0.129243
C220  C     C_R   0.623067 0.473987 0.018131 0.129244
C221  C     C_R   0.526007 0.623068 0.018134 0.129241
C222  C     C_R   0.376933 0.526010 0.018134 0.129241
C223  C     C_R   0.000000 0.567203 0.500000 0.841825
C224  C     C_R   0.473993 0.376931 0.018135 0.129243
C225  C     C_R   0.473992 0.018134 0.623068 0.129242
C226  C     C_R   0.623068 0.018135 0.526010 0.129240
C227  C     C_R   0.526013 0.018129 0.376932 0.129249
C228  C     C_R   0.376932 0.018135 0.473992 0.129241
C229  C     C_R   0.473986 0.981873 0.376933 0.129252
C230  C     C_R   0.623068 0.981866 0.473992 0.129243
C231  C     C_R   0.526007 0.981863 0.623067 0.129239
C232  C     C_R   0.376932 0.981863 0.526008 0.129241
C233  C     C_R   0.518130 0.876932 0.026010 0.129238
C234  C     C_R   0.500000 0.432797 0.000000 0.841792
C235  C     C_R   0.518150 0.974000 0.876932 0.129234
C236  C     C_R   0.518131 0.123068 0.973988 0.129236
C237  C     C_R   0.518135 0.026009 0.123068 0.129250
C238  C     C_R   0.481871 0.123067 0.026012 0.129236
C239  C     C_R   0.481849 0.025996 0.876930 0.129234
C240  C     C_R   0.481870 0.876933 0.973986 0.129235
C241  C     C_R   0.481864 0.973992 0.123069 0.129249
C242  C     C_R   0.876932 0.973992 0.481866 0.129242
C243  C     C_R   0.973992 0.123068 0.481864 0.129243
C244  C     C_R   0.123068 0.026008 0.481866 0.129242
C245  C     C_R   0.432797 0.500000 0.000000 0.841803
C246  C     C_R   0.026010 0.876932 0.481868 0.129246
C247  C     C_R   0.123067 0.973987 0.518131 0.129243
C248  C     C_R   0.026008 0.123068 0.518135 0.129243
C249  C     C_R   0.876933 0.026010 0.518134 0.129242
C250  C     C_R   0.973992 0.876931 0.518137 0.129246
C251  C     C_R   0.973989 0.518130 0.123068 0.129245
C252  C     C_R   0.123068 0.518136 0.026009 0.129244
C253  C     C_R   0.026006 0.518135 0.876932 0.129248
C254  C     C_R   0.876932 0.518134 0.973991 0.129241
C255  C     C_R   0.973980 0.481877 0.876935 0.129239
C256  C     C_R   0.500000 0.567203 1.000000 0.841800
C257  C     C_R   0.123068 0.481864 0.973993 0.129247
C258  C     C_R   0.026011 0.481868 0.123068 0.129243
C259  C     C_R   0.876932 0.481864 0.026008 0.129245
C260  C     C_R   0.018045 0.340912 0.525462 -0.188915
C261  C     C_R   0.018056 0.474544 0.340911 -0.188888
C262  C     C_R   0.018042 0.659089 0.474536 -0.188878
C263  C     C_R   0.018075 0.525452 0.659088 -0.188922
C264  C     C_R   0.981962 0.659087 0.525471 -0.188910
C265  C     C_R   0.981943 0.525454 0.340910 -0.188893
C266  C     C_R   0.981956 0.340912 0.474534 -0.188879
C267  C     C_R   0.567203 0.500000 1.000000 0.841791
C268  C     C_R   0.981887 0.474593 0.659093 -0.189053
C269  C     C_R   0.340911 0.474544 0.981947 -0.188906
C270  C     C_R   0.474542 0.659089 0.981945 -0.188898
C271  C     C_R   0.659089 0.525455 0.981945 -0.188901
C272  C     C_R   0.525463 0.340912 0.981951 -0.188885
C273  C     C_R   0.659088 0.474538 0.018049 -0.188885
C274  C     C_R   0.525455 0.659089 0.018053 -0.188906
C275  C     C_R   0.340912 0.525459 0.018054 -0.188898
C276  C     C_R   0.474546 0.340910 0.018056 -0.188901
C277  C     C_R   0.474543 0.018052 0.659088 -0.188925
C278  C     C_R   0.432797 1.000000 0.500000 0.841797
C279  C     C_R   0.659088 0.018055 0.525458 -0.188889
C280  C     C_R   0.525461 0.018049 0.340911 -0.188875
C281  C     C_R   0.340911 0.018053 0.474543 -0.188903
C282  C     C_R   0.474536 0.981954 0.340912 -0.188874
C283  C     C_R   0.659089 0.981947 0.474544 -0.188905
C284  C     C_R   0.525455 0.981942 0.659088 -0.188916
C285  C     C_R   0.340911 0.981942 0.525455 -0.188894
C286  C     C_R   0.518049 0.840911 0.025458 -0.188906
C287  C     C_R   0.518069 0.974551 0.840911 -0.188953
C288  C     C_R   0.518052 0.159089 0.974541 -0.188893
H1    H     H_    0.031794 0.327033 0.545464 0.159169
H2    H     H_    0.454544 0.672966 0.968188 0.159171
H3    H     H_    0.591645 0.524984 0.917953 0.270106
H4    H     H_    0.591814 0.571039 0.911168 0.241687
H5    H     H_    0.578412 0.559253 0.971924 0.203869
H6    H     H_    0.618947 0.580035 0.968825 0.195808
H7    H     H_    0.548021 0.367867 0.914268 0.248741
H8    H     H_    0.524990 0.408334 0.917948 0.270099
H9    H     H_    0.571045 0.408186 0.911171 0.241693
H10   H     H_    0.559251 0.421595 0.971921 0.203891
H11   H     H_    0.580040 0.381063 0.968836 0.195807
H12   H     H_    0.632133 0.451977 0.085731 0.248741
H13   H     H_    0.672968 0.545452 0.968189 0.159171
H14   H     H_    0.591666 0.475009 0.082052 0.270099
H15   H     H_    0.591815 0.428953 0.088828 0.241693
H16   H     H_    0.578405 0.440749 0.028079 0.203890
H17   H     H_    0.618937 0.419959 0.031163 0.195807
H18   H     H_    0.547985 0.632122 0.085741 0.248743
H19   H     H_    0.524980 0.591640 0.082046 0.270108
H20   H     H_    0.571034 0.591816 0.088835 0.241686
H21   H     H_    0.559252 0.578412 0.028077 0.203871
H22   H     H_    0.580033 0.618948 0.031179 0.195808
H23   H     H_    0.367876 0.548000 0.085738 0.248746
H24   H     H_    0.545461 0.327035 0.968196 0.159172
H25   H     H_    0.408351 0.524985 0.082049 0.270107
H26   H     H_    0.408186 0.571040 0.088832 0.241690
H27   H     H_    0.421592 0.559252 0.028077 0.203879
H28   H     H_    0.381058 0.580036 0.031173 0.195810
H29   H     H_    0.452005 0.367876 0.085741 0.248740
H30   H     H_    0.475018 0.408354 0.082047 0.270106
H31   H     H_    0.428963 0.408185 0.088832 0.241687
H32   H     H_    0.440748 0.421588 0.028076 0.203871
H33   H     H_    0.419967 0.381051 0.031177 0.195808
H34   H     H_    0.452032 0.085742 0.632117 0.248745
H35   H     H_    0.672965 0.454539 0.031804 0.159172
H36   H     H_    0.475017 0.082045 0.591622 0.270108
H37   H     H_    0.428962 0.088836 0.591822 0.241678
H38   H     H_    0.440745 0.028076 0.578412 0.203864
H39   H     H_    0.419968 0.031183 0.618949 0.195808
H40   H     H_    0.632127 0.085740 0.548008 0.248741
H41   H     H_    0.591658 0.082051 0.524981 0.270105
H42   H     H_    0.591810 0.088833 0.571035 0.241692
H43   H     H_    0.578408 0.028080 0.559250 0.203882
H44   H     H_    0.618942 0.031174 0.580036 0.195808
H45   H     H_    0.548033 0.085724 0.367857 0.248745
H46   H     H_    0.545452 0.672968 0.031810 0.159171
H47   H     H_    0.525008 0.082054 0.408328 0.270098
H48   H     H_    0.571064 0.088821 0.408170 0.241700
H49   H     H_    0.559250 0.028075 0.421594 0.203885
H50   H     H_    0.580044 0.031148 0.381062 0.195802
H51   H     H_    0.367878 0.085744 0.452012 0.248736
H52   H     H_    0.408357 0.082048 0.475023 0.270104
H53   H     H_    0.408188 0.088838 0.428969 0.241686
H54   H     H_    0.421590 0.028080 0.440748 0.203875
H55   H     H_    0.381055 0.031182 0.419967 0.195802
H56   H     H_    0.451959 0.914280 0.367856 0.248744
H57   H     H_    0.327034 0.545456 0.031810 0.159172
H58   H     H_    0.474993 0.917946 0.408323 0.270093
H59   H     H_    0.428935 0.911181 0.408175 0.241699
H60   H     H_    0.440750 0.971924 0.421597 0.203897
H61   H     H_    0.419955 0.968855 0.381066 0.195808
H62   H     H_    0.632121 0.914258 0.452013 0.248738
H63   H     H_    0.591641 0.917953 0.475020 0.270105
H64   H     H_    0.591814 0.911166 0.428966 0.241686
H65   H     H_    0.578411 0.971924 0.440748 0.203869
H66   H     H_    0.618947 0.968822 0.419967 0.195802
H67   H     H_    0.547976 0.914254 0.632117 0.248739
H68   H     H_    0.454549 0.327031 0.031812 0.159171
H69   H     H_    0.524980 0.917952 0.591629 0.270105
H70   H     H_    0.571035 0.911162 0.591816 0.241680
H71   H     H_    0.559253 0.971922 0.578411 0.203866
H72   H     H_    0.580032 0.968815 0.618947 0.195807
H73   H     H_    0.367874 0.914256 0.548000 0.248740
H74   H     H_    0.408346 0.917948 0.524978 0.270104
H75   H     H_    0.408188 0.911162 0.571032 0.241689
H76   H     H_    0.421590 0.971918 0.559250 0.203879
H77   H     H_    0.381055 0.968820 0.580033 0.195807
H78   H     H_    0.585734 0.867878 0.047995 0.248741
H79   H     H_    0.454547 0.031810 0.672967 0.159173
H80   H     H_    0.582043 0.908362 0.024993 0.270105
H81   H     H_    0.588824 0.908181 0.071049 0.241685
H82   H     H_    0.528068 0.921588 0.059256 0.203862
H83   H     H_    0.531167 0.881052 0.080037 0.195807
H84   H     H_    0.585775 0.952107 0.867902 0.248746
H85   H     H_    0.582049 0.975055 0.908413 0.270124
H86   H     H_    0.588873 0.929005 0.908179 0.241667
H87   H     H_    0.528096 0.940749 0.921584 0.203859
H88   H     H_    0.531236 0.919983 0.881043 0.195803
H89   H     H_    0.585732 0.132125 0.951977 0.248742
H90   H     H_    0.672967 0.031812 0.545455 0.159170
H91   H     H_    0.582045 0.091653 0.975001 0.270105
H92   H     H_    0.588819 0.091810 0.928945 0.241692
H93   H     H_    0.528066 0.078409 0.940744 0.203864
H94   H     H_    0.531158 0.118944 0.919959 0.195813
H95   H     H_    0.585737 0.048003 0.132132 0.248744
H96   H     H_    0.582054 0.024985 0.091658 0.270103
H97   H     H_    0.588836 0.071040 0.091820 0.241691
H98   H     H_    0.528084 0.059249 0.078407 0.203891
H99   H     H_    0.531174 0.080036 0.118940 0.195809
H100  H     H_    0.414268 0.132124 0.048008 0.248741
H101  H     H_    0.545461 0.031801 0.327032 0.159175
H102  H     H_    0.417955 0.091648 0.024993 0.270103
H103  H     H_    0.411176 0.091814 0.071049 0.241688
H104  H     H_    0.471930 0.078408 0.059255 0.203869
H105  H     H_    0.468836 0.118942 0.080040 0.195807
H106  H     H_    0.414218 0.047858 0.867911 0.248736
H107  H     H_    0.417957 0.024940 0.908444 0.270120
H108  H     H_    0.411124 0.070992 0.908173 0.241649
H109  H     H_    0.471909 0.059253 0.921577 0.203832
H110  H     H_    0.468753 0.080011 0.881032 0.195798
H111  H     H_    0.414269 0.867877 0.951973 0.248742
H112  H     H_    0.031815 0.454548 0.327033 0.159172
H113  H     H_    0.327033 0.031811 0.454546 0.159169
H114  H     H_    0.417955 0.908344 0.975003 0.270104
H115  H     H_    0.411182 0.908195 0.928947 0.241692
H116  H     H_    0.471934 0.921594 0.940744 0.203869
H117  H     H_    0.468842 0.881060 0.919957 0.195813
H118  H     H_    0.414260 0.952000 0.132133 0.248738
H119  H     H_    0.417946 0.975018 0.091657 0.270099
H120  H     H_    0.411163 0.928962 0.091822 0.241688
H121  H     H_    0.471916 0.940751 0.078410 0.203886
H122  H     H_    0.468824 0.919966 0.118944 0.195806
H123  H     H_    0.867878 0.952013 0.414259 0.248741
H124  H     H_    0.454535 0.968203 0.327034 0.159174
H125  H     H_    0.908360 0.975019 0.417954 0.270108
H126  H     H_    0.908184 0.928964 0.411167 0.241685
H127  H     H_    0.921588 0.940747 0.471924 0.203869
H128  H     H_    0.881052 0.919967 0.468822 0.195808
H129  H     H_    0.952004 0.132126 0.414259 0.248746
H130  H     H_    0.975018 0.091650 0.417950 0.270107
H131  H     H_    0.928964 0.091815 0.411164 0.241689
H132  H     H_    0.940749 0.078409 0.471920 0.203879
H133  H     H_    0.919966 0.118944 0.468823 0.195808
H134  H     H_    0.132124 0.048000 0.414261 0.248740
H135  H     H_    0.672968 0.968190 0.454547 0.159170
H136  H     H_    0.091646 0.024986 0.417953 0.270106
H137  H     H_    0.091814 0.071041 0.411170 0.241687
H138  H     H_    0.078411 0.059254 0.471926 0.203869
H139  H     H_    0.118947 0.080035 0.468827 0.195808
H140  H     H_    0.048017 0.867865 0.414267 0.248743
H141  H     H_    0.024986 0.908333 0.417947 0.270100
H142  H     H_    0.071042 0.908184 0.411169 0.241693
H143  H     H_    0.059249 0.921593 0.471919 0.203892
H144  H     H_    0.080037 0.881061 0.468833 0.195808
H145  H     H_    0.132133 0.951975 0.585730 0.248742
H146  H     H_    0.545451 0.968184 0.672966 0.159172
H147  H     H_    0.091666 0.975006 0.582051 0.270099
H148  H     H_    0.091814 0.928950 0.588826 0.241694
H149  H     H_    0.078405 0.940748 0.528077 0.203888
H150  H     H_    0.118937 0.919959 0.531161 0.195807
H151  H     H_    0.047984 0.132121 0.585743 0.248742
H152  H     H_    0.024978 0.091639 0.582047 0.270108
H153  H     H_    0.071032 0.091815 0.588837 0.241685
H154  H     H_    0.059252 0.078411 0.528079 0.203873
H155  H     H_    0.080033 0.118947 0.531182 0.195808
H156  H     H_    0.867875 0.048002 0.585737 0.248745
H157  H     H_    0.327032 0.968184 0.545451 0.159170
H158  H     H_    0.908350 0.024986 0.582049 0.270105
H159  H     H_    0.908186 0.071041 0.588831 0.241690
H160  H     H_    0.921592 0.059252 0.528077 0.203878
H161  H     H_    0.881058 0.080037 0.531172 0.195809
H162  H     H_    0.952006 0.867877 0.585744 0.248740
H163  H     H_    0.975020 0.908355 0.582049 0.270105
H164  H     H_    0.928965 0.908187 0.588835 0.241686
H165  H     H_    0.940748 0.921588 0.528078 0.203872
H166  H     H_    0.919966 0.881053 0.531180 0.195807
H167  H     H_    0.951987 0.585732 0.132126 0.248742
H168  H     H_    0.531803 0.827032 0.045456 0.159170
H169  H     H_    0.975010 0.582046 0.091653 0.270105
H170  H     H_    0.928954 0.588824 0.091812 0.241692
H171  H     H_    0.940746 0.528071 0.078409 0.203874
H172  H     H_    0.919961 0.531164 0.118943 0.195809
H173  H     H_    0.132129 0.585741 0.048006 0.248740
H174  H     H_    0.091662 0.582053 0.024976 0.270103
H175  H     H_    0.091811 0.588837 0.071031 0.241691
H176  H     H_    0.078408 0.528084 0.059249 0.203889
H177  H     H_    0.118941 0.531177 0.080034 0.195807
H178  H     H_    0.048011 0.585734 0.867875 0.248744
H179  H     H_    0.531838 0.954562 0.827033 0.159167
H180  H     H_    0.025005 0.582050 0.908356 0.270109
H181  H     H_    0.071061 0.588821 0.908179 0.241692
H182  H     H_    0.059254 0.528069 0.921588 0.203869
H183  H     H_    0.080036 0.531160 0.881052 0.195813
H184  H     H_    0.867874 0.585740 0.952004 0.248739
H185  H     H_    0.908351 0.582050 0.975019 0.270102
H186  H     H_    0.908185 0.588836 0.928964 0.241689
H187  H     H_    0.921591 0.528080 0.940749 0.203880
H188  H     H_    0.881057 0.531177 0.919965 0.195803
H189  H     H_    0.951967 0.414281 0.867860 0.248748
H190  H     H_    0.531806 0.172967 0.954541 0.159169
H191  H     H_    0.974999 0.417951 0.908327 0.270100
H192  H     H_    0.928943 0.411178 0.908178 0.241698
H193  H     H_    0.940747 0.471925 0.921599 0.203897
H194  H     H_    0.919952 0.468849 0.881070 0.195810
H195  H     H_    0.132125 0.414257 0.952015 0.248739
H196  H     H_    0.091645 0.417950 0.975024 0.270105
H197  H     H_    0.091817 0.411161 0.928970 0.241684
H198  H     H_    0.078411 0.471918 0.940750 0.203876
H199  H     H_    0.118947 0.468818 0.919969 0.195804
H200  H     H_    0.048018 0.414268 0.132130 0.248746
H201  H     H_    0.531810 0.045456 0.172966 0.159171
H202  H     H_    0.024993 0.417951 0.091660 0.270104
H203  H     H_    0.071048 0.411175 0.091815 0.241694
H204  H     H_    0.059252 0.471926 0.078408 0.203882
H205  H     H_    0.080039 0.468838 0.118941 0.195811
H206  H     H_    0.867870 0.414259 0.048006 0.248739
H207  H     H_    0.908341 0.417947 0.024982 0.270103
H208  H     H_    0.908185 0.411164 0.071036 0.241691
H209  H     H_    0.921590 0.471917 0.059250 0.203883
H210  H     H_    0.881056 0.468824 0.080035 0.195805
H211  H     H_    0.468200 0.172966 0.045461 0.159170
H212  H     H_    0.031788 0.672968 0.454531 0.159171
H213  H     H_    0.468158 0.045429 0.827031 0.159166
H214  H     H_    0.468197 0.827035 0.954537 0.159169
H215  H     H_    0.468187 0.954548 0.172968 0.159171
H216  H     H_    0.827032 0.954547 0.468190 0.159171
H217  H     H_    0.954547 0.172967 0.468187 0.159171
H218  H     H_    0.172968 0.045454 0.468190 0.159172
H219  H     H_    0.045457 0.827033 0.468195 0.159171
H220  H     H_    0.172965 0.954538 0.531803 0.159173
H221  H     H_    0.045453 0.172968 0.531811 0.159170
H222  H     H_    0.827034 0.045457 0.531809 0.159171
H223  H     H_    0.031859 0.545431 0.672965 0.159164
H224  H     H_    0.954548 0.827032 0.531815 0.159169
H225  H     H_    0.954542 0.531803 0.172967 0.159171
H226  H     H_    0.172967 0.531814 0.045453 0.159171
H227  H     H_    0.045446 0.531818 0.827032 0.159178
H228  H     H_    0.827033 0.531809 0.954544 0.159171
H229  H     H_    0.954522 0.468217 0.827037 0.159177
H230  H     H_    0.172968 0.468187 0.954550 0.159171
H231  H     H_    0.045458 0.468195 0.172967 0.159172
H232  H     H_    0.827032 0.468186 0.045452 0.159170
H233  H     H_    0.085723 0.367887 0.548023 0.248742
H234  H     H_    0.968217 0.672964 0.545476 0.159168
H235  H     H_    0.082033 0.408367 0.525013 0.270108
H236  H     H_    0.088801 0.408195 0.571071 0.241685
H237  H     H_    0.028046 0.421590 0.559264 0.203829
H238  H     H_    0.031145 0.381053 0.580045 0.195822
H239  H     H_    0.085742 0.452000 0.367868 0.248745
H240  H     H_    0.082056 0.475025 0.408337 0.270105
H241  H     H_    0.088842 0.428972 0.408183 0.241693
H242  H     H_    0.028089 0.440753 0.421592 0.203896
H243  H     H_    0.031180 0.419968 0.381059 0.195808
H244  H     H_    0.085716 0.632136 0.451955 0.248745
H245  H     H_    0.968185 0.545449 0.327032 0.159172
H246  H     H_    0.082043 0.591665 0.474982 0.270096
H247  H     H_    0.088805 0.591821 0.428924 0.241697
H248  H     H_    0.028059 0.578408 0.440741 0.203869
H249  H     H_    0.031137 0.618941 0.419951 0.195812
H250  H     H_    0.085801 0.547889 0.632114 0.248728
H251  H     H_    0.082071 0.524880 0.591638 0.270111
H252  H     H_    0.088922 0.570926 0.591803 0.241671
H253  H     H_    0.028143 0.559231 0.578411 0.203915
H254  H     H_    0.031282 0.580005 0.618946 0.195790
H255  H     H_    0.914288 0.632109 0.548049 0.248746
H256  H     H_    0.968207 0.327034 0.454532 0.159170
H257  H     H_    0.917973 0.591631 0.525035 0.270107
H258  H     H_    0.911217 0.591798 0.571094 0.241685
H259  H     H_    0.971969 0.578405 0.559271 0.203825
H260  H     H_    0.968875 0.618940 0.580056 0.195815
H261  H     H_    0.914256 0.547993 0.367869 0.248740
H262  H     H_    0.917945 0.524970 0.408341 0.270103
H263  H     H_    0.911157 0.571024 0.408183 0.241690
H264  H     H_    0.971911 0.559246 0.421589 0.203892
H265  H     H_    0.968816 0.580030 0.381055 0.195806
H266  H     H_    0.914277 0.367868 0.451962 0.248741
H267  H     H_    0.968090 0.454623 0.672972 0.159149
H268  H     H_    0.917955 0.408335 0.474995 0.270095
H269  H     H_    0.911187 0.408187 0.428937 0.241695
H270  H     H_    0.971935 0.421595 0.440744 0.203872
H271  H     H_    0.968853 0.381062 0.419953 0.195810
H272  H     H_    0.914117 0.452319 0.631998 0.248676
H273  H     H_    0.917985 0.475194 0.591451 0.270166
H274  H     H_    0.911051 0.429157 0.591751 0.241604
H275  H     H_    0.971896 0.440743 0.578448 0.203713
H276  H     H_    0.968611 0.420034 0.619014 0.195753
H277  H     H_    0.367878 0.452014 0.914259 0.248742
H278  H     H_    0.327032 0.454548 0.968190 0.159171
H279  H     H_    0.408361 0.475019 0.917954 0.270108
H280  H     H_    0.408184 0.428965 0.911166 0.241685
H281  H     H_    0.421588 0.440747 0.971924 0.203871
H282  H     H_    0.381052 0.419967 0.968821 0.195808
H283  H     H_    0.452001 0.632124 0.914260 0.248746
H284  H     H_    0.475015 0.591649 0.917950 0.270107
H285  H     H_    0.428961 0.591814 0.911166 0.241690
H286  H     H_    0.440748 0.578408 0.971921 0.203879
H287  H     H_    0.419964 0.618942 0.968825 0.195810
H288  H     H_    0.632123 0.547997 0.914259 0.248741
N1    N     N_R   0.978708 0.267134 0.478674 -0.183186
N2    N     N_R   0.521317 0.732866 0.021296 -0.183186
N3    N     N_R   0.732865 0.478673 0.021292 -0.183186
N4    N     N_R   0.478684 0.267133 0.021300 -0.183186
N5    N     N_R   0.732866 0.521317 0.978701 -0.183186
N6    N     N_R   0.478680 0.732866 0.978699 -0.183185
N7    N     N_R   0.267134 0.478681 0.978704 -0.183187
N8    N     N_R   0.521327 0.267134 0.978707 -0.183186
N9    N     N_R   0.521327 0.978706 0.732866 -0.183189
N10   N     N_R   0.732866 0.978704 0.478681 -0.183186
N11   N     N_R   0.478675 0.978707 0.267135 -0.183185
N12   N     N_R   0.978700 0.521316 0.267133 -0.183186
N13   N     N_R   0.267134 0.978694 0.521313 -0.183184
N14   N     N_R   0.521321 0.021297 0.267134 -0.183185
N15   N     N_R   0.732866 0.021300 0.521320 -0.183185
N16   N     N_R   0.478670 0.021285 0.732865 -0.183189
N17   N     N_R   0.267134 0.021298 0.478682 -0.183185
N18   N     N_R   0.478702 0.767134 0.978676 -0.183184
N19   N     N_R   0.478693 0.021308 0.767133 -0.183188
N20   N     N_R   0.478706 0.232865 0.021322 -0.183184
N21   N     N_R   0.478697 0.978685 0.232867 -0.183185
N22   N     N_R   0.521304 0.232866 0.978684 -0.183183
N23   N     N_R   0.978711 0.732865 0.521331 -0.183181
N24   N     N_R   0.521304 0.978684 0.767134 -0.183187
N25   N     N_R   0.521295 0.767134 0.021318 -0.183186
N26   N     N_R   0.521298 0.021320 0.232866 -0.183185
N27   N     N_R   0.767134 0.021323 0.521297 -0.183186
N28   N     N_R   0.021317 0.232866 0.521299 -0.183186
N29   N     N_R   0.232865 0.978671 0.521290 -0.183186
N30   N     N_R   0.978688 0.767133 0.521309 -0.183183
N31   N     N_R   0.232866 0.021320 0.478704 -0.183187
N32   N     N_R   0.978685 0.232867 0.478697 -0.183185
N33   N     N_R   0.767134 0.978681 0.478704 -0.183186
N34   N     N_R   0.978656 0.478729 0.732868 -0.183189
N35   N     N_R   0.021316 0.767134 0.478701 -0.183184
N36   N     N_R   0.021322 0.478704 0.232866 -0.183185
N37   N     N_R   0.232866 0.478703 0.978682 -0.183187
N38   N     N_R   0.978635 0.478750 0.767136 -0.183193
N39   N     N_R   0.767134 0.478696 0.021315 -0.183185
N40   N     N_R   0.021316 0.521305 0.767135 -0.183192
N41   N     N_R   0.232866 0.521300 0.021320 -0.183185
N42   N     N_R   0.978677 0.521293 0.232866 -0.183186
N43   N     N_R   0.767134 0.521295 0.978679 -0.183186
N44   N     N_R   0.021293 0.732866 0.478678 -0.183185
N45   N     N_R   0.021300 0.478681 0.267134 -0.183185
N46   N     N_R   0.021295 0.267134 0.521322 -0.183184
N47   N     N_R   0.021292 0.521329 0.732867 -0.183192
N48   N     N_R   0.267134 0.521323 0.021297 -0.183185
O1    O     O_R   0.971280 0.500050 0.550900 -0.612773
O2    O     O_R   0.449100 0.499950 0.028720 -0.612718
O3    O     O_R   0.499950 0.550900 0.028720 -0.612722
O4    O     O_R   0.550900 0.500050 0.028720 -0.612712
O5    O     O_R   0.499950 0.449100 0.971280 -0.612712
O6    O     O_R   0.550900 0.499950 0.971280 -0.612721
O7    O     O_R   0.500050 0.550900 0.971280 -0.612717
O8    O     O_R   0.449100 0.500050 0.971280 -0.612723
O9    O     O_R   0.449100 0.971280 0.499950 -0.612720
O10   O     O_R   0.499950 0.971280 0.550900 -0.612728
O11   O     O_R   0.550900 0.971280 0.500050 -0.612720
O12   O     O_R   0.971280 0.449100 0.500050 -0.612703
O13   O     O_R   0.500050 0.971280 0.449100 -0.612708
O14   O     O_R   0.449100 0.028720 0.500050 -0.612719
O15   O     O_R   0.499950 0.028720 0.449100 -0.612710
O16   O     O_R   0.550900 0.028720 0.499950 -0.612717
O17   O     O_R   0.500050 0.028720 0.550900 -0.612730
O18   O     O_R   0.471280 0.000050 0.050900 -0.612714
O19   O     O_R   0.471280 0.949100 0.000050 -0.612717
O20   O     O_R   0.471280 0.999950 0.949100 -0.612752
O21   O     O_R   0.471280 0.050900 0.999950 -0.612717
O22   O     O_R   0.528720 0.999950 0.050900 -0.612711
O23   O     O_R   0.971280 0.499950 0.449100 -0.612715
O24   O     O_R   0.528720 0.050900 0.000050 -0.612718
O25   O     O_R   0.528720 0.000050 0.949100 -0.612740
O26   O     O_R   0.528720 0.949100 0.999950 -0.612722
O27   O     O_R   0.000050 0.949100 0.528720 -0.612720
O28   O     O_R   0.949100 0.999950 0.528720 -0.612718
O29   O     O_R   0.999950 0.050900 0.528720 -0.612722
O30   O     O_R   0.050900 0.000050 0.528720 -0.612713
O31   O     O_R   0.999950 0.949100 0.471280 -0.612711
O32   O     O_R   0.050900 0.999950 0.471280 -0.612721
O33   O     O_R   0.000050 0.050900 0.471280 -0.612716
O34   O     O_R   0.971280 0.550900 0.499950 -0.612721
O35   O     O_R   0.949100 0.000050 0.471280 -0.612722
O36   O     O_R   0.949100 0.471280 0.999950 -0.612717
O37   O     O_R   0.999950 0.471280 0.050900 -0.612715
O38   O     O_R   0.050900 0.471280 0.000050 -0.612721
O39   O     O_R   0.000050 0.471280 0.949100 -0.612717
O40   O     O_R   0.949100 0.528720 0.000050 -0.612718
O41   O     O_R   0.999950 0.528720 0.949100 -0.612718
O42   O     O_R   0.050900 0.528720 0.999950 -0.612712
O43   O     O_R   0.000050 0.528720 0.050900 -0.612719
O44   O     O_R   0.028720 0.499950 0.550900 -0.612728
O45   O     O_R   0.028720 0.550900 0.500050 -0.612731
O46   O     O_R   0.028720 0.500050 0.449100 -0.612708
O47   O     O_R   0.028720 0.449100 0.499950 -0.612723
O48   O     O_R   0.500050 0.449100 0.028720 -0.612721
Zn1   Zn    Zn3+2 0.961640 0.500000 0.500000 0.937331
Zn2   Zn    Zn3+2 1.000000 1.000000 0.461640 0.937410
Zn3   Zn    Zn3+2 1.000000 0.461640 0.000000 0.937423
Zn4   Zn    Zn3+2 1.000000 0.538360 0.000000 0.937415
Zn5   Zn    Zn3+2 0.038360 0.500000 0.500000 0.937405
Zn6   Zn    Zn3+2 0.500000 0.500000 0.038360 0.937409
Zn7   Zn    Zn3+2 0.500000 0.500000 0.961640 0.937408
Zn8   Zn    Zn3+2 0.500000 0.961640 0.500000 0.937410
Zn9   Zn    Zn3+2 0.500000 0.038360 0.500000 0.937410
Zn10  Zn    Zn3+2 0.461640 0.000000 0.000000 0.937377
Zn11  Zn    Zn3+2 0.538360 0.000000 0.000000 0.937388
Zn12  Zn    Zn3+2 1.000000 0.000000 0.538360 0.937409

loop_
_geom_bond_atom_site_label_1
_geom_bond_atom_site_label_2
_ccdc_geom_bond_type
C174  H122  S    
C196  H176  S    
C166  H96   S    
C126  C127  S    
C34   C284  A    
C93   N9    A    
C133  H14   S    
C17   C48   A    
C132  H17   S    
C193  H164  S    
C194  H172  S    
C51   C85   S    
C188  H151  S    
C128  H6    S    
C208  H203  S    
C177  H125  S    
C133  H15   S    
C99   N23   A    
C156  H76   S    
C114  H252  S    
C185  H150  S    
O12   Zn1   S    
C121  H276  S    
C204  H191  S    
C147  H48   S    
N17   N31   A    
C58   C217  A    
C197  H175  S    
C4    C41   A    
C143  C144  S    
C80   N42   A    
C2    O17   A    
C135  O43   A    
C35   O22   A    
C110  H247  S    
C7    C42   A    
O9    Zn8   S    
C76   C255  A    
C163  C236  S    
C174  C241  S    
C277  H79   S    
C13   O16   A    
C101  O29   A    
N11   N21   A    
C167  C238  S    
C269  H278  S    
C143  H43   S    
C32   C104  S    
C58   C256  S    
O48   Zn6   S    
C158  H75   S    
C83   N37   A    
C232  C285  A    
C106  H236  S    
C177  H126  S    
C181  C244  S    
C185  C247  S    
C199  H178  S    
C210  H207  S    
C202  H186  S    
C74   C258  A    
C11   C47   A    
N7    N37   A    
C30   C275  A    
C75   C146  S    
C123  C216  S    
C16   H224  S    
C183  H143  S    
C127  H285  S    
C30   C269  A    
O20   Zn10  S    
C152  H66   S    
C138  H26   S    
C86   N20   A    
C203  C255  S    
C22   C257  A    
C67   C236  A    
O34   Zn1   S    
C18   H226  S    
C207  H205  S    
C127  H284  S    
N4    N20   A    
C148  H55   S    
C266  H256  S    
C169  H103  S    
C8    H216  S    
C46   C65   S    
C69   C237  A    
C60   C219  A    
C128  C218  S    
C163  H93   S    
C200  H187  S    
C63   C227  A    
C15   C249  A    
C154  H72   S    
C135  O37   A    
C267  O6    A    
C162  H84   S    
C72   C113  S    
C59   C218  A    
C183  C184  S    
C36   C279  A    
C96   N10   A    
O38   Zn3   S    
C189  H161  S    
C163  H94   S    
C159  H82   S    
C178  C180  S    
C233  C286  A    
C63   C229  A    
C30   C102  S    
C82   N38   A    
C57   O25   A    
C117  C213  S    
C70   C249  A    
C154  C155  S    
C134  H22   S    
C22   C49   A    
C64   C232  A    
C208  H200  S    
C24   C63   S    
C5    H213  S    
C126  H287  S    
C140  H29   S    
C181  H139  S    
C75   C252  A    
O7    Zn7   S    
C195  H169  S    
C115  H260  S    
C191  H156  S    
C21   H229  S    
C173  H111  S    
C68   O21   A    
C4    H211  S    
C107  C179  S    
C220  C273  A    
C114  H250  S    
C196  C197  S    
C137  H27   S    
C288  H190  S    
C139  C140  S    
C33   C276  A    
C12   C247  A    
C107  H243  S    
C104  N5    A    
C67   C238  A    
C59   C267  S    
C156  C158  S    
C130  C131  S    
C184  H142  S    
C77   C124  S    
C28   C264  A    
C138  H23   S    
C179  C261  A    
C205  H198  S    
O44   Zn5   S    
C192  C250  S    
N13   N29   A    
C207  H204  S    
C153  H63   S    
C162  H85   S    
C47   C81   S    
C158  H73   S    
C142  H37   S    
C37   C280  A    
O1    Zn1   S    
C136  H18   S    
C118  H263  S    
C108  H240  S    
C287  H179  S    
C35   C69   S    
C156  H77   S    
C200  C202  S    
C29   C268  A    
C32   C271  A    
C85   N43   A    
C31   C274  A    
C125  H277  S    
C7    C241  A    
C11   H219  S    
C18   C49   A    
C200  C254  S    
C26   C266  A    
C280  H101  S    
C170  H110  S    
C189  H160  S    
C79   O27   A    
C87   N24   A    
O19   Zn10  S    
C171  H107  S    
C186  H147  S    
C97   N46   A    
C154  C231  S    
C91   N31   A    
C134  H21   S    
C155  H70   S    
C282  H124  S    
C148  C228  S    
C23   H231  S    
C215  C268  A    
C38   C98   S    
C33   C94   S    
C111  C201  S    
C123  H282  S    
C272  H24   S    
C164  H89   S    
N5    N43   A    
N3    N39   A    
C167  C169  S    
C192  H165  S    
C184  H140  S    
C125  H280  S    
C267  O4    A    
C145  C227  S    
C182  H137  S    
C120  H266  S    
C211  C264  A    
C130  H10   S    
C196  H177  S    
C121  C215  S    
O17   Zn9   S    
O5    Zn7   S    
C39   C84   S    
C115  H259  S    
C209  C259  S    
C170  C171  S    
C52   C112  S    
C17   H225  S    
C115  C116  S    
C55   C201  A    
C166  H97   S    
C208  H202  S    
C113  O30   A    
C278  O9    A    
C105  H238  S    
C189  C191  S    
C136  H20   S    
C174  C175  S    
C38   C281  A    
C61   C231  A    
C146  O38   A    
C19   C253  A    
C64   C278  S    
C62   C230  A    
C146  O42   A    
C209  H210  S    
C162  H86   S    
C24   O15   A    
C107  C108  S    
C212  O23   A    
O37   Zn3   S    
C227  C280  A    
C184  H141  S    
O31   Zn2   S    
N15   N27   A    
C88   N33   A    
C12   H220  S    
O16   Zn9   S    
O28   Zn12  S    
C149  H51   S    
O23   Zn1   S    
C1    O1    A    
C10   C45   A    
C144  H42   S    
C53   C179  A    
C16   C47   A    
C116  H258  S    
C58   C221  A    
C175  H119  S    
O2    Zn6   S    
C279  H90   S    
C152  C230  S    
N1    N32   A    
C119  H270  S    
C76   C157  S    
C3    H201  S    
C165  H99   S    
C129  H4    S    
C264  H234  S    
C145  H50   S    
O45   Zn5   S    
C174  H121  S    
C81   N35   A    
C87   N19   A    
C203  H194  S    
C83   N41   A    
C132  C220  S    
C183  C246  S    
C148  H54   S    
C169  H100  S    
C98   N13   A    
C275  H57   S    
C91   N29   A    
C156  C232  S    
C118  H261  S    
C161  C235  S    
C109  C190  S    
C196  C252  S    
C31   C270  A    
C52   C214  A    
C209  C210  S    
C73   C79   S    
C195  H170  S    
O40   Zn4   S    
C223  O34   A    
C172  C240  S    
C28   C99   S    
C159  H83   S    
C172  H116  S    
C3    C237  A    
C186  H145  S    
C72   C247  A    
O22   Zn11  S    
C132  H16   S    
C285  H157  S    
C278  O14   A    
C9    C243  A    
C216  C269  A    
C164  H91   S    
C176  C242  S    
C256  O3    A    
C212  O46   A    
C120  H268  S    
N12   N42   A    
C54   C190  A    
C6    C39   A    
C256  O7    A    
C36   C283  A    
C193  H163  S    
C188  H152  S    
C90   O28   A    
C175  H118  S    
C20   C254  A    
C157  O39   A    
C56   C245  S    
C178  C243  S    
C113  O32   A    
C115  C211  S    
C66   C235  A    
C82   N40   A    
C185  H149  S    
C1    C55   S    
C15   C43   A    
C121  H275  S    
C102  N7    A    
C117  C118  S    
C204  H192  S    
C147  H47   S    
C69   C241  A    
C197  H174  S    
C53   C212  S    
C133  H12   S    
C131  H8    S    
C194  C195  S    
C149  H53   S    
C226  C279  A    
C124  O40   A    
C84   N18   A    
C56   C216  A    
C26   C97   S    
C176  C177  S    
C25   C259  A    
C26   C260  A    
C152  C153  S    
O8    Zn7   S    
C187  H154  S    
C77   C259  A    
C97   N1    A    
C4    C238  A    
C150  C151  S    
C281  H113  S    
C89   N26   A    
C54   C223  S    
C80   N36   A    
C283  H135  S    
C210  H208  S    
C228  C281  A    
C286  H168  S    
C170  C239  S    
C3    C42   A    
C112  O47   A    
C7    H215  S    
C109  H249  S    
C72   C244  A    
C9    H217  S    
C8    C43   A    
C180  H129  S    
O4    Zn6   S    
C161  C162  S    
C181  C182  S    
N14   N26   A    
C99   N44   A    
C101  O33   A    
C20   H228  S    
C43   C88   S    
C181  H138  S    
C65   C233  A    
C169  H102  S    
C265  H245  S    
C199  H180  S    
C20   C51   A    
C59   C220  A    
C200  H188  S    
C176  H127  S    
C94   N4    A    
C123  C125  S    
C178  H132  S    
C217  C270  A    
C198  H182  S    
N23   N30   A    
C120  H269  S    
C109  H248  S    
C37   C95   S    
C161  H88   S    
C189  C249  S    
C222  C275  A    
C150  H60   S    
C96   N15   A    
C32   C273  A    
C57   O20   A    
C102  N48   A    
C79   O31   A    
C13   C62   S    
C75   C257  A    
C23   C258  A    
C53   C213  A    
C65   C240  A    
C141  H39   S    
C234  O5    A    
C57   C66   S    
C144  H40   S    
C2    C61   S    
C46   O26   A    
O32   Zn2   S    
C178  H133  S    
C166  H95   S    
C71   C101  S    
N36   N45   A    
C128  C129  S    
C159  C233  S    
C262  H212  S    
C14   H221  S    
C160  H78   S    
C71   C248  A    
N16   N19   A    
C194  H171  S    
C145  C147  S    
C74   C251  A    
N2    N25   A    
C111  H253  S    
C128  H5    S    
C224  C276  A    
C27   C100  S    
C273  H35   S    
O10   Zn8   S    
C214  C266  A    
C67   C68   S    
C129  H288  S    
C114  H251  S    
C68   O24   A    
O13   Zn8   S    
C10   C244  A    
C89   N21   A    
C46   O19   A    
C147  H45   S    
C206  H196  S    
C73   C246  A    
C78   N28   A    
C62   C226  A    
C230  C283  A    
C17   C251  A    
C207  C208  S    
C182  H136  S    
C110  H246  S    
C15   H222  S    
C1    O44   A    
C127  H283  S    
O21   Zn10  S    
N9    N24   A    
C90   O35   A    
N35   N44   A    
C160  H81   S    
C21   C255  A    
C191  H158  S    
C159  C160  S    
C88   N27   A    
C274  H46   S    
C74   C135  S    
C167  H105  S    
C143  H44   S    
C60   C234  S    
C221  C274  A    
C158  H74   S    
O3    Zn6   S    
C100  N12   A    
C35   O18   A    
C121  C122  S    
C188  H153  S    
C122  H272  S    
C210  H206  S    
C202  H185  S    
N41   N48   A    
C33   C272  A    
C110  H244  S    
C183  H144  S    
C84   N25   A    
C180  H131  S    
C152  H65   S    
C138  H25   S    
C50   C82   S    
C116  H255  S    
C122  H274  S    
C139  H32   S    
C140  H31   S    
C260  H1    S    
C186  H148  S    
C5    C239  A    
O26   Zn11  S    
C11   C246  A    
C155  H69   S    
O35   Zn2   S    
C123  H281  S    
C122  H273  S    
N8    N22   A    
C119  C120  S    
C105  C168  S    
C192  H166  S    
C154  H71   S    
C125  H279  S    
C105  C106  S    
C40   C287  A    
C165  C237  S    
C130  H11   S    
C202  H184  S    
C119  H271  S    
C49   C83   S    
C168  C260  A    
C151  H58   S    
C71   C243  A    
C187  C188  S    
N34   N38   A    
C109  C110  S    
C192  C193  S    
C206  H197  S    
C55   C215  A    
C81   N30   A    
C207  C258  S    
C19   C50   A    
C190  C262  A    
C185  C186  S    
C27   C265  A    
C229  C282  A    
O18   Zn10  S    
C28   C262  A    
C137  C222  S    
C44   C78   S    
C93   N16   A    
C111  C114  S    
C105  H237  S    
C130  C219  S    
N6    N18   A    
C41   C86   S    
C117  H264  S    
C108  H241  S    
O33   Zn2   S    
C5    C40   A    
C209  H209  S    
C126  H286  S    
C25   H232  S    
C194  C251  S    
C131  H9    S    
C160  H80   S    
C223  O45   A    
C52   C168  A    
C173  H114  S    
O46   Zn5   S    
C10   H218  S    
C139  C224  S    
C203  C204  S    
C187  H155  S    
C165  C166  S    
C213  C265  A    
C66   C239  A    
C14   C44   A    
C163  C164  S    
C34   C93   S    
C137  H28   S    
N28   N46   A    
C205  C257  S    
C205  C206  S    
C124  O36   A    
C150  C229  S    
C182  H134  S    
C234  O48   A    
C40   C87   S    
O42   Zn4   S    
C112  O12   A    
C94   N8    A    
C167  H104  S    
C13   O11   A    
C205  H199  S    
C27   C261  A    
O6    Zn7   S    
C203  H193  S    
C29   C103  S    
C153  H64   S    
C103  N47   A    
C219  C272  A    
C245  O8    A    
C142  H36   S    
C106  H233  S    
C199  H181  S    
C6    H214  S    
C108  H239  S    
C172  H117  S    
C18   C252  A    
C132  C133  S    
C45   C91   S    
C235  C287  A    
O24   Zn11  S    
C198  C199  S    
C236  C288  A    
C41   C288  A    
C92   N2    A    
C126  C217  S    
C151  H56   S    
C170  H109  S    
C100  N45   A    
C103  N34   A    
C155  H67   S    
C70   C90   S    
C2    O10   A    
C22   H230  S    
C56   C222  A    
C60   C224  A    
C21   C50   A    
C164  H92   S    
C111  H254  S    
C118  H262  S    
N10   N33   A    
C14   C248  A    
C39   C286  A    
C141  C225  S    
C141  H38   S    
C153  H62   S    
O41   Zn4   S    
C95   N11   A    
C139  H33   S    
C231  C284  A    
O27   Zn12  S    
C148  C149  S    
C193  H162  S    
C78   N32   A    
C206  H195  S    
C16   C250  A    
C261  H112  S    
C134  C136  S    
C173  H115  S    
C6    C240  A    
C177  H123  S    
O29   Zn12  S    
C61   C225  A    
O47   Zn5   S    
C25   C51   A    
C187  C248  S    
C204  H189  S    
C36   C96   S    
C197  H173  S    
C276  H68   S    
C8    C242  A    
C134  C221  S    
C95   N14   A    
C106  H235  S    
C131  H7    S    
C92   N6    A    
C76   C253  A    
C119  C214  S    
C191  H159  S    
O11   Zn8   S    
C198  C253  S    
C54   C211  A    
C268  H267  S    
O39   Zn3   S    
C19   H227  S    
C98   N17   A    
C270  H2    S    
C143  C226  S    
C144  H41   S    
C117  H265  S    
C116  H257  S    
C64   C228  A    
C172  C173  S    
O30   Zn12  S    
C73   C250  A    
C107  H242  S    
C9    C44   A    
C225  C277  A    
C23   C48   A    
C263  H223  S    
O36   Zn3   S    
C34   C277  A    
C77   C254  A    
C201  C263  A    
C180  H130  S    
C12   C45   A    
C85   N39   A    
N40   N47   A    
C86   N22   A    
C175  H120  S    
O43   Zn4   S    
O15   Zn9   S    
C140  H30   S    
C137  C138  S    
C218  C271  A    
C42   C89   S    
C245  O2    A    
C48   C80   S    
C142  H34   S    
O14   Zn9   S    
C141  C142  S    
C70   C242  A    
C176  H128  S    
C136  H19   S    
C24   O13   A    
C284  H146  S    
C198  H183  S    
C149  H52   S    
C29   C263  A    
C161  H87   S    
C195  H167  S    
C150  H61   S    
C151  H59   S    
O25   Zn11  S    
C171  H108  S    
C165  H98   S    
C129  H3    S    
C171  H106  S    
C157  O41   A    
C31   C92   S    
C271  H13   S    
C145  H49   S    
C104  N3    A    
C37   C282  A    
C38   C285  A    
