data_mof_unit_47645.cif
_audit_creation_date              2012-10-26T18:50:27-0400
_audit_creation_method            fapswitch 2.2
_symmetry_space_group_name_H-M    P1
_symmetry_Int_Tables_number       1
_space_group_crystal_system       triclinic
_cell_length_a                    9.605438
_cell_length_b                    10.757928
_cell_length_c                    15.472347
_cell_angle_alpha                 87.08857
_cell_angle_beta                  74.105705
_cell_angle_gamma                 89.810301
_cell_volume                      1535.62515105

loop_
_atom_site_label
_atom_site_type_symbol
_atom_type_description
_atom_site_fract_x
_atom_site_fract_y
_atom_site_fract_z
_atom_type_partial_charge
C1    C     C_R   0.999239 0.262636 0.501990 0.539507
C2    C     C_R   0.235538 0.415970 0.051088 0.002856
C3    C     C_R   0.332049 0.463743 0.096475 -0.023182
C4    C     C_R   0.918189 0.499574 0.672134 0.529179
C5    C     C_R   0.086380 0.407408 0.094234 -0.144241
C6    C     C_R   0.031577 0.437336 0.184278 0.230196
C7    C     C_R   0.274040 0.499445 0.185108 -0.182904
C8    C     C_R   0.058700 0.118185 0.652300 -0.110307
C9    C     C_R   0.087063 0.047657 0.723497 -0.128591
C10   C     C_R   0.088051 0.918358 0.723159 -0.124879
C11   C     C_R   0.059614 0.858755 0.651845 -0.097553
C12   C     C_R   0.678993 0.477415 0.910926 0.032720
C13   C     C_R   0.030569 0.928343 0.578829 0.030175
C14   C     C_R   0.030566 0.059698 0.578947 0.021867
C15   C     C_R   0.996799 0.128473 0.507198 0.004494
C16   C     C_R   0.999064 0.737140 0.501588 0.523763
C17   C     C_R   0.956935 0.068847 0.439460 -0.152558
C18   C     C_R   0.956481 0.940562 0.439458 -0.158131
C19   C     C_R   0.996134 0.870505 0.507142 0.009731
C20   C     C_R   0.697742 0.663501 0.378745 -0.055794
C21   C     C_R   0.652054 0.743993 0.319329 -0.163220
C22   C     C_R   0.508352 0.745469 0.319845 -0.180572
C23   C     C_R   0.778651 0.512570 0.958190 0.038992
C24   C     C_R   0.409492 0.666233 0.379603 -0.092524
C25   C     C_R   0.451399 0.581296 0.440704 0.153817
C26   C     C_R   0.601027 0.580647 0.440475 0.154152
C27   C     C_R   0.549210 0.422791 0.556458 -0.012889
C28   C     C_R   0.081815 0.498234 0.327872 0.548098
C29   C     C_R   0.401408 0.422713 0.556363 -0.005777
C30   C     C_R   0.873541 0.499761 0.770819 -0.011176
C31   C     C_R   0.127370 0.482118 0.230206 0.012718
C32   C     C_R   0.924581 0.535598 0.912220 -0.116845
C33   C     C_R   0.972099 0.527972 0.819171 -0.118672
C34   C     C_R   0.531975 0.451419 0.958735 -0.015618
C35   C     C_R   0.728727 0.474537 0.816716 -0.135897
C36   C     C_3   0.830525 0.308433 0.227540 0.003926
C37   C     C_3   0.689671 0.293064 0.302962 -0.239232
C38   C     C_3   0.623066 0.163714 0.306306 -0.486710
C39   C     C_3   0.180705 0.192464 0.948901 -0.003581
C40   C     C_3   0.306964 0.113230 0.897936 -0.271649
C41   C     C_3   0.277361 0.974879 0.922839 -0.480659
C42   C     C_R   0.482790 0.475482 0.051641 0.023227
C43   C     C_R   0.586307 0.509210 0.096536 -0.128839
C44   C     C_R   0.731404 0.526078 0.050566 -0.142769
C45   C     C_R   0.433862 0.398942 0.917071 -0.118317
C46   C     C_R   0.289576 0.376478 0.963211 0.263049
Cu1   Cu    Cu3+1 0.140660 0.499990 0.500010 0.905587
Cu2   Cu    Cu3+1 0.859340 0.500010 0.499990 0.926741
H1    H     H_    0.806698 0.552707 0.087409 0.147773
H2    H     H_    0.809883 0.670556 0.373545 0.180327
H3    H     H_    0.728861 0.806238 0.272884 0.109418
H4    H     H_    0.340952 0.541685 0.221222 0.124214
H5    H     H_    0.472791 0.808861 0.273744 0.116485
H6    H     H_    0.301934 0.676133 0.374701 0.181569
H7    H     H_    0.326022 0.359362 0.602600 0.118010
H8    H     H_    0.001538 0.561636 0.948067 0.121655
H9    H     H_    0.084728 0.547877 0.784907 0.139073
H10   H     H_    0.655456 0.457392 0.776921 0.119451
H11   H     H_    0.559904 0.520569 0.167922 0.121853
H12   H     H_    0.011935 0.376445 0.058261 0.140142
H13   H     H_    0.467248 0.367514 0.849521 0.113305
H14   H     H_    0.908396 0.237043 0.240031 0.114214
H15   H     H_    0.807229 0.292773 0.162350 0.129406
H16   H     H_    0.711927 0.307743 0.368519 0.200674
H17   H     H_    0.610890 0.364209 0.292395 0.171352
H18   H     H_    0.597257 0.147742 0.241990 0.146495
H19   H     H_    0.521429 0.155874 0.361899 0.162709
H20   H     H_    0.698923 0.091065 0.318557 0.141776
H21   H     H_    0.079613 0.160098 0.935079 0.145970
H22   H     H_    0.163863 0.177086 0.022922 0.116086
H23   H     H_    0.928673 0.122118 0.385469 0.113285
H24   H     H_    0.324538 0.130208 0.824285 0.167009
H25   H     H_    0.407711 0.139592 0.914842 0.156871
H26   H     H_    0.267268 0.955470 0.995517 0.146651
H27   H     H_    0.368282 0.919722 0.883053 0.156093
H28   H     H_    0.175908 0.945373 0.908209 0.138074
H29   H     H_    0.055890 0.218245 0.656499 0.130248
H30   H     H_    0.106242 0.093655 0.779664 0.119007
H31   H     H_    0.108902 0.863760 0.778882 0.107766
H32   H     H_    0.057617 0.758187 0.655706 0.139676
H33   H     H_    0.927959 0.895666 0.385395 0.100772
H34   H     H_    0.584053 0.359465 0.602788 0.116299
N1    N     N_R   0.648320 0.501210 0.499140 -0.251385
N2    N     N_R   0.352470 0.501290 0.499110 -0.241945
O1    O     O_R   0.118810 0.319640 0.500010 -0.499959
O2    O     O_3   0.201259 0.319646 0.919206 -0.587646
O3    O     O_R   0.881240 0.319660 0.500000 -0.506849
O4    O     O_R   0.055570 0.499980 0.629840 -0.511867
O5    O     O_R   0.818000 0.500010 0.629830 -0.500002
O6    O     O_R   0.118760 0.680340 0.500000 -0.523577
O7    O     O_R   0.881190 0.680360 0.499990 -0.515216
O8    O     O_R   0.182000 0.499990 0.370170 -0.533217
O9    O     O_R   0.944430 0.500020 0.370160 -0.469552
O10   O     O_3   0.884173 0.430854 0.226468 -0.564198

loop_
_geom_bond_atom_site_label_1
_geom_bond_atom_site_label_2
_ccdc_geom_bond_type
C44   H1    S    
C1    O3    A    
C3    C42   A    
C16   O6    A    
C26   N1    A    
C27   C29   A    
Cu1   O8    S    
C34   C42   A    
C45   C46   A    
C2    C46   A    
C12   C23   A    
C30   C35   A    
C35   H10   S    
Cu1   O1    S    
C36   C37   S    
C7    H4    S    
C3    C7    A    
C5    C6    A    
C24   H6    S    
C18   H33   S    
C40   H25   S    
C18   C19   A    
C20   H2    S    
C41   H26   S    
C38   H18   S    
C8    C9    A    
C6    O10   S    
Cu2   O7    S    
C37   H17   S    
C25   N2    A    
C8    C14   A    
C1    C15   S    
C36   H15   S    
C9    C10   A    
C5    H12   S    
C43   H11   S    
C6    C31   A    
C21   C22   A    
C36   H14   S    
C22   H5    S    
C28   C31   S    
C1    O1    A    
C7    C31   A    
Cu2   O9    S    
C13   C19   A    
C24   C25   A    
C29   N2    A    
C11   H32   S    
C39   C40   S    
C29   H7    S    
C25   C26   A    
C23   C44   A    
C28   O9    A    
C43   C44   A    
C37   C38   S    
C41   H27   S    
Cu1   Cu2   S    
C17   C18   A    
C39   H21   S    
Cu2   O3    S    
C28   O8    A    
C34   C45   A    
Cu1   N2    S    
C38   H19   S    
C12   C35   A    
C40   C41   S    
C38   H20   S    
C17   H23   S    
Cu2   O5    S    
C8    H29   S    
Cu1   O6    S    
C22   C24   A    
C2    C5    A    
C42   C43   A    
C12   C34   A    
C21   H3    S    
C37   H16   S    
C4    O5    A    
C15   C17   A    
C33   H9    S    
C40   H24   S    
C30   C33   A    
C27   H34   S    
C23   C32   A    
C10   H31   S    
C4    O4    A    
Cu2   N1    S    
C32   C33   A    
C27   N1    A    
C2    C3    A    
Cu1   O4    S    
C41   H28   S    
C11   C13   A    
C20   C26   A    
C16   C19   S    
C45   H13   S    
C39   H22   S    
C9    H30   S    
C10   C11   A    
C36   O10   S    
C20   C21   A    
C16   O7    A    
C14   C15   A    
C39   O2    S    
C13   C14   A    
C32   H8    S    
C4    C30   S    
C46   O2    S    
