data_mof_unit_21815.cif
_audit_creation_date              2012-12-11T15:09:45-0500
_audit_creation_method            fapswitch 2.2
_symmetry_space_group_name_H-M    P1
_symmetry_Int_Tables_number       1
_space_group_crystal_system       triclinic
_cell_length_a                    21.063411
_cell_length_b                    7.129575
_cell_length_c                    13.973762
_cell_angle_alpha                 89.999874
_cell_angle_beta                  98.378721
_cell_angle_gamma                 90.00016
_cell_volume                      2076.08598334

loop_
_atom_site_label
_atom_site_type_symbol
_atom_type_description
_atom_site_fract_x
_atom_site_fract_y
_atom_site_fract_z
_atom_type_partial_charge
O1    O     O_R   0.447130 0.507140 0.597350 -0.547262
O2    O     O_R   0.552870 0.007140 0.402650 -0.547261
O3    O     O_R   0.578910 0.181280 0.586990 -0.541178
O4    O     O_R   0.421090 0.681280 0.413010 -0.541180
C1    C     C_R   0.604405 0.344483 0.607647 0.760703
C2    C     C_R   0.395595 0.844483 0.392353 0.760695
O5    O     O_R   0.449230 0.177860 0.608640 -0.532193
O6    O     O_R   0.550770 0.677860 0.391360 -0.532192
O7    O     O_R   0.422260 0.000770 0.424450 -0.523934
O8    O     O_R   0.577740 0.500770 0.575550 -0.523937
C3    C     C_R   0.432847 0.346422 0.634662 0.807533
C4    C     C_R   0.567153 0.846422 0.365338 0.807532
O9    O     O_3   0.491310 0.336980 0.439550 -0.388483
O10   O     O_3   0.508690 0.836980 0.560450 -0.388481
V1    V     V_3+5 0.501610 0.064760 0.511210 1.492708
V2    V     V_3+5 0.498390 0.564760 0.488790 1.492699
C5    C     C_R   0.614858 0.904838 0.119189 -0.203316
C6    C     C_R   0.385143 0.404809 0.880814 -0.203304
H1    H     H_    0.590090 0.923599 0.046871 0.160711
H2    H     H_    0.409912 0.423557 0.953132 0.160705
C7    C     C_R   0.606451 0.856984 0.287260 -0.160378
C8    C     C_R   0.393549 0.356980 0.712740 -0.160384
C9    C     C_R   0.914127 0.880691 0.299214 -0.183093
C10   C     C_R   0.085873 0.380706 0.700786 -0.183094
C11   C     C_R   0.876337 0.902783 0.371370 -0.109179
C12   C     C_R   0.123663 0.402805 0.628632 -0.109178
C13   C     C_R   0.810106 0.898590 0.348694 -0.053296
C14   C     C_R   0.189895 0.398607 0.651308 -0.053296
C15   C     C_R   0.779663 0.861512 0.253624 0.074047
C16   C     C_R   0.220337 0.361517 0.746376 0.074045
C17   C     C_R   0.817685 0.858287 0.176738 -0.052289
C18   C     C_R   0.182315 0.358287 0.823262 -0.052289
C19   C     C_R   0.711704 0.848427 0.233146 -0.012941
C20   C     C_R   0.288296 0.348425 0.766854 -0.012943
C21   C     C_R   0.681506 0.875221 0.136872 -0.053104
C22   C     C_R   0.318495 0.375203 0.863128 -0.053104
C23   C     C_R   0.717999 0.873481 0.060200 0.278769
C24   C     C_R   0.282002 0.373457 0.939801 0.278771
C25   C     C_R   0.785348 0.858680 0.078975 0.170112
C26   C     C_R   0.214652 0.358670 0.921025 0.170110
C27   C     C_R   0.672037 0.810551 0.305134 0.150125
C28   C     C_R   0.327963 0.310555 0.694864 0.150128
C29   C     C_R   0.578616 0.917606 0.195213 0.337811
C30   C     C_R   0.421385 0.417583 0.804789 0.337806
C31   C     C_R   0.886164 0.863001 0.202523 -0.048957
C32   C     C_R   0.113836 0.363005 0.797477 -0.048958
H3    H     H_    0.965861 0.886942 0.318371 0.101925
H4    H     H_    0.034139 0.386960 0.681630 0.101926
H5    H     H_    0.783052 0.934436 0.406001 0.159822
H6    H     H_    0.216949 0.434460 0.594001 0.159823
H7    H     H_    0.898485 0.928069 0.445127 0.127044
H8    H     H_    0.101516 0.428100 0.554875 0.127044
C33   C     C_1   0.166767 0.857253 0.167965 -0.100997
C34   C     C_1   0.833233 0.357252 0.832035 -0.100997
C35   C     C_1   0.219218 0.854970 0.218861 0.088188
C36   C     C_1   0.780782 0.354969 0.781139 0.088188
C37   C     C_1   0.280983 0.853447 0.278840 0.084862
C38   C     C_1   0.719016 0.353447 0.721159 0.084860
C39   C     C_1   0.333281 0.851067 0.330151 -0.112477
C40   C     C_1   0.666718 0.351068 0.669849 -0.112476
O11   O     O_R   0.922300 0.202240 0.924350 -0.519341
O12   O     O_R   0.077700 0.702240 0.075650 -0.519341
O13   O     O_R   0.050780 0.535130 0.891350 -0.539808
O14   O     O_R   0.949220 0.035130 0.108650 -0.539808
C41   C     C_R   0.069141 0.368538 0.867765 0.747119
C42   C     C_R   0.930859 0.868537 0.132235 0.747119
O15   O     O_R   0.921100 0.531560 0.912990 -0.521502
O16   O     O_R   0.078900 0.031560 0.087010 -0.521501
O17   O     O_R   0.947120 0.708470 0.097370 -0.532296
O18   O     O_R   0.052880 0.208470 0.902630 -0.532296
C43   C     C_R   0.895823 0.363600 0.893530 0.724783
C44   C     C_R   0.104176 0.863600 0.106470 0.724782
O19   O     O_3   0.008710 0.375800 0.060400 -0.366557
O20   O     O_3   0.991290 0.875800 0.939600 -0.366557
V3    V     V_3+5 0.998380 0.648080 0.988790 1.544636
V4    V     V_3+5 0.001620 0.148080 0.011210 1.544637
O21   O     O_3   0.513439 0.958578 0.177632 -0.581293
C45   C     C_3   0.502371 0.137909 0.134242 0.044280
H9    H     H_    0.454615 0.134649 0.088467 0.179801
H10   H     H_    0.537124 0.178142 0.084985 0.124414
C46   C     C_3   0.501202 0.288560 0.211922 -0.267365
H11   H     H_    0.458426 0.266432 0.248659 0.220996
H12   H     H_    0.545011 0.277445 0.266475 0.206781
C47   C     C_3   0.498863 0.485126 0.168448 -0.728614
H13   H     H_    0.545118 0.518271 0.142907 0.222122
H14   H     H_    0.489883 0.588910 0.223889 0.251266
H15   H     H_    0.459651 0.497452 0.106927 0.244396
O22   O     O_3   0.486563 0.458545 0.822372 -0.581296
C48   C     C_3   0.497634 0.637873 0.865763 0.044285
H16   H     H_    0.545396 0.634619 0.911521 0.179806
H17   H     H_    0.462890 0.678088 0.915037 0.124413
C49   C     C_3   0.498786 0.788535 0.788084 -0.267386
H18   H     H_    0.541556 0.766424 0.751331 0.220993
H19   H     H_    0.454971 0.777416 0.733544 0.206772
C50   C     C_3   0.501127 0.985095 0.831564 -0.728635
H20   H     H_    0.454879 0.018221 0.857128 0.222127
H21   H     H_    0.510092 0.088889 0.776119 0.251273
H22   H     H_    0.540350 0.997427 0.893068 0.244411
Br1   Br    Br    0.675631 0.888344 0.927180 -0.562385
Br2   Br    Br    0.324371 0.388294 0.072821 -0.562386
Br3   Br    Br    0.701545 0.657507 0.417810 -0.588704
Br4   Br    Br    0.298452 0.157528 0.582183 -0.588701
Br5   Br    Br    0.827930 0.851636 0.965124 -0.473989
Br6   Br    Br    0.172070 0.351638 0.034876 -0.473988

loop_
_geom_bond_atom_site_label_1
_geom_bond_atom_site_label_2
_ccdc_geom_bond_type
C16   C18   A    
O13   C41   A    
C9    C31   A    
C13   C15   A    
C50   H20   S    
C20   C28   A    
C47   H15   S    
O2    C4    A    
C2    O7    A    
C11   H7    S    
C46   H11   S    
C50   H22   S    
O21   C45   S    
O5    C3    A    
O20   V4    S    
C21   C23   A    
C10   C12   A    
C6    C30   A    
C29   O21   S    
C45   H10   S    
C37   C39   T    
C42   O17   A    
C38   C40   T    
C41   O18   A    
C15   C19   A    
C5    H1    S    
C7    C29   A    
C14   H6    S    
C8    C30   A    
C34   C43   S    
C36   C38   S    
O1    C3    A    
C48   H17   S    
C6    H2    S    
O6    C4    A    
O11   C43   A    
O5    V1    S    
O6    V2    S    
O19   V3    S    
C28   Br4   S    
C46   H12   S    
C33   C35   T    
O11   V4    S    
C34   C36   T    
C9    H3    S    
O20   V3    S    
C16   C20   A    
C10   H4    S    
C47   H13   S    
C32   C41   S    
C24   Br2   S    
C45   H9    S    
C4    C7    S    
C49   C50   S    
O14   C42   A    
O4    V2    S    
C5    C29   A    
C12   H8    S    
C26   Br6   S    
O16   C44   A    
C49   H19   S    
O14   V4    S    
O12   C44   A    
O1    V2    S    
C48   C49   S    
O2    V1    S    
C7    C27   A    
O4    C2    A    
C35   C37   S    
O18   V4    S    
O19   V4    S    
O12   V3    S    
C11   C13   A    
C23   Br1   S    
C46   C47   S    
O3    V1    S    
C1    C40   S    
C18   C32   A    
C2    C39   S    
C47   H14   S    
O3    C1    A    
C50   H21   S    
C25   Br5   S    
O16   V4    S    
C3    C8    S    
C12   C14   A    
C19   C27   A    
C22   C24   A    
O7    V1    S    
C10   C32   A    
C1    O8    A    
C23   C25   A    
O8    V2    S    
C24   C26   A    
C45   C46   S    
C8    C28   A    
O13   V3    S    
C14   C16   A    
C49   H18   S    
C19   C21   A    
C20   C22   A    
C27   Br3   S    
O17   V3    S    
O15   C43   A    
C18   C26   A    
C9    C11   A    
O15   V3    S    
O22   C48   S    
C15   C17   A    
C17   C31   A    
O9    V2    S    
C31   C42   S    
C17   C25   A    
O10   V1    S    
C5    C21   A    
C48   H16   S    
C30   O22   S    
C33   C44   S    
C6    C22   A    
C13   H5    S    
