data_mof_unit_53374.cif
_audit_creation_date              2012-12-10T16:55:00-0500
_audit_creation_method            fapswitch 2.2
_symmetry_space_group_name_H-M    P1
_symmetry_Int_Tables_number       1
_space_group_crystal_system       triclinic
_cell_length_a                    9.742205
_cell_length_b                    10.919287
_cell_length_c                    15.525743
_cell_angle_alpha                 89.189929
_cell_angle_beta                  72.794356
_cell_angle_gamma                 89.518396
_cell_volume                      1577.51311968

loop_
_atom_site_label
_atom_site_type_symbol
_atom_type_description
_atom_site_fract_x
_atom_site_fract_y
_atom_site_fract_z
_atom_type_partial_charge
C1    C     C_R   0.000905 0.265449 0.498744 0.876938
C2    C     C_R   0.218269 0.519144 0.039227 -0.089334
C3    C     C_R   0.321797 0.526749 0.086372 -0.119413
C4    C     C_R   0.915574 0.503922 0.672078 0.824422
C5    C     C_R   0.073619 0.498793 0.087050 0.629733
C6    C     C_R   0.030985 0.494300 0.180754 -0.286556
C7    C     C_R   0.281454 0.491334 0.178618 0.309157
C8    C     C_2   0.886515 0.933923 0.499872 -0.128231
C9    C     C_2   0.998192 0.866476 0.506854 -0.285166
C10   C     C_2   0.885226 0.067865 0.504524 -0.166738
C11   C     C_2   0.005221 0.133342 0.493425 -0.240155
C12   C     C_R   0.658921 0.565200 0.899956 0.068920
C13   C     C_2   0.417209 0.407788 0.524740 0.517451
C14   C     C_2   0.577664 0.403473 0.498808 -0.074806
C15   C     C_R   0.999043 0.734501 0.501371 0.832033
C16   C     C_R   0.084787 0.495336 0.327576 0.851143
C17   C     C_R   0.865476 0.529271 0.768950 -0.077738
C18   C     C_R   0.133539 0.492786 0.227911 -0.237617
C19   C     C_R   0.898774 0.627150 0.900329 -0.091284
C20   C     C_R   0.954926 0.586290 0.812012 -0.157323
C21   C     C_R   0.719642 0.514243 0.814914 -0.098500
C22   C     C_R   0.752104 0.612929 0.945771 0.160614
C23   C     C_R   0.508892 0.561600 0.943408 -0.088938
C24   C     C_R   0.462853 0.564652 0.038797 0.074198
C25   C     C_R   0.555568 0.615359 0.083401 -0.067935
C26   C     C_R   0.697403 0.643455 0.036557 -0.138098
C27   C     C_R   0.402653 0.560048 0.897027 0.330601
C28   C     C_R   0.259734 0.536136 0.945647 -0.161538
Cu1   Cu    Cu3+1 0.138640 0.500020 0.499980 1.095873
Cu2   Cu    Cu3+1 0.861360 0.499980 0.500020 1.016526
F1    F     F_    0.972421 0.487308 0.043735 -0.669674
H1    H     H_    0.766050 0.682681 0.072501 0.163582
H2    H     H_    0.179599 0.534433 0.910068 0.214005
H3    H     H_    0.969661 0.669906 0.933081 0.167720
H4    H     H_    0.067127 0.601106 0.776766 0.215895
H5    H     H_    0.653307 0.463295 0.783485 0.206646
H6    H     H_    0.517167 0.637730 0.154047 0.177002
H7    H     H_    0.507306 0.171670 0.618755 0.341657
H8    H     H_    0.491986 0.293874 0.101869 0.351054
H9    H     H_    0.558731 0.776116 0.796657 0.351660
H10   H     H_    0.791156 0.890239 0.492121 0.185131
H11   H     H_    0.091816 0.906881 0.518896 0.173089
H12   H     H_    0.781841 0.113291 0.516011 0.167879
H13   H     H_    0.110436 0.091266 0.477773 0.193483
H14   H     H_    0.408963 0.565004 0.460352 0.184306
H15   H     H_    0.630221 0.314734 0.489430 0.161526
H16   H     H_    0.596854 0.579574 0.518682 0.222560
H17   H     H_    0.917321 0.488351 0.216250 0.218960
N1    N     N_2   0.346430 0.498660 0.500980 -0.310772
N2    N     N_2   0.652550 0.498630 0.501000 -0.284421
O1    O     O_R   0.117050 0.321960 0.499980 -0.497249
O2    O     O_2   0.323674 0.176735 0.532534 -0.327776
O3    O     O_3   0.442409 0.234628 0.654928 -0.494933
O4    O     O_2   0.468661 0.482639 0.277511 -0.290682
O5    O     O_2   0.328766 0.298189 0.277038 -0.276315
O6    O     O_3   0.539589 0.347985 0.134912 -0.472363
O7    O     O_2   0.448454 0.514429 0.721381 -0.246507
O8    O     O_2   0.304002 0.694367 0.781404 -0.311515
O9    O     O_3   0.578083 0.708738 0.752556 -0.516039
O10   O     O_R   0.882890 0.321920 0.500020 -0.605435
O11   O     O_R   0.052910 0.500040 0.629810 -0.535898
O12   O     O_R   0.818750 0.499990 0.629840 -0.538191
O13   O     O_R   0.117110 0.678080 0.499980 -0.585414
O14   O     O_R   0.882950 0.678040 0.500020 -0.571139
O15   O     O_R   0.181250 0.500010 0.370160 -0.518745
O16   O     O_R   0.947090 0.499960 0.370190 -0.586403
O17   O     O_2   0.190867 0.309327 0.655703 -0.221675
S1    S     S_3+6 0.336086 0.280411 0.592418 0.070293
S2    S     S_3+6 0.405251 0.404027 0.220416 0.025540
S3    S     S_3+6 0.431764 0.619067 0.785515 -0.009083

loop_
_geom_bond_atom_site_label_1
_geom_bond_atom_site_label_2
_ccdc_geom_bond_type
C7    S2    S    
C15   O14   A    
Cu1   O13   S    
C26   H1    S    
Cu1   Cu2   S    
Cu2   O14   S    
O7    S3    D    
C19   C20   A    
O2    S1    D    
H14   N1    S    
C23   C24   A    
C7    C18   A    
C27   S3    S    
C19   C22   A    
C2    C3    A    
Cu2   N2    S    
C10   C11   D    
C11   H13   S    
C14   H15   S    
H9    O9    S    
C14   N2    D    
C13   C14   S    
C24   C25   A    
C1    O1    A    
C12   C23   A    
H7    O3    S    
C9    H11   S    
O5    S2    D    
O4    S2    D    
C6    H17   S    
C13   N1    D    
C4    C17   S    
C4    O11   A    
C8    C10   S    
Cu2   O16   S    
C28   H2    S    
H16   N2    S    
C3    C7    A    
C23   C27   A    
Cu2   O12   S    
Cu1   O1    S    
C5    C6    A    
C6    C18   A    
C12   C22   A    
Cu1   O15   S    
C2    C5    A    
C16   O16   A    
Cu1   O11   S    
O9    S3    S    
O17   S1    D    
C4    O12   A    
C17   C20   A    
Cu2   O10   S    
C8    H10   S    
C16   C18   S    
O6    S2    S    
C22   C26   A    
C1    O10   A    
C25   C26   A    
C27   C28   A    
C21   H5    S    
O3    S1    S    
C15   O13   A    
O8    S3    D    
C2    C28   A    
C16   O15   A    
Cu1   N1    S    
C25   H6    S    
C10   H12   S    
C9    C15   S    
C20   H4    S    
C12   C21   A    
C19   H3    S    
C17   C21   A    
H8    O6    S    
C3    C24   A    
C8    C9    D    
C5    F1    S    
C13   S1    S    
C1    C11   S    
