data_mof_unit_68296.cif
_audit_creation_date              2013-03-05T16:11:02-0500
_audit_creation_method            fapswitch 2.2
_symmetry_space_group_name_H-M    P1
_symmetry_Int_Tables_number       1
_space_group_crystal_system       triclinic
_cell_length_a                    16.738478
_cell_length_b                    27.716152
_cell_length_c                    8.417188
_cell_angle_alpha                 90.000081
_cell_angle_beta                  104.673519
_cell_angle_gamma                 90.133204
_cell_volume                      3777.58279171

loop_
_atom_site_label
_atom_site_type_symbol
_atom_site_description
_atom_site_fract_x
_atom_site_fract_y
_atom_site_fract_z
_atom_type_partial_charge
P1    P     P_3+3 0.171820 0.553000 0.158080 0.454154
P2    P     P_3+3 0.171820 0.447000 0.658080 0.446147
P3    P     P_3+3 0.671820 0.053000 0.158080 0.456253
P4    P     P_3+3 0.671820 0.947000 0.658080 0.447798
O1    O     O_2   0.163830 0.569270 0.980510 -0.361926
O2    O     O_2   0.163830 0.430730 0.480510 -0.362050
O3    O     O_2   0.663830 0.069270 0.980510 -0.361079
O4    O     O_2   0.663830 0.930730 0.480510 -0.361630
O5    O     O_3   0.095420 0.524330 0.188510 -0.402052
O6    O     O_3   0.095420 0.475670 0.688510 -0.405318
O7    O     O_3   0.595420 0.024330 0.188510 -0.403140
O8    O     O_3   0.595420 0.975670 0.688510 -0.405047
O9    O     O_3   0.028940 0.612400 0.656050 -0.352362
O10   O     O_3   0.028940 0.387600 0.156050 -0.375431
O11   O     O_3   0.528940 0.112400 0.656050 -0.359310
O12   O     O_3   0.528940 0.887600 0.156050 -0.375222
O13   O     O_2   0.167287 0.648139 0.843878 -0.406804
O14   O     O_2   0.165831 0.349513 0.345753 -0.403706
O15   O     O_2   0.668156 0.148556 0.845287 -0.398636
O16   O     O_2   0.666072 0.849966 0.346110 -0.402870
O17   O     O_3   0.258719 0.515494 0.200128 -0.586942
O18   O     O_3   0.258407 0.484932 0.699155 -0.599801
O19   O     O_3   0.758590 0.015374 0.199513 -0.588880
O20   O     O_3   0.758812 0.984592 0.700166 -0.598577
O21   O     O_3   0.057490 0.712307 0.715026 -0.538501
O22   O     O_3   0.055687 0.286884 0.195832 -0.531530
O23   O     O_3   0.563534 0.213029 0.699948 -0.584701
O24   O     O_3   0.556467 0.786996 0.197417 -0.531187
H1    H     H_    0.074745 0.738893 0.493393 0.057389
H2    H     H_    0.982918 0.306057 0.959062 -0.019143
H3    H     H_    0.569421 0.232438 0.462992 0.080714
H4    H     H_    0.482906 0.805818 0.961036 -0.018221
C1    C     C_3   0.946904 0.719472 0.469229 -0.922951
C2    C     C_3   0.911044 0.270103 0.099063 -0.835874
C3    C     C_3   0.444712 0.211627 0.466623 -0.879165
C4    C     C_3   0.412411 0.768603 0.100994 -0.842211
H5    H     H_    0.955567 0.682100 0.431146 0.218516
H6    H     H_    0.890003 0.305621 0.132195 0.267411
H7    H     H_    0.454826 0.174820 0.424897 0.226522
H8    H     H_    0.390293 0.803729 0.135063 0.268379
H9    H     H_    0.900904 0.719281 0.543825 0.266312
H10   H     H_    0.918251 0.245449 0.205629 0.271860
H11   H     H_    0.405704 0.209350 0.555095 0.243346
H12   H     H_    0.420511 0.743708 0.207138 0.271522
P5    P     P_3+3 0.829210 0.554130 0.532500 0.524609
P6    P     P_3+3 0.829210 0.445870 0.032500 0.518808
P7    P     P_3+3 0.329210 0.054130 0.532500 0.523397
P8    P     P_3+3 0.329210 0.945870 0.032500 0.516525
P9    P     P_3+3 0.895368 0.656338 0.008997 0.488061
P10   P     P_3+3 0.896109 0.343185 0.512023 0.471805
P11   P     P_3+3 0.392395 0.154533 0.009740 0.460699
P12   P     P_3+3 0.396205 0.843163 0.512173 0.471787
O25   O     O_2   0.837400 0.570350 0.710350 -0.292568
O26   O     O_2   0.837400 0.429650 0.210350 -0.311049
O27   O     O_2   0.337400 0.070350 0.710350 -0.297696
O28   O     O_2   0.337400 0.929650 0.210350 -0.312832
O29   O     O_3   0.972820 0.612580 0.035550 -0.397350
O30   O     O_3   0.972820 0.387420 0.535550 -0.390035
O31   O     O_3   0.472820 0.112580 0.035550 -0.375888
O32   O     O_3   0.472820 0.887420 0.535550 -0.390243
O33   O     O_2   0.843883 0.653947 0.828340 -0.351145
O34   O     O_2   0.836435 0.349865 0.340596 -0.357628
O35   O     O_2   0.349015 0.159149 0.824270 -0.413380
O36   O     O_2   0.336525 0.849807 0.340721 -0.358791
O37   O     O_3   0.748594 0.512549 0.515912 -0.583483
O38   O     O_3   0.748074 0.487300 0.008944 -0.591360
O39   O     O_3   0.249675 0.011869 0.517593 -0.581253
O40   O     O_3   0.247681 0.987114 0.008107 -0.592158
O41   O     O_3   0.941026 0.713783 0.026397 -0.540521
O42   O     O_3   0.940254 0.286403 0.501236 -0.543172
O43   O     O_3   0.438116 0.210741 0.070065 -0.587692
O44   O     O_3   0.440547 0.786418 0.501638 -0.542038
C5    C     C_3   0.027271 0.708785 0.087700 0.479867
C6    C     C_3   0.024781 0.288788 0.581125 0.482149
C7    C     C_3   0.493893 0.221546 0.976680 0.534606
C8    C     C_3   0.525020 0.788888 0.581977 0.481333
H13   H     H_    0.053318 0.685937 0.004326 0.179079
H14   H     H_    0.057228 0.314539 0.517707 0.169536
H15   H     H_    0.458817 0.228661 0.848155 0.114438
H16   H     H_    0.557513 0.814707 0.518881 0.169138
H17   H     H_    0.042299 0.692807 0.213176 0.023255
H18   H     H_    0.033852 0.299953 0.711251 -0.005275
H19   H     H_    0.539267 0.191818 0.983102 0.155319
H20   H     H_    0.533836 0.800026 0.712070 -0.005977
C9    C     C_3   0.068120 0.758165 0.097429 -0.974779
C10   C     C_3   0.063532 0.239352 0.576583 -0.988554
C11   C     C_3   0.541846 0.266983 0.044559 -1.045326
C12   C     C_3   0.564047 0.739517 0.577601 -0.987032
H21   H     H_    0.136715 0.754214 0.122837 0.230968
H22   H     H_    0.129599 0.240473 0.644979 0.224835
H23   H     H_    0.587469 0.275444 0.972872 0.254831
H24   H     H_    0.629939 0.740665 0.647170 0.225047
H25   H     H_    0.045202 0.777557 0.978785 0.274229
H26   H     H_    0.059291 0.228655 0.447884 0.286071
H27   H     H_    0.498651 0.298007 0.035736 0.264771
H28   H     H_    0.560482 0.728967 0.449034 0.285762
C13   C     C_3   0.700740 0.490300 0.845230 0.844388
C14   C     C_3   0.712063 0.500242 0.351753 0.829532
C15   C     C_3   0.199344 0.988953 0.844787 0.845583
C16   C     C_3   0.212917 0.999178 0.353699 0.830611
H29   H     H_    0.734618 0.476302 0.758061 0.049171
H30   H     H_    0.754877 0.507248 0.274314 0.058726
H31   H     H_    0.233125 0.974901 0.757502 0.050167
H32   H     H_    0.255585 0.006023 0.275800 0.059025
C17   C     C_3   0.621196 0.461031 0.824318 -1.020108
C18   C     C_3   0.633087 0.529518 0.287351 -0.987479
C19   C     C_3   0.120765 0.958896 0.827150 -1.022185
C20   C     C_3   0.133623 0.028188 0.288720 -0.983770
H33   H     H_    0.582263 0.476835 0.899658 0.250797
H34   H     H_    0.586383 0.519815 0.355114 0.268796
H35   H     H_    0.081790 0.974591 0.902658 0.251437
H36   H     H_    0.086259 0.017579 0.353722 0.268958
H37   H     H_    0.586047 0.460882 0.693370 0.247118
H38   H     H_    0.606756 0.521992 0.154938 0.241946
H39   H     H_    0.085022 0.957973 0.696564 0.246354
H40   H     H_    0.108521 0.021305 0.155535 0.241180
H41   H     H_    0.634737 0.423206 0.862466 0.253072
H42   H     H_    0.646019 0.568673 0.301590 0.239177
H43   H     H_    0.135545 0.921315 0.866946 0.253580
H44   H     H_    0.145581 0.067372 0.305893 0.241440
Ba1   Ba    Ba6+2 0.000400 0.534870 0.845190 1.593197
Ba2   Ba    Ba6+2 0.000400 0.465130 0.345190 1.587341
Ba3   Ba    Ba6+2 0.500400 0.034870 0.845190 1.588152
Ba4   Ba    Ba6+2 0.500400 0.965130 0.345190 1.587737
C21   C     C_3   0.236688 0.469359 0.135937 0.316004
C22   C     C_3   0.235906 0.531554 0.640971 0.392990
C23   C     C_3   0.736336 0.969216 0.135776 0.315653
C24   C     C_3   0.737045 0.031293 0.642185 0.389826
H45   H     H_    0.211992 0.471431 0.001070 0.088138
H46   H     H_    0.214980 0.531076 0.505316 0.077064
H47   H     H_    0.712696 0.971172 0.000688 0.088145
H48   H     H_    0.716036 0.030880 0.506505 0.075022
H49   H     H_    0.189532 0.453033 0.191680 0.124205
H50   H     H_    0.185645 0.545799 0.692029 0.113447
H51   H     H_    0.688316 0.953238 0.189941 0.124858
H52   H     H_    0.687062 0.045806 0.693507 0.111578
C25   C     C_3   0.313186 0.436972 0.177630 -0.477966
C26   C     C_3   0.310472 0.565330 0.698181 -0.491270
C27   C     C_3   0.812284 0.936425 0.180363 -0.474582
C28   C     C_3   0.812312 0.064567 0.699391 -0.493257
H53   H     H_    0.294451 0.399145 0.144393 0.174196
H54   H     H_    0.288143 0.603103 0.690321 0.155966
H55   H     H_    0.793271 0.898767 0.145572 0.174904
H56   H     H_    0.790814 0.102483 0.692920 0.152365
H57   H     H_    0.340934 0.438044 0.312260 0.212440
H58   H     H_    0.340975 0.558445 0.829763 0.213403
H59   H     H_    0.838443 0.937137 0.315474 0.211800
H60   H     H_    0.843068 0.057315 0.830616 0.214779
O45   O     O_3   0.904940 0.476110 0.001150 -0.373867
O46   O     O_3   0.904940 0.523890 0.501150 -0.387026
O47   O     O_3   0.404940 0.976110 0.001150 -0.374935
O48   O     O_3   0.404940 0.023890 0.501150 -0.385408
P13   P     P_3+3 0.103296 0.342308 0.177373 0.425464
P14   P     P_3+3 0.103671 0.657848 0.678924 0.428551
P15   P     P_3+3 0.603556 0.842508 0.177898 0.426389
P16   P     P_3+3 0.606189 0.156577 0.677036 0.419741
C29   C     C_3   0.029615 0.739462 0.569601 0.647411
C30   C     C_3   0.992804 0.276629 0.052295 0.697495
C31   C     C_3   0.528141 0.235118 0.547230 0.619765
C32   C     C_3   0.493876 0.776282 0.053949 0.699639
H61   H     H_    0.922756 0.740962 0.356139 0.229134
H62   H     H_    0.863191 0.255123 0.994449 0.188939
H63   H     H_    0.411029 0.232282 0.357720 0.244849
H64   H     H_    0.364922 0.753377 0.996228 0.189794
H65   H     H_    0.052900 0.779725 0.197347 0.250095
H66   H     H_    0.031047 0.211804 0.632709 0.257335
H67   H     H_    0.575699 0.261333 0.175285 0.258721
H68   H     H_    0.531304 0.711832 0.632576 0.257841
C33   C     C_2   0.861589 0.382245 0.786005 -0.403230
C34   C     C_2   0.853344 0.612913 0.268778 -0.419168
C35   C     C_2   0.361990 0.882516 0.786124 -0.402684
C36   C     C_2   0.344784 0.108658 0.255803 -0.423169
C37   C     C_R   0.137811 0.617711 0.398733 -0.511449
C38   C     C_R   0.138178 0.382418 0.899009 -0.520178
C39   C     C_R   0.639864 0.117126 0.398369 -0.485271
C40   C     C_R   0.637662 0.882395 0.898231 -0.523615
C41   C     C_2   0.752749 0.356770 0.917985 -0.287371
C42   C     C_2   0.753011 0.642551 0.415655 -0.266740
C43   C     C_2   0.254871 0.856194 0.921453 -0.286789
C44   C     C_2   0.252147 0.141928 0.414184 -0.266076
C45   C     C_2   0.813374 0.390481 0.907711 0.233489
C46   C     C_2   0.810437 0.607606 0.400690 0.226843
C47   C     C_2   0.314303 0.890402 0.908973 0.236807
C48   C     C_2   0.307051 0.106002 0.395443 0.207214
C49   C     C_2   0.838239 0.347500 0.671606 0.219247
C50   C     C_2   0.830930 0.648185 0.156350 0.256312
C51   C     C_2   0.338619 0.847664 0.672188 0.220879
C52   C     C_2   0.322228 0.143696 0.143325 0.321333
C53   C     C_3   0.761977 0.321306 0.660770 0.103404
C54   C     C_3   0.758350 0.676936 0.154886 0.043758
C55   C     C_3   0.262663 0.821368 0.663089 0.100925
C56   C     C_3   0.252753 0.174733 0.147852 0.025242
C57   C     C_3   0.742145 0.314271 0.819340 -0.045348
C58   C     C_3   0.745706 0.685289 0.319172 -0.009185
C59   C     C_3   0.244771 0.813727 0.823066 -0.044651
C60   C     C_3   0.243863 0.183977 0.314489 -0.013095
C61   C     C_2   0.751663 0.276160 0.555367 -0.173485
C62   C     C_2   0.749095 0.722130 0.049815 -0.140476
C63   C     C_2   0.251442 0.776592 0.556337 -0.171101
C64   C     C_2   0.244875 0.220201 0.043325 -0.131155
C65   C     C_2   0.242670 0.731843 0.611313 -0.213012
C66   C     C_2   0.234763 0.264843 0.099330 -0.170065
C67   C     C_2   0.743957 0.231389 0.611574 -0.198594
C68   C     C_2   0.737832 0.766601 0.104840 -0.169789
C69   C     C_R   0.262426 0.684325 0.364123 0.070786
C70   C     C_R   0.258330 0.314026 0.857395 0.031825
C71   C     C_R   0.764846 0.183686 0.364645 0.077829
C72   C     C_R   0.760338 0.815111 0.861153 0.065309
C73   C     C_R   0.221039 0.690843 0.497388 -0.022012
C74   C     C_R   0.216259 0.307081 0.989603 -0.033182
C75   C     C_R   0.724171 0.189768 0.499208 -0.033347
C76   C     C_R   0.718179 0.808256 0.993218 -0.043426
C77   C     C_R   0.243559 0.641435 0.258369 -0.335365
C78   C     C_R   0.242150 0.357963 0.756005 -0.296891
C79   C     C_R   0.745271 0.140999 0.257803 -0.321893
C80   C     C_R   0.743080 0.858554 0.757809 -0.306408
C81   C     C_R   0.185762 0.609711 0.275757 0.322462
C82   C     C_R   0.185750 0.390226 0.775531 0.320046
C83   C     C_R   0.687020 0.109497 0.274872 0.333323
C84   C     C_R   0.685667 0.890347 0.775514 0.322572
C85   C     C_R   0.156867 0.655499 0.511719 0.139166
C86   C     C_R   0.156087 0.344223 0.010091 0.156248
C87   C     C_R   0.660861 0.153833 0.513867 0.153148
C88   C     C_R   0.656375 0.844619 0.010826 0.155441
H69   H     H_    0.717221 0.360909 0.008399 0.200055
H70   H     H_    0.718207 0.639093 0.507733 0.192318
H71   H     H_    0.219694 0.860069 0.012577 0.200886
H72   H     H_    0.221520 0.140192 0.513283 0.193959
H73   H     H_    0.279088 0.635135 0.169377 0.169163
H74   H     H_    0.277585 0.364158 0.666734 0.165985
H75   H     H_    0.780478 0.134691 0.168256 0.165675
H76   H     H_    0.778841 0.864921 0.669199 0.167911
H77   H     H_    0.914738 0.404966 0.788132 0.163823
H78   H     H_    0.905126 0.589498 0.268103 0.169085
H79   H     H_    0.414789 0.905439 0.787363 0.164272
H80   H     H_    0.395813 0.084804 0.253409 0.171387
H81   H     H_    0.090649 0.591833 0.407604 0.174411
H82   H     H_    0.092604 0.408909 0.910526 0.174806
H83   H     H_    0.592012 0.091589 0.406248 0.170371
H84   H     H_    0.591245 0.908520 0.908170 0.176013
H85   H     H_    0.744941 0.281180 0.424687 0.182302
H86   H     H_    0.744839 0.717295 0.919938 0.170407
H87   H     H_    0.244366 0.781917 0.425696 0.182180
H88   H     H_    0.240475 0.215514 0.913358 0.165281
H89   H     H_    0.244608 0.725644 0.739374 0.175440
H90   H     H_    0.233916 0.270346 0.226312 0.181630
H91   H     H_    0.745829 0.225524 0.739797 0.178091
H92   H     H_    0.736954 0.772218 0.231773 0.182903
C89   C     C_3   0.377351 0.452522 0.085961 -0.274049
C90   C     C_3   0.455068 0.421808 0.135589 -0.830338
H93   H     H_    0.439443 0.382963 0.114569 0.257706
H94   H     H_    0.497856 0.432118 0.059940 0.272874
H95   H     H_    0.486521 0.427856 0.267020 0.274695
H96   H     H_    0.394549 0.491014 0.112224 0.228518
H97   H     H_    0.350907 0.448257 0.951992 0.223731
C91   C     C_3   0.373740 0.561433 0.594610 -0.260601
C92   C     C_3   0.419081 0.513231 0.615888 -0.718886
H98   H     H_    0.468868 0.514403 0.550396 0.241746
H99   H     H_    0.446806 0.505957 0.748020 0.245282
H100  H     H_    0.376407 0.483445 0.562669 0.257570
H101  H     H_    0.343081 0.567111 0.462832 0.203800
H102  H     H_    0.420181 0.590688 0.633008 0.207961
C93   C     C_3   0.878403 0.951712 0.093233 -0.276827
C94   C     C_3   0.954380 0.919497 0.142468 -0.825966
H103  H     H_    0.937029 0.881089 0.115263 0.260032
H104  H     H_    0.999095 0.930074 0.071356 0.273752
H105  H     H_    0.984412 0.923672 0.275480 0.274960
H106  H     H_    0.897391 0.989723 0.124378 0.228348
H107  H     H_    0.852966 0.948913 0.958445 0.223540
C95   C     C_3   0.875042 0.060398 0.594702 -0.260651
C96   C     C_3   0.919593 0.011943 0.614873 -0.714588
H108  H     H_    0.948195 0.004707 0.746674 0.245341
H109  H     H_    0.876212 0.982338 0.563244 0.256592
H110  H     H_    0.968580 0.012669 0.547359 0.243134
H111  H     H_    0.844054 0.066285 0.463184 0.201683
H112  H     H_    0.922007 0.089390 0.632850 0.209190
C97   C     C_3   0.020240 0.792224 0.620217 -0.345959
C98   C     C_3   0.016250 0.828364 0.481311 -0.954244
H113  H     H_    0.073963 0.826988 0.439643 0.282744
H114  H     H_    0.962338 0.821200 0.376178 0.267069
H115  H     H_    0.009989 0.865325 0.527196 0.275073
H116  H     H_    0.964424 0.796141 0.667921 0.208912
H117  H     H_    0.074393 0.802105 0.721743 0.202830
C99   C     C_3   0.014891 0.230985 0.968233 -0.425061
C100  C     C_3   0.027048 0.185899 0.076514 -0.790513
H118  H     H_    0.072879 0.192740 0.194700 0.269580
H119  H     H_    0.967721 0.174265 0.100618 0.241704
H120  H     H_    0.050156 0.156003 0.012520 0.258190
H121  H     H_    0.965447 0.223638 0.854858 0.179710
H122  H     H_    0.072654 0.237942 0.930585 0.192400
C101  C     C_3   0.516817 0.289103 0.580856 -0.373738
C102  C     C_3   0.507920 0.320870 0.428958 -0.917028
H123  H     H_    0.564921 0.319213 0.384416 0.279888
H124  H     H_    0.453966 0.309761 0.329094 0.270483
H125  H     H_    0.498784 0.358872 0.462247 0.270278
H126  H     H_    0.462281 0.294249 0.631951 0.197619
H127  H     H_    0.571679 0.302190 0.675125 0.212601
C103  C     C_3   0.517487 0.731114 0.969576 -0.424299
C104  C     C_3   0.530677 0.685885 0.077219 -0.791107
H128  H     H_    0.575577 0.693018 0.196325 0.269041
H129  H     H_    0.471438 0.673346 0.099524 0.241896
H130  H     H_    0.555389 0.656516 0.013674 0.259394
H131  H     H_    0.468396 0.723521 0.855903 0.179875
H132  H     H_    0.575230 0.738796 0.932622 0.192230
N1    N     N_R   0.679304 0.540958 0.806384 0.243385
O49   O     O_R   0.631622 0.552782 0.664346 -0.436459
O50   O     O_R   0.704551 0.574517 0.915883 -0.411071
N2    N     N_R   0.691160 0.448789 0.342653 0.239777
O51   O     O_R   0.659863 0.428472 0.201316 -0.438730
O52   O     O_R   0.701570 0.423023 0.475522 -0.435535
N3    N     N_R   0.176128 0.039220 0.802939 0.242919
O53   O     O_R   0.127693 0.050011 0.660562 -0.438158
O54   O     O_R   0.200113 0.073413 0.910630 -0.417880
N4    N     N_R   0.192319 0.947690 0.345920 0.239480
O55   O     O_R   0.161488 0.927004 0.205030 -0.439258
O56   O     O_R   0.201679 0.922386 0.479562 -0.439663

loop_
_geom_bond_atom_site_label_1
_geom_bond_atom_site_label_2
_geom_bond_distance
_ccdc_geom_bond_type
C15   H31   1.105750 S    
C91   H102  1.111749 S    
C20   H44   1.106685 S    
C101  C102  1.528476 S    
C2    H10   1.109778 S    
C43   C59   1.424041 A    
C62   H86   1.085640 S    
C41   C57   1.425750 A    
P16   C87   1.834832 S    
P6    C45   1.840477 S    
C35   C47   1.474152 S    
C99   C100  1.529975 S    
C11   H23   1.111257 S    
C90   H94   1.109129 S    
C96   H108  1.109753 S    
C16   H32   1.101197 S    
C11   H67   1.113959 S    
P9    C50   1.851851 S    
C12   H68   1.108975 S    
C38   C86   1.394357 A    
P2    O18   1.750559 S    
P12   C51   1.848524 S    
P4    O8    1.582112 S    
C44   C60   1.422461 A    
C13   C17   1.529062 S    
C70   C78   1.472768 S    
C90   H95   1.110698 S    
C30   C99   1.540266 S    
C99   H122  1.107601 S    
P9    O41   1.754467 S    
C18   H42   1.106667 S    
P11   O43   1.751596 S    
C5    H17   1.113907 S    
P3    Ba3   3.403888 S    
P5    C46   1.830842 S    
C36   H80   1.085574 S    
O27   Ba3   2.853567 S    
O30   Ba2   2.790976 S    
C65   H89   1.083874 S    
Ba2   O45   2.947838 S    
C10   H22   1.110246 S    
P5    Ba1   3.407249 S    
N4    O55   1.299988 A    
C14   H30   1.100982 S    
C3    H63   1.107039 S    
C50   C54   1.451899 A    
C1    H61   1.109255 S    
P12   O44   1.752455 S    
P7    Ba3   3.407249 S    
C72   C76   1.471931 S    
C75   C87   1.480385 S    
C68   C76   1.472763 S    
O12   P15   1.745442 S    
C42   C46   1.394110 A    
O39   C16   1.405113 S    
C89   H97   1.108312 S    
C62   C68   1.347079 D    
C4    H12   1.109849 S    
C103  C104  1.530035 S    
C56   C60   1.470044 A    
C77   H73   1.082322 S    
O38   C13   1.407388 S    
C53   C61   1.517904 S    
O23   P16   1.752160 S    
Ba3   O48   2.947070 S    
O21   P14   1.758576 S    
O3    Ba3   2.845882 S    
C14   C18   1.530267 S    
C9    H65   1.112917 S    
C102  H124  1.109543 S    
P10   O42   1.752250 S    
P13   C86   1.842917 S    
C100  H119  1.109900 S    
Ba1   O45   2.824777 S    
O22   C30   1.415178 S    
C56   C64   1.523685 S    
O12   Ba4   2.787525 S    
C23   H47   1.106603 S    
O9    P14   1.749043 S    
P3    O7    1.579125 S    
C29   C97   1.542584 S    
C21   H45   1.106902 S    
P7    O48   1.597913 S    
C22   H50   1.110425 S    
C64   C66   1.350243 D    
P8    O47   1.594819 S    
P2    C82   1.841932 S    
C5    H13   1.113503 S    
P6    Ba2   3.405161 S    
C7    H15   1.110268 S    
C23   C27   1.531851 S    
C44   C48   1.392363 A    
C97   H116  1.111936 S    
C74   C86   1.482141 S    
C27   C93   1.533375 S    
O7    Ba4   2.830485 S    
P8    O28   1.535647 D    
Ba3   Ba4   4.631247 S    
C35   H79   1.085151 S    
C89   C90   1.523559 S    
C33   H77   1.085215 S    
C17   H37   1.110176 S    
C37   H81   1.081854 S    
O23   C31   1.412112 S    
O24   C32   1.414817 S    
P9    O29   1.749885 S    
P4    Ba4   3.405856 S    
C92   H98   1.109971 S    
P11   C52   1.844275 S    
P12   O32   1.747217 S    
C9    H25   1.113655 S    
C94   H103  1.111250 S    
N1    O50   1.301557 A    
C11   H27   1.115047 S    
C38   C82   1.476341 S    
C3    H11   1.109509 S    
C64   H88   1.085435 S    
P3    C83   1.831543 S    
P5    O25   1.535460 D    
C97   C98   1.528264 S    
C34   C46   1.474375 S    
C71   C75   1.471753 S    
C67   C75   1.474616 S    
C65   C73   1.471096 S    
N2    O52   1.301151 A    
C16   C20   1.531152 S    
C78   C82   1.341777 D    
O42   C6    1.405666 S    
O9    Ba1   2.785819 S    
C70   C74   1.472320 S    
C5    C9    1.521384 S    
C7    C11   1.523032 S    
Ba4   O47   2.947838 S    
C4    C32   1.527641 S    
N3    O54   1.301846 A    
P5    O37   1.750955 S    
C63   C65   1.344443 D    
C76   C88   1.480001 S    
C17   H33   1.108776 S    
C39   C87   1.388859 A    
C40   C88   1.394177 A    
C19   H35   1.109113 S    
C95   H111  1.109340 S    
C8    H16   1.111074 S    
C2    H62   1.109268 S    
C16   N4    1.464896 S    
C49   C53   1.449685 A    
C13   N1    1.466256 S    
C52   C56   1.456332 A    
C92   H100  1.107976 S    
C24   C28   1.535211 S    
O8    Ba3   2.834768 S    
C26   H58   1.112533 S    
C94   H105  1.110929 S    
C41   C45   1.396528 A    
C103  H131  1.111692 S    
C43   H71   1.084268 S    
C104  H130  1.110595 S    
C55   C59   1.466885 A    
C41   H69   1.084235 S    
C53   C57   1.467599 A    
C93   H107  1.108868 S    
P6    O45   1.594819 S    
C67   H91   1.084040 S    
O20   C24   1.399451 S    
C98   H113  1.108834 S    
O22   P13   1.753836 S    
C96   H110  1.109824 S    
C12   H28   1.107866 S    
O10   Ba2   2.787525 S    
O16   P15   1.546216 D    
C73   C85   1.479431 S    
C10   H66   1.109063 S    
C37   C85   1.395646 A    
C8    H20   1.110883 S    
C63   H87   1.085865 S    
C93   C94   1.524640 S    
C42   C58   1.424070 A    
C61   H85   1.085956 S    
P1    O1    1.534339 D    
Ba2   O46   2.829056 S    
C25   H57   1.110880 S    
C23   H51   1.110874 S    
O37   C14   1.403736 S    
P6    O38   1.753034 S    
P3    O3    1.534339 D    
C24   H52   1.110428 S    
P4    O20   1.750119 S    
C22   H46   1.106347 S    
N4    O56   1.301163 A    
H2    C30   1.115043 S    
P5    O46   1.597913 S    
C15   N3    1.466051 S    
P4    C84   1.839000 S    
C98   H115  1.109313 S    
O24   P15   1.753687 S    
O41   C5    1.411724 S    
O44   C8    1.405838 S    
C69   C77   1.470039 S    
C89   H96   1.111871 S    
C91   H101  1.109255 S    
O15   P16   1.545244 D    
C17   H41   1.103554 S    
C6    H18   1.110866 S    
C26   C91   1.536691 S    
O13   P14   1.544789 D    
C19   H43   1.103450 S    
C1    C29   1.530136 S    
P2    Ba2   3.405856 S    
O31   Ba3   2.792628 S    
C93   H106  1.111702 S    
C66   H90   1.083305 S    
Ba3   O47   2.824777 S    
P9    O33   1.547640 D    
C14   N2    1.464957 S    
P10   O30   1.747836 S    
C80   C84   1.341171 D    
P11   O35   1.551417 D    
P12   O36   1.544332 D    
C9    H21   1.119020 S    
O4    Ba4   2.850141 S    
H1    C29   1.108101 S    
C21   C25   1.531721 S    
C90   H93   1.110881 S    
C44   H72   1.085094 S    
C1    H5    1.104954 S    
C20   H36   1.110414 S    
C3    H7    1.106184 S    
C104  H128  1.107509 S    
C100  H118  1.107590 S    
C79   C83   1.341881 D    
C13   H29   1.105551 S    
C34   C50   1.346792 D    
C71   C79   1.471342 S    
O5    Ba2   2.830485 S    
P1    O5    1.579125 S    
P8    O40   1.753997 S    
C33   C45   1.473959 S    
Ba1   Ba2   4.631247 S    
C40   H84   1.081879 S    
C99   H121  1.111845 S    
C26   H54   1.108783 S    
O17   C21   1.399941 S    
C78   H74   1.082236 S    
C54   C62   1.518762 S    
O19   C23   1.399911 S    
C25   H53   1.108963 S    
C28   H56   1.108438 S    
P7    C48   1.822386 S    
P8    C47   1.836722 S    
C25   C89   1.533741 S    
C15   C19   1.530361 S    
C6    H14   1.111031 S    
C1    H9    1.109966 S    
C20   H40   1.109354 S    
P14   C85   1.847428 S    
C101  H126  1.112703 S    
O25   Ba1   2.853567 S    
C7    H19   1.113878 S    
C28   C95   1.536789 S    
C31   C101  1.543798 S    
C94   H104  1.109220 S    
N1    O49   1.300599 A    
C40   C84   1.476774 S    
C4    H64   1.109458 S    
C95   C96   1.526110 S    
P1    C81   1.840474 S    
N3    O53   1.300708 A    
P1    O17   1.751510 S    
P3    O19   1.751878 S    
P4    O4    1.534156 D    
O6    Ba1   2.834768 S    
C28   H60   1.112585 S    
C34   H78   1.085153 S    
C27   H59   1.110465 S    
O11   Ba3   2.785819 S    
C18   H38   1.109360 S    
C79   H75   1.082346 S    
C102  H123  1.111039 S    
C55   C63   1.515329 S    
C100  H120  1.110585 S    
C38   H82   1.081887 S    
C39   H83   1.082217 S    
O18   C22   1.400090 S    
O1    Ba1   2.845882 S    
Ba1   O46   2.947070 S    
O32   Ba4   2.790976 S    
C32   C103  1.540225 S    
C10   H26   1.107878 S    
C12   H24   1.110409 S    
C37   C81   1.478701 S    
C8    C12   1.522115 S    
C51   C55   1.449082 A    
O28   Ba4   2.849192 S    
Ba4   O48   2.829056 S    
C72   C80   1.471120 S    
P6    O26   1.535647 D    
P15   C88   1.841822 S    
P2    O2    1.534156 D    
C27   H55   1.108014 S    
C66   C74   1.475187 S    
C24   H48   1.106606 S    
P7    O39   1.751628 S    
C43   C47   1.395764 A    
C95   H112  1.111743 S    
C4    H8    1.105704 S    
C77   C81   1.340991 D    
C92   H99   1.109918 S    
C36   C48   1.470280 S    
C69   C73   1.471411 S    
C97   H117  1.110548 S    
C91   C92   1.526004 S    
C103  H132  1.107973 S    
C6    C10   1.521932 S    
C104  H129  1.109931 S    
C19   H39   1.110650 S    
O11   P16   1.754771 S    
C68   H92   1.083478 S    
O14   P13   1.546502 D    
C2    C30   1.527216 S    
O10   P13   1.746769 S    
O21   C29   1.412365 S    
P10   O34   1.544259 D    
C98   H114  1.109709 S    
P11   O31   1.752309 S    
O2    Ba2   2.850141 S    
P2    O6    1.582112 S    
N2    O51   1.299890 A    
P7    O27   1.535460 D    
C18   H34   1.110708 S    
C21   H49   1.110816 S    
C96   H109  1.107594 S    
C22   C26   1.534970 S    
P1    Ba1   3.403888 S    
C2    H6    1.105578 S    
C39   C83   1.471303 S    
C102  H125  1.110717 S    
P8    Ba4   3.405161 S    
C35   C51   1.346841 D    
O40   C15   1.408444 S    
C33   C49   1.347175 D    
O43   C7    1.396307 S    
C36   C52   1.342586 D    
C80   H76   1.082323 S    
C61   C67   1.345517 D    
O26   Ba2   2.849192 S    
C101  H127  1.110747 S    
C3    C31   1.533011 S    
C42   H70   1.085226 S    
C54   C58   1.469379 A    
O29   Ba1   2.792628 S    
P10   C49   1.848416 S    
H3    C31   1.110919 S    
H4    C32   1.115092 S    
