data_mof_unit_30976.cif
_audit_creation_date              2012-12-10T19:03:08-0500
_audit_creation_method            fapswitch 2.2
_symmetry_space_group_name_H-M    P1
_symmetry_Int_Tables_number       1
_space_group_crystal_system       triclinic
_cell_length_a                    10.720179
_cell_length_b                    10.830873
_cell_length_c                    9.551643
_cell_angle_alpha                 90.44328
_cell_angle_beta                  89.723363
_cell_angle_gamma                 90.67539
_cell_volume                      1108.90805293

loop_
_atom_site_label
_atom_site_type_symbol
_atom_type_description
_atom_site_fract_x
_atom_site_fract_y
_atom_site_fract_z
_atom_type_partial_charge
C1    C     C_R   0.496229 0.262555 0.499571 0.805379
C2    C     C_3   0.877953 0.492428 0.499113 -0.031066
C3    C     C_3   0.929080 0.624799 0.527324 0.356095
C4    C     C_3   0.928887 0.445238 0.355767 0.484258
C5    C     C_R   0.503368 0.066123 0.624246 0.038633
C6    C     C_R   0.484380 0.129593 0.500141 -0.054431
C7    C     C_R   0.453695 0.062848 0.378311 -0.195241
C8    C     C_R   0.456984 0.934053 0.378940 -0.206924
C9    C     C_R   0.492152 0.871378 0.500965 -0.043508
C10   C     C_R   0.509656 0.939110 0.624729 0.049463
C11   C     C_3   0.617252 0.942746 0.725079 0.282623
C12   C     C_R   0.259881 0.496020 0.500137 0.789038
C13   C     C_3   0.606777 0.082576 0.726177 -0.493374
C14   C     C_R   0.607768 0.521094 0.073200 0.279977
C15   C     C_R   0.396240 0.467123 0.074483 -0.091863
C16   C     C_R   0.396103 0.467560 0.925937 -0.084224
C17   C     C_R   0.608246 0.518732 0.925816 0.264293
C18   C     C_3   0.690747 0.629553 0.918149 -0.539953
C19   C     C_3   0.686904 0.635344 0.076772 -0.468495
C20   C     C_R   0.500390 0.737853 0.500390 0.849198
C21   C     C_R   0.739932 0.495093 0.499665 0.871225
C22   C     C_3   0.070368 0.404404 0.613933 -0.398665
C23   C     C_3   0.926482 0.405705 0.615309 -0.459666
C24   C     C_3   0.072970 0.624912 0.529581 -0.447794
C25   C     C_3   0.072105 0.448183 0.355593 -0.409703
C26   C     C_3   0.121841 0.493267 0.500013 0.033221
Cu1   Cu    Cu3+1 0.499990 0.499980 0.640670 0.943285
Cu2   Cu    Cu3+1 0.500010 0.500020 0.359330 0.972179
H1    H     H_    0.105023 0.432672 0.719170 0.176681
H2    H     H_    0.896316 0.504954 0.269896 0.114631
H3    H     H_    0.110538 0.690193 0.449937 0.201516
H4    H     H_    0.432195 0.109737 0.281781 0.159207
H5    H     H_    0.436329 0.884192 0.282924 0.158069
H6    H     H_    0.594299 0.899699 0.827335 0.059385
H7    H     H_    0.573325 0.120192 0.828063 0.165290
H8    H     H_    0.688844 0.132089 0.680724 0.208268
H9    H     H_    0.311659 0.441437 0.129377 0.140455
H10   H     H_    0.103304 0.308877 0.593163 0.182341
H11   H     H_    0.311372 0.442564 0.871400 0.138060
H12   H     H_    0.784439 0.607008 0.875435 0.182863
H13   H     H_    0.644117 0.707377 0.867007 0.220370
H14   H     H_    0.779494 0.620465 0.124339 0.212757
H15   H     H_    0.636024 0.716744 0.118451 0.217863
H16   H     H_    0.889316 0.310261 0.599441 0.218581
H17   H     H_    0.893760 0.437685 0.720085 0.168278
H18   H     H_    0.106124 0.658138 0.633695 0.142557
H19   H     H_    0.893956 0.658492 0.630283 0.108902
H20   H     H_    0.105163 0.511238 0.271293 0.139366
H21   H     H_    0.108634 0.354639 0.331002 0.196424
N1    N     N_R   0.500800 0.500930 0.147930 -0.190187
N2    N     N_R   0.500800 0.500890 0.852020 -0.186404
O1    O     O_R   0.500000 0.319640 0.618810 -0.583258
O2    O     O_R   0.500010 0.319680 0.381230 -0.575973
O3    O     O_R   0.317690 0.499960 0.618790 -0.598094
O4    O     O_R   0.317700 0.500000 0.381210 -0.602556
O5    O     O_R   0.499990 0.680320 0.618770 -0.583020
O6    O     O_R   0.500000 0.680360 0.381190 -0.582378
O7    O     O_R   0.682300 0.500000 0.618790 -0.604487
O8    O     O_R   0.682310 0.500040 0.381210 -0.548413
F1    F     F_    0.887751 0.704970 0.425336 -0.680539
O9    O     O_3   0.728580 0.902219 0.660348 -0.559155
C27   C     C_3   0.830238 0.913825 0.753887 0.067584
H22   H     H_    0.848471 0.822173 0.800134 0.143497
H23   H     H_    0.814088 0.980502 0.841741 0.134259
C28   C     C_3   0.945590 0.957296 0.672392 -0.292744
H24   H     H_    0.962256 0.894416 0.582090 0.271968
H25   H     H_    0.929203 0.051419 0.631176 0.220444
C29   C     C_3   0.061546 0.960288 0.764439 -0.960500
H26   H     H_    0.048263 0.024689 0.854210 0.266100
H27   H     H_    0.143169 0.992435 0.701990 0.260260
H28   H     H_    0.081070 0.866455 0.804422 0.255080
F2    F     F_    0.885975 0.326110 0.328632 -0.677308

loop_
_geom_bond_atom_site_label_1
_geom_bond_atom_site_label_2
_ccdc_geom_bond_type
C2    C4    S    
Cu2   O2    S    
C16   N2    A    
C21   O8    A    
C6    C7    A    
C23   H17   S    
C22   H1    S    
C9    C10   A    
C9    C20   S    
C5    C13   S    
C14   C17   A    
C19   H14   S    
C27   H23   S    
C20   O5    A    
C28   C29   S    
C24   H18   S    
C3    F1    S    
C17   N2    A    
C2    C21   S    
C17   C18   S    
C20   O6    A    
Cu1   O3    S    
C4    H2    S    
C7    C8    A    
C14   N1    A    
Cu2   O6    S    
C15   H9    S    
C11   C13   S    
C25   H20   S    
C3    C24   S    
C27   H22   S    
C15   N1    A    
C29   H28   S    
Cu1   Cu2   S    
C5    C6    A    
C3    H19   S    
Cu2   O4    S    
Cu1   N2    S    
C13   H7    S    
C2    C3    S    
C8    H5    S    
O9    C27   S    
C24   C26   S    
C1    O1    A    
C25   H21   S    
C18   H13   S    
C12   O4    A    
C28   H25   S    
C10   C11   S    
C23   H16   S    
C16   H11   S    
C5    C10   A    
C15   C16   A    
C22   H10   S    
C4    C25   S    
C4    F2    S    
Cu1   O1    S    
C13   H8    S    
C29   H27   S    
C28   H24   S    
C22   C26   S    
Cu2   O8    S    
C12   C26   S    
C2    C23   S    
C18   H12   S    
Cu1   O5    S    
C18   C19   S    
C1    O2    A    
C7    H4    S    
C27   C28   S    
C24   H3    S    
C25   C26   S    
C22   C23   S    
Cu2   N1    S    
C14   C19   S    
C29   H26   S    
C11   H6    S    
C12   O3    A    
C21   O7    A    
C1    C6    S    
C19   H15   S    
C8    C9    A    
C11   O9    S    
Cu1   O7    S    
