data_mof_unit_67248.cif
_audit_creation_date              2012-12-11T18:15:43-0500
_audit_creation_method            fapswitch 2.2
_symmetry_space_group_name_H-M    P1
_symmetry_Int_Tables_number       1
_space_group_crystal_system       triclinic
_cell_length_a                    20.133158
_cell_length_b                    20.080805
_cell_length_c                    8.437712
_cell_angle_alpha                 89.748425
_cell_angle_beta                  91.946489
_cell_angle_gamma                 90.354146
_cell_volume                      3409.21943368

loop_
_atom_site_label
_atom_site_type_symbol
_atom_type_description
_atom_site_fract_x
_atom_site_fract_y
_atom_site_fract_z
_atom_type_partial_charge
Ba1   Ba    Ba6+2 0.999980 0.452130 0.155200 1.622258
Ba2   Ba    Ba6+2 0.999980 0.547870 0.655200 1.648597
Ba3   Ba    Ba6+2 0.499980 0.952130 0.155200 1.629223
Ba4   Ba    Ba6+2 0.499980 0.047870 0.655200 1.643159
C1    C     C_3   0.954969 0.134860 0.441250 -0.032224
C2    C     C_R   0.126777 0.651832 0.157262 -0.084932
C3    C     C_R   0.613043 0.837370 0.675627 -0.119478
C4    C     C_R   0.628227 0.151063 0.151341 -0.091323
C5    C     C_R   0.129042 0.286508 0.571442 0.044515
C6    C     C_R   0.131684 0.710462 0.066140 -0.010123
C7    C     C_R   0.627983 0.785921 0.572176 0.020730
C8    C     C_R   0.632978 0.209983 0.062608 0.024820
C9    C     C_R   0.177047 0.239443 0.615101 -0.178770
C10   C     C_R   0.172977 0.762610 0.119852 -0.178485
C11   C     C_R   0.676660 0.739409 0.614713 -0.177327
C12   C     C_3   0.026364 0.902102 0.890402 -0.023398
C13   C     C_R   0.672539 0.262839 0.118873 -0.174696
C14   C     C_R   0.213426 0.245183 0.759887 0.006243
C15   C     C_R   0.208803 0.757536 0.265469 -0.001285
C16   C     C_R   0.711919 0.744299 0.760802 0.005561
C17   C     C_R   0.708784 0.257204 0.263790 -0.006146
C18   C     C_R   0.203672 0.301134 0.859166 -0.050818
C19   C     C_R   0.199612 0.700992 0.363986 -0.054431
C20   C     C_R   0.700881 0.799353 0.861928 -0.043065
C21   C     C_R   0.700030 0.200102 0.361026 -0.060381
C22   C     C_R   0.798887 0.700216 0.944635 -0.028113
C23   C     C_3   0.484798 0.612185 0.418641 -0.010053
C24   C     C_R   0.795665 0.301067 0.448333 -0.037423
C25   C     C_R   0.300833 0.201529 0.943146 -0.035869
C26   C     C_R   0.295448 0.801577 0.450131 -0.035028
C27   C     C_R   0.787897 0.755019 0.045934 0.011084
C28   C     C_R   0.785915 0.244761 0.547574 0.000523
C29   C     C_R   0.291711 0.257771 0.041448 0.020868
C30   C     C_R   0.285350 0.745612 0.550131 0.002237
C31   C     C_R   0.849566 0.653045 0.988155 0.054576
C32   C     C_R   0.846472 0.348339 0.491765 0.040865
C33   C     C_R   0.350600 0.153543 0.987906 0.042259
C34   C     C_3   0.466980 0.367079 0.948923 -0.077756
C35   C     C_R   0.346448 0.848583 0.493016 0.044141
C36   C     C_R   0.887351 0.662514 0.128753 -0.277723
C37   C     C_R   0.882623 0.340007 0.634457 -0.282403
C38   C     C_R   0.388985 0.163301 0.127849 -0.285137
C39   C     C_R   0.382905 0.839977 0.635477 -0.269336
C40   C     C_3   0.022177 0.211294 0.927305 0.429420
C41   C     C_3   0.011165 0.798381 0.378272 0.399936
C42   C     C_3   0.522382 0.710606 0.920472 0.427280
C43   C     C_3   0.527901 0.289775 0.437954 0.322816
C44   C     C_R   0.873206 0.713870 0.232895 -0.009164
C45   C     C_R   0.152897 0.348483 0.816338 0.009826
C46   C     C_R   0.870178 0.287080 0.736288 0.002893
C47   C     C_R   0.376594 0.216137 0.229562 -0.004042
C48   C     C_R   0.370864 0.786706 0.737108 -0.002230
C49   C     C_R   0.824391 0.760507 0.190803 -0.149076
C50   C     C_R   0.823046 0.238599 0.691583 -0.143879
C51   C     C_R   0.328878 0.263520 0.185272 -0.122753
C52   C     C_R   0.322986 0.738959 0.693196 -0.142256
C53   C     C_R   0.758872 0.694945 0.804508 -0.041196
C54   C     C_R   0.754823 0.307447 0.309698 -0.044703
C55   C     C_R   0.260180 0.195770 0.804113 -0.040618
C56   C     C_R   0.154072 0.649882 0.313014 0.053248
C57   C     C_R   0.254959 0.807698 0.310832 -0.042695
C58   C     C_3   0.051355 0.142929 0.894383 -0.109536
C59   C     C_3   0.031397 0.871776 0.366666 -0.094471
C60   C     C_3   0.556989 0.643453 0.940720 -0.107453
C61   C     C_3   0.565241 0.354556 0.479997 -0.088438
C62   C     C_3   0.808733 0.459015 0.819334 0.297337
C63   C     C_3   0.811787 0.542513 0.323209 0.364242
C64   C     C_3   0.308474 0.959211 0.819329 0.301508
C65   C     C_3   0.314064 0.043573 0.326263 0.362449
C66   C     C_3   0.746621 0.414598 0.825726 -0.128962
C67   C     C_R   0.650984 0.847636 0.817362 0.011341
C68   C     C_3   0.750658 0.587012 0.330915 -0.103762
C69   C     C_3   0.246110 0.915026 0.823241 -0.132514
C70   C     C_3   0.254654 0.089803 0.340032 -0.106597
C71   C     C_3   0.214351 0.523766 0.838235 0.318326
C72   C     C_3   0.191402 0.453975 0.436034 0.329619
C73   C     C_3   0.740579 0.989152 0.073613 0.345433
C74   C     C_3   0.694385 0.961188 0.505696 0.258665
C75   C     C_3   0.288244 0.533767 0.811645 -0.119918
C76   C     C_3   0.249317 0.416072 0.369021 -0.106128
C77   C     C_3   0.814334 0.992013 0.039407 -0.125908
C78   C     C_R   0.654504 0.148844 0.309149 0.027286
C79   C     C_3   0.758521 0.920108 0.515098 -0.103675
C80   C     C_3   0.985404 0.204686 0.443112 0.441372
C81   C     C_3   0.026343 0.827750 0.930302 0.367653
C82   C     C_3   0.517783 0.678868 0.461452 0.363141
C83   C     C_3   0.489170 0.294987 0.933209 0.338774
C84   C     C_R   0.244485 0.306940 0.997702 -0.040426
C85   C     C_R   0.238461 0.696222 0.505882 -0.037921
C86   C     C_R   0.739510 0.803132 0.004244 -0.020213
C87   C     C_R   0.739303 0.195062 0.502677 -0.042459
C88   C     C_3   0.861386 0.139408 0.247426 -0.168244
C89   C     C_R   0.114685 0.338162 0.674694 -0.091489
C90   C     C_3   0.984779 0.985347 0.702570 -0.255988
C91   C     C_3   0.377353 0.651188 0.310109 -0.119768
C92   C     C_3   0.391794 0.437467 0.094815 -0.243722
H1    H     H_    0.947851 0.241259 0.399100 0.034022
H2    H     H_    0.730495 0.583395 0.451815 0.097156
H3    H     H_    0.828728 0.994572 0.505865 0.192014
H4    H     H_    0.936817 0.069294 0.253283 0.217240
H5    H     H_    0.849966 0.132956 0.118858 0.120258
H6    H     H_    0.855244 0.192720 0.275752 0.133302
H7    H     H_    0.825764 0.109190 0.315728 0.067247
H8    H     H_    0.942873 0.891514 0.735934 0.238221
H9    H     H_    0.956382 0.991410 0.588819 0.122291
H10   H     H_    0.035588 0.005861 0.688021 0.117809
H11   H     H_    0.959044 0.013779 0.794736 0.124666
H12   H     H_    0.432925 0.574384 0.221037 0.192403
H13   H     H_    0.224234 0.918144 0.942177 0.114544
H14   H     H_    0.347235 0.654408 0.198125 0.124722
H15   H     H_    0.386535 0.702759 0.351702 0.120856
H16   H     H_    0.348886 0.622659 0.398512 0.061872
H17   H     H_    0.441897 0.354924 0.185839 0.214234
H18   H     H_    0.382919 0.447970 0.221251 0.127160
H19   H     H_    0.343250 0.436413 0.029532 0.156776
H20   H     H_    0.423712 0.477993 0.048650 0.107068
H21   H     H_    0.076720 0.428536 0.602074 0.191365
H22   H     H_    0.025360 0.380006 0.716299 0.200945
H23   H     H_    0.130209 0.553035 0.118224 0.176858
H24   H     H_    0.234965 0.084861 0.461158 0.096685
H25   H     H_    0.101930 0.591145 0.968512 0.197739
H26   H     H_    0.573070 0.926878 0.602372 0.190105
H27   H     H_    0.524114 0.878852 0.720904 0.200245
H28   H     H_    0.620873 0.049904 0.121514 0.178277
H29   H     H_    0.617864 0.090430 0.961013 0.200795
H30   H     H_    0.059173 0.050671 0.994390 0.171953
H31   H     H_    0.056561 0.112596 0.126089 0.217503
H32   H     H_    0.954563 0.890543 0.206438 0.158135
H33   H     H_    0.939264 0.913223 0.391790 0.219096
H34   H     H_    0.559591 0.552698 0.834143 0.180225
H35   H     H_    0.193804 0.573134 0.863948 0.027624
H36   H     H_    0.482810 0.580602 0.862530 0.188622
H37   H     H_    0.554983 0.394988 0.256470 0.178805
H38   H     H_    0.496432 0.419554 0.383937 0.203785
H39   H     H_    0.183954 0.433562 0.554607 -0.110021
H40   H     H_    0.732712 0.948482 0.158836 0.028858
H41   H     H_    0.677245 0.968666 0.627232 0.037019
H42   H     H_    0.190373 0.505616 0.729370 0.032710
H43   H     H_    0.146505 0.443083 0.362787 0.090492
H44   H     H_    0.729014 0.036526 0.132907 -0.031172
H45   H     H_    0.974720 0.809860 0.948031 -0.006324
H46   H     H_    0.657043 0.933352 0.431698 0.028448
H47   H     H_    0.294829 0.564314 0.703057 0.054857
H48   H     H_    0.233387 0.363585 0.351359 0.072100
H49   H     H_    0.842978 0.003915 0.150734 0.052604
H50   H     H_    0.750426 0.874646 0.587025 0.075080
H51   H     H_    0.311953 0.484858 0.792764 0.084013
H52   H     H_    0.261866 0.437911 0.252783 0.126131
H53   H     H_    0.823480 0.032138 0.951349 0.099656
H54   H     H_    0.771533 0.903535 0.394872 0.071062
H55   H     H_    0.999449 0.216582 0.568149 -0.147737
H56   H     H_    0.480511 0.713031 0.510947 -0.033274
H57   H     H_    0.055805 0.822162 0.042468 -0.110578
H58   H     H_    0.557072 0.668609 0.553737 -0.031068
H59   H     H_    0.498775 0.273913 0.053803 -0.064028
H60   H     H_    0.915476 0.131009 0.530129 0.023482
H61   H     H_    0.005506 0.930323 0.989581 0.043414
H62   H     H_    0.458293 0.591902 0.522059 0.045774
H63   H     H_    0.511314 0.399571 0.970695 0.098275
H64   H     H_    0.030441 0.124570 0.779104 0.078667
H65   H     H_    0.073568 0.877065 0.286011 0.058277
H66   H     H_    0.610911 0.650585 0.920876 0.050203
H67   H     H_    0.448633 0.265826 0.872730 0.065401
H68   H     H_    0.619535 0.345778 0.473449 0.087577
H69   H     H_    0.185920 0.198401 0.535856 0.066763
H70   H     H_    0.178692 0.806221 0.045405 0.068849
H71   H     H_    0.686629 0.699212 0.533851 0.064143
H72   H     H_    0.676843 0.307270 0.046603 0.078472
H73   H     H_    0.814405 0.800505 0.272166 0.060729
H74   H     H_    0.814827 0.196672 0.770000 0.068231
H75   H     H_    0.321144 0.304829 0.263690 0.099195
H76   H     H_    0.314591 0.697191 0.771406 0.062421
H77   H     H_    0.925237 0.626749 0.163117 0.071410
H78   H     H_    0.760003 0.362039 0.804122 0.061213
H79   H     H_    0.917877 0.377820 0.671619 0.052940
H80   H     H_    0.426192 0.126995 0.163176 0.076550
H81   H     H_    0.417919 0.877941 0.672654 0.050933
H82   H     H_    0.239934 0.349642 0.072881 0.086579
H83   H     H_    0.234869 0.652932 0.580956 0.095933
H84   H     H_    0.732508 0.843150 0.085484 0.087452
H85   H     H_    0.736204 0.151448 0.577289 0.104025
H86   H     H_    0.763902 0.652866 0.726726 0.097165
H87   H     H_    0.759296 0.350627 0.233887 0.101818
H88   H     H_    0.264258 0.153026 0.728021 0.094322
H89   H     H_    0.764564 0.639764 0.309962 0.022334
H90   H     H_    0.259760 0.850558 0.234158 0.097537
H91   H     H_    0.994676 0.099031 0.476874 0.065828
H92   H     H_    0.078583 0.919029 0.877240 0.112726
H93   H     H_    0.524570 0.576313 0.390426 0.078733
H94   H     H_    0.441332 0.383087 0.836313 0.106417
H95   H     H_    0.048575 0.233292 0.032039 0.090406
H96   H     H_    0.053142 0.769928 0.433816 0.037108
H97   H     H_    0.549850 0.746674 0.998224 0.066658
H98   H     H_    0.550922 0.249879 0.512006 0.094335
H99   H     H_    0.031505 0.243176 0.822383 -0.098280
H100  H     H_    0.259647 0.862299 0.804287 0.063397
H101  H     H_    0.001531 0.779570 0.255728 -0.133742
H102  H     H_    0.525406 0.727091 0.794946 -0.090620
H103  H     H_    0.534902 0.277764 0.311422 -0.076438
H104  H     H_    0.106224 0.147542 0.885413 0.032053
H105  H     H_    0.049186 0.889919 0.484674 0.154082
H106  H     H_    0.551442 0.624495 0.063651 0.131418
H107  H     H_    0.555152 0.369289 0.603412 0.161521
H108  H     H_    0.825976 0.461845 0.696315 -0.002592
H109  H     H_    0.830125 0.542144 0.201129 -0.014309
H110  H     H_    0.326446 0.962143 0.696943 -0.005012
H111  H     H_    0.270309 0.142384 0.323609 0.028071
H112  H     H_    0.331498 0.044084 0.203389 -0.014651
H113  H     H_    0.847887 0.436385 0.898000 0.047515
H114  H     H_    0.850647 0.563255 0.405809 0.029871
H115  H     H_    0.347123 0.936296 0.898951 0.046984
H116  H     H_    0.353979 0.062591 0.408324 0.041710
H117  H     H_    0.683218 0.484583 0.726812 0.209160
H118  H     H_    0.714483 0.430832 0.595297 0.196113
H119  H     H_    0.715459 0.579883 0.101555 0.178315
H120  H     H_    0.657037 0.594226 0.233538 0.179702
H121  H     H_    0.184490 0.984790 0.716967 0.201353
H122  H     H_    0.726135 0.416998 0.946252 0.121733
H123  H     H_    0.216316 0.929252 0.590408 0.193578
H124  H     H_    0.218661 0.086543 0.110823 0.177150
H125  H     H_    0.161778 0.102887 0.245063 0.180024
H126  H     H_    0.369346 0.576968 0.920078 0.181986
H127  H     H_    0.297615 0.613385 0.961361 0.167184
H128  H     H_    0.295812 0.396508 0.584980 0.174570
H129  H     H_    0.322761 0.466792 0.494832 0.195590
H130  H     H_    0.884483 0.935863 0.939688 0.185294
H131  H     H_    0.841491 0.895595 0.074745 0.155805
H132  H     H_    0.798927 0.981496 0.687814 0.216025
N1    N     N_3   0.695387 0.434709 0.708544 -0.490962
N2    N     N_2   0.988221 0.915605 0.745198 -0.396250
N3    N     N_2   0.439525 0.618423 0.281920 -0.385966
N4    N     N_2   0.422879 0.373371 0.079861 -0.453828
N5    N     N_3   0.060610 0.380665 0.629974 -0.478706
N6    N     N_3   0.097845 0.591933 0.090176 -0.434836
N7    N     N_3   0.558115 0.878959 0.632260 -0.479262
N8    N     N_3   0.599591 0.092856 0.075260 -0.429051
N9    N     N_3   0.035452 0.095428 0.019056 -0.460584
N10   N     N_3   0.976063 0.912893 0.307437 -0.505771
N11   N     N_3   0.529881 0.595205 0.826662 -0.520277
N12   N     N_3   0.699631 0.566287 0.214029 -0.465499
N13   N     N_3   0.546924 0.409334 0.373182 -0.501039
N14   N     N_3   0.196224 0.934581 0.702220 -0.494337
N15   N     N_3   0.202478 0.072721 0.222848 -0.473434
N16   N     N_3   0.320100 0.567076 0.947773 -0.495021
N17   N     N_3   0.308042 0.417361 0.475855 -0.502458
N18   N     N_3   0.836496 0.928433 0.978794 -0.493836
N19   N     N_3   0.814396 0.957648 0.585807 -0.489155
N20   N     N_2   0.928717 0.118140 0.284114 -0.383888
O1    O     O_2   0.130070 0.404060 0.104920 -0.465600
O2    O     O_3   0.954958 0.792346 0.472065 -0.574658
O3    O     O_3   0.455798 0.705375 0.965172 -0.590006
O4    O     O_3   0.459958 0.295519 0.470138 -0.599954
O5    O     O_3   0.924190 0.533610 0.949240 -0.482299
O6    O     O_3   0.924190 0.466390 0.449240 -0.493083
O7    O     O_3   0.424190 0.033610 0.949240 -0.480440
O8    O     O_3   0.424190 0.966390 0.449240 -0.494262
O9    O     O_3   0.075780 0.466370 0.861070 -0.500373
O10   O     O_3   0.075780 0.533630 0.361070 -0.480869
O11   O     O_3   0.575780 0.966370 0.861070 -0.477106
O12   O     O_2   0.130070 0.595940 0.604920 -0.481924
O13   O     O_3   0.575780 0.033630 0.361070 -0.479146
O14   O     O_3   0.022320 0.344950 0.359800 -0.451616
O15   O     O_3   0.022320 0.655050 0.859800 -0.460235
O16   O     O_3   0.522320 0.844950 0.359800 -0.429267
O17   O     O_3   0.522320 0.155050 0.859800 -0.460886
O18   O     O_2   0.129040 0.289134 0.237255 -0.510235
O19   O     O_2   0.135141 0.699922 0.745738 -0.479793
O20   O     O_2   0.632554 0.794728 0.243952 -0.501001
O21   O     O_2   0.629855 0.208953 0.730359 -0.495498
O22   O     O_3   0.204787 0.480577 0.966523 -0.646863
O23   O     O_2   0.630070 0.904060 0.104920 -0.483887
O24   O     O_3   0.207252 0.522187 0.444907 -0.664789
O25   O     O_3   0.702519 0.985253 0.929906 -0.642061
O26   O     O_3   0.707317 0.022835 0.436387 -0.661094
O27   O     O_3   0.041375 0.206051 0.347665 -0.611141
O28   O     O_3   0.054142 0.792871 0.805353 -0.559406
O29   O     O_3   0.545842 0.706528 0.325818 -0.591596
O30   O     O_3   0.546558 0.293559 0.843353 -0.625334
O31   O     O_2   0.869860 0.403670 0.205810 -0.464858
O32   O     O_2   0.869860 0.596330 0.705810 -0.469225
O33   O     O_2   0.369860 0.903670 0.205810 -0.462270
O34   O     O_2   0.630070 0.095940 0.604920 -0.461486
O35   O     O_2   0.369860 0.096330 0.705810 -0.473968
O36   O     O_3   0.977590 0.344880 0.951200 -0.497610
O37   O     O_3   0.977590 0.655120 0.451200 -0.473545
O38   O     O_3   0.477590 0.844880 0.951200 -0.502304
O39   O     O_3   0.477590 0.155120 0.451200 -0.489958
O40   O     O_2   0.869100 0.289470 0.068389 -0.491887
O41   O     O_2   0.867219 0.706636 0.563943 -0.475434
O42   O     O_2   0.369606 0.789760 0.069003 -0.481597
O43   O     O_2   0.369714 0.210535 0.559418 -0.479530
O44   O     O_3   0.793648 0.477859 0.367295 -0.637698
O45   O     O_3   0.792625 0.522734 0.871380 -0.651915
O46   O     O_3   0.294395 0.978845 0.366551 -0.641382
O47   O     O_3   0.292452 0.022930 0.871690 -0.649751
O48   O     O_3   0.953998 0.205218 0.957092 -0.581437
P1    P     P_3+3 0.136530 0.426510 0.931350 0.942260
P2    P     P_3+3 0.916498 0.716091 0.429234 0.977889
P3    P     P_3+3 0.417114 0.782303 0.930000 0.947157
P4    P     P_3+3 0.420063 0.219368 0.426356 0.946228
P5    P     P_3+3 0.085207 0.716285 0.873590 0.978470
P6    P     P_3+3 0.082401 0.282115 0.378350 0.951960
P7    P     P_3+3 0.584616 0.216521 0.873162 0.959256
P8    P     P_3+3 0.583175 0.782613 0.377000 0.972591
P9    P     P_3+3 0.136530 0.573490 0.431350 0.963273
P10   P     P_3+3 0.636530 0.926510 0.931350 0.962230
P11   P     P_3+3 0.636530 0.073490 0.431350 0.970253
P12   P     P_3+3 0.863410 0.426100 0.379280 0.973088
P13   P     P_3+3 0.863410 0.573900 0.879280 0.973713
P14   P     P_3+3 0.363410 0.926100 0.379280 0.973917
P15   P     P_3+3 0.363410 0.073900 0.879280 0.971220
P16   P     P_3+3 0.916344 0.282985 0.928636 0.944327

loop_
_geom_bond_atom_site_label_1
_geom_bond_atom_site_label_2
_ccdc_geom_bond_type
C78   P11   S    
C29   C51   A    
C30   C52   A    
O4    P4    S    
C43   H103  S    
H132  N19   S    
C23   H62   S    
C66   H122  S    
C9    C14   A    
O15   P5    S    
C48   P3    S    
C29   C84   A    
C34   H63   S    
C42   H102  S    
C25   C29   A    
Ba4   O35   S    
C59   H65   S    
C82   O29   S    
C33   C38   A    
C5    C9    A    
C7    C11   A    
Ba3   O13   S    
C19   C85   A    
C63   H109  S    
C88   H6    S    
C92   H18   S    
C44   P2    S    
Ba2   O6    S    
C47   P4    S    
C11   C16   A    
H34   N11   S    
Ba1   P12   S    
O39   P4    S    
C33   P15   S    
C73   O25   S    
C24   C28   A    
O33   P14   D    
C12   H92   S    
Ba4   O17   S    
C13   C17   A    
C54   H87   S    
C23   C82   S    
C15   C19   A    
O16   P8    S    
H38   N13   S    
C82   H56   S    
C61   H107  S    
C27   C86   A    
C65   C70   S    
C45   P1    S    
C18   C45   A    
O17   P7    S    
C12   C81   S    
O19   P5    D    
H117  N1    S    
Ba1   O6    S    
H17   N4    S    
Ba1   O10   S    
C36   C44   A    
C65   H112  S    
O14   P6    S    
C10   C15   A    
H36   N11   S    
C71   H42   S    
C20   C86   A    
C24   C54   A    
C70   H24   S    
C81   O28   S    
C31   C36   A    
C82   H58   S    
C38   H80   S    
H131  N18   S    
C62   C66   S    
C15   C57   A    
C77   H53   S    
C47   C51   A    
C22   C53   A    
C68   H89   S    
H28   N8    S    
C22   C31   A    
C76   H52   S    
O8    P14   S    
H25   N6    S    
C40   O48   S    
C69   H100  S    
C79   N19   S    
C65   O46   S    
C92   H20   S    
C45   C89   A    
H118  N1    S    
C71   C75   S    
Ba3   O38   S    
Ba2   P9    S    
O37   P2    S    
C73   H44   S    
C88   N20   S    
C58   N9    S    
Ba1   O31   S    
Ba4   P15   S    
Ba2   O32   S    
Ba1   O1    S    
C39   C48   A    
O23   P10   D    
C41   H101  S    
Ba3   O23   S    
C63   C68   S    
H121  N14   S    
C34   H94   S    
C56   P9    S    
C75   H47   S    
C69   N14   S    
C76   H48   S    
O18   P6    D    
Ba4   O34   S    
O6    P12   S    
C10   H70   S    
O28   P5    S    
C79   H54   S    
C62   H108  S    
O30   P7    S    
C2    N6    S    
C11   H71   S    
C67   P10   S    
C53   H86   S    
C72   H39   S    
C70   H111  S    
C44   C49   A    
H124  N15   S    
C86   H84   S    
C90   H11   S    
Ba4   O39   S    
C26   C30   A    
H120  N12   S    
C6    C10   A    
C81   H45   S    
C1    C80   S    
O2    P2    S    
C61   N13   S    
C83   O30   S    
O10   P9    S    
C31   P13   S    
O7    P15   S    
H21   N5    S    
C4    C8    A    
O43   P4    D    
C66   H78   S    
Ba2   O37   S    
C64   H110  S    
Ba3   P14   S    
C58   H64   S    
O38   P3    S    
C26   C57   A    
O1    P1    D    
Ba4   O8    S    
C1    N20   S    
H3    N19   S    
Ba3   Ba4   S    
C74   H41   S    
C90   N2    S    
H125  N15   S    
C72   H43   S    
C17   C21   A    
C59   H105  S    
C14   C18   A    
C77   N18   S    
C72   C76   S    
C13   H72   S    
O25   P10   S    
C84   H82   S    
C71   O22   S    
O12   P9    D    
C30   C85   A    
C17   C54   A    
H22   N5    S    
C7    P8    S    
C26   C35   A    
C42   O3    S    
Ba1   O14   S    
C80   H55   S    
C14   C55   A    
Ba2   O9    S    
Ba3   O16   S    
C25   C55   A    
O13   P11   S    
C90   H9    S    
C50   H74   S    
Ba2   O12   S    
O27   P6    S    
C46   C50   A    
C4    C78   A    
C80   H1    S    
Ba1   P1    S    
C91   N3    S    
C91   H16   S    
C74   H46   S    
O35   P15   D    
H32   N10   S    
C64   O47   S    
C51   H75   S    
Ba3   O8    S    
C74   C79   S    
Ba2   P13   S    
C8    C13   A    
C73   H40   S    
C18   C84   A    
C49   H73   S    
O45   P13   S    
H26   N7    S    
C37   H79   S    
C52   H76   S    
C32   C37   A    
C59   N10   S    
C28   C50   A    
Ba1   O5    S    
O26   P11   S    
H130  N18   S    
C3    N7    S    
O24   P9    S    
O21   P7    D    
C34   N4    S    
C89   N5    S    
C63   O44   S    
O3    P3    S    
H4    N20   S    
C79   H50   S    
C41   H96   S    
C9    H69   S    
Ba2   O15   S    
C73   C77   S    
H127  N16   S    
C65   H116  S    
C75   N16   S    
C88   H5    S    
O22   P1    S    
H27   N7    S    
C70   N15   S    
C4    N8    S    
O9    P1    S    
H31   N9    S    
Ba4   O11   S    
C87   H85   S    
C21   C78   A    
C1    H91   S    
Ba2   O5    S    
C37   C46   A    
C39   H81   S    
C40   H99   S    
C12   H61   S    
C91   H14   S    
C2    C6    A    
C75   H51   S    
C69   H13   S    
C1    H60   S    
C32   P12   S    
H123  N14   S    
C34   C83   S    
O32   P13   D    
C58   H104  S    
H29   N8    S    
O31   P12   D    
C8    P7    S    
C72   O24   S    
C12   N2    S    
Ba3   P10   S    
C66   N1    S    
C5    P6    S    
C24   C32   A    
C80   O27   S    
C25   C33   A    
H119  N12   S    
H30   N9    S    
C46   P16   S    
C83   H67   S    
H33   N10   S    
C43   H98   S    
O20   P8    D    
C6    P5    S    
O36   P16   S    
C68   H2    S    
C3    C7    A    
O41   P2    D    
C40   H95   S    
C3    C67   A    
C36   H77   S    
C28   C87   A    
C63   H114  S    
Ba1   Ba2   S    
C60   N11   S    
C88   H7    S    
H37   N13   S    
H8    N2    S    
O47   P15   S    
C16   C20   A    
O48   P16   S    
C68   N12   S    
C92   H19   S    
O44   P12   S    
C38   C47   A    
C85   H83   S    
C22   C27   A    
O11   P10   S    
C71   H35   S    
H129  N17   S    
C19   C56   A    
C21   C87   A    
O5    P13   S    
C2    C56   A    
C60   H66   S    
H126  N16   S    
C35   C39   A    
C62   O45   S    
C40   C58   S    
C64   C69   S    
C41   C59   S    
C42   C60   S    
C41   O2    S    
H23   N6    S    
O46   P14   S    
C81   H57   S    
C27   C49   A    
C62   H113  S    
C43   O4    S    
C23   N3    S    
C77   H49   S    
C83   H59   S    
C35   P14   S    
C5    C89   A    
C42   H97   S    
C60   H106  S    
C90   H10   S    
O42   P3    D    
Ba1   O36   S    
O29   P8    S    
C91   H15   S    
O34   P11   D    
C61   H68   S    
C57   H90   S    
C43   C61   S    
C92   N4    S    
C55   H88   S    
Ba3   O7    S    
Ba4   P11   S    
H128  N17   S    
Ba3   O33   S    
C74   O26   S    
C76   N17   S    
C23   H93   S    
Ba4   O7    S    
C16   C53   A    
C64   H115  S    
O40   P16   D    
C48   C52   A    
C20   C67   A    
H12   N3    S    
