data_mof_unit_55238.cif
_audit_creation_date              2012-10-26T18:30:20-0400
_audit_creation_method            fapswitch 2.2
_symmetry_space_group_name_H-M    P1
_symmetry_Int_Tables_number       1
_space_group_crystal_system       triclinic
_cell_length_a                    10.842716
_cell_length_b                    13.172751
_cell_length_c                    11.837738
_cell_angle_alpha                 98.206164
_cell_angle_beta                  90.947025
_cell_angle_gamma                 92.316289
_cell_volume                      1671.66088046

loop_
_atom_site_label
_atom_site_type_symbol
_atom_type_description
_atom_site_fract_x
_atom_site_fract_y
_atom_site_fract_z
_atom_type_partial_charge
C1    C     C_R   0.500934 0.299835 0.481266 0.526828
C2    C     C_R   0.564391 0.609577 0.850761 0.016710
C3    C     C_R   0.529761 0.554368 0.152761 0.385700
C4    C     C_R   0.475805 0.441909 0.846106 0.392842
C5    C     C_R   0.523101 0.545842 0.031064 -0.047926
C6    C     C_R   0.477332 0.451884 0.968276 -0.051235
C7    C     C_R   0.260144 0.500852 0.503051 0.568362
C8    C     C_R   0.740528 0.498329 0.496896 0.551192
C9    C     C_3   0.033865 0.482744 0.603749 0.259001
C10   C     C_3   0.969511 0.514957 0.395823 0.244186
C11   C     C_3   0.955701 0.407438 0.518176 0.250584
C12   C     C_R   0.500493 0.700283 0.519926 0.601935
C13   C     C_3   0.047316 0.589972 0.481949 0.235439
C14   C     C_3   0.878000 0.497198 0.491563 -0.015512
C15   C     C_3   0.124056 0.500443 0.508319 -0.002020
C16   C     C_3   0.957400 0.573146 0.578827 -0.199394
C17   C     C_3   0.045905 0.424030 0.421485 -0.195308
C18   C     C_R   0.505728 0.813782 0.531509 -0.033137
C19   C     C_R   0.495235 0.187081 0.479075 -0.058160
C20   C     C_R   0.375306 0.034265 0.405782 0.268241
C21   C     C_R   0.584403 0.975356 0.639197 0.277414
C22   C     C_R   0.434338 0.126345 0.387985 0.024745
C23   C     C_R   0.531815 0.139265 0.574208 0.236070
C24   C     C_R   0.589391 0.868917 0.611611 0.026536
C25   C     C_3   0.918775 0.231199 0.460477 -0.049450
C26   C     C_3   0.825767 0.233092 0.362503 -0.372653
C27   C     C_3   0.037526 0.766412 0.515856 0.001295
C28   C     C_3   0.081150 0.866334 0.477324 -0.319383
C29   C     C_3   0.970218 0.471830 0.787615 -0.004096
C30   C     C_3   0.999771 0.414731 0.886966 -0.402682
C31   C     C_3   0.043199 0.529448 0.215572 -0.006998
C32   C     C_3   0.026439 0.598765 0.124596 -0.394714
C33   C     C_3   0.392695 0.801624 0.278667 0.076116
C34   C     C_R   0.427928 0.867944 0.465910 0.217130
C35   C     C_3   0.312492 0.722251 0.202310 -0.315263
C36   C     C_3   0.689203 0.231261 0.679858 0.083815
C37   C     C_3   0.726510 0.274768 0.802242 -0.311498
C38   C     C_3   0.182991 0.063642 0.331361 -0.008606
C39   C     C_3   0.096104 0.026831 0.230189 -0.358870
C40   C     C_3   0.611770 0.012056 0.832633 0.037421
C41   C     C_3   0.714284 0.026584 0.923846 -0.340305
C42   C     C_3   0.295325 0.364127 0.773151 0.065011
C43   C     C_3   0.241517 0.282675 0.678392 -0.304727
C44   C     C_3   0.714697 0.630924 0.214919 0.040893
C45   C     C_R   0.517720 0.030890 0.566336 -0.037402
C46   C     C_3   0.770672 0.713995 0.306248 -0.325963
C47   C     C_R   0.437575 0.976764 0.479720 -0.048198
C48   C     C_R   0.431568 0.373486 0.030627 0.042087
C49   C     C_R   0.561120 0.627008 0.969637 0.026085
C50   C     C_R   0.425608 0.393282 0.149925 0.014962
Cu1   Cu    Cu3+1 0.509400 0.507730 0.615930 1.003134
Cu2   Cu    Cu3+1 0.490600 0.492270 0.384070 0.990012
H1    H     H_    0.921978 0.631210 0.645966 0.134255
H2    H     H_    0.054290 0.773220 0.609709 0.157619
H3    H     H_    0.936940 0.756059 0.496278 0.142614
H4    H     H_    0.087757 0.855274 0.383113 0.203094
H5    H     H_    0.014619 0.926701 0.503837 0.087716
H6    H     H_    0.172334 0.892014 0.517359 0.198521
H7    H     H_    0.883210 0.437293 0.745054 0.174778
H8    H     H_    0.956136 0.553571 0.821556 0.146509
H9    H     H_    0.082806 0.450824 0.934592 0.143316
H10   H     H_    0.920570 0.416139 0.945281 0.102417
H11   H     H_    0.019110 0.333760 0.855065 0.159821
H12   H     H_    0.084422 0.366278 0.355339 0.091023
H13   H     H_    0.053047 0.449422 0.173057 0.133125
H14   H     H_    0.130230 0.555572 0.263863 0.180732
H15   H     H_    0.015832 0.679098 0.164752 0.155353
H16   H     H_    0.108643 0.596851 0.069875 0.098901
H17   H     H_    0.943224 0.573213 0.070885 0.144594
H18   H     H_    0.489290 0.780308 0.280835 0.205831
H19   H     H_    0.395334 0.872613 0.239027 0.208306
H20   H     H_    0.217181 0.749396 0.200509 0.152063
H21   H     H_    0.346739 0.711489 0.113945 0.132122
H22   H     H_    0.312005 0.648017 0.236076 0.184694
H23   H     H_    0.593806 0.671405 0.806278 0.202550
H24   H     H_    0.702676 0.292606 0.626041 0.185647
H25   H     H_    0.751089 0.168522 0.648476 0.167939
H26   H     H_    0.824651 0.260242 0.817617 0.093841
H27   H     H_    0.711895 0.358380 0.818335 0.126884
H28   H     H_    0.670385 0.238154 0.863996 0.202191
H29   H     H_    0.218634 0.141814 0.319826 0.145682
H30   H     H_    0.130042 0.069463 0.411422 0.107075
H31   H     H_    0.052177 0.950804 0.238191 0.140117
H32   H     H_    0.022710 0.082601 0.226016 0.092907
H33   H     H_    0.148286 0.020585 0.149705 0.193968
H34   H     H_    0.384683 0.335798 0.195781 0.185281
H35   H     H_    0.565660 0.935050 0.834342 0.172562
H36   H     H_    0.542779 0.070649 0.854624 0.207356
H37   H     H_    0.767290 0.100131 0.922848 0.144567
H38   H     H_    0.673904 0.026674 0.009409 0.170193
H39   H     H_    0.778757 0.962968 0.908560 0.196140
H40   H     H_    0.272334 0.441725 0.758662 0.205771
H41   H     H_    0.249804 0.353475 0.853641 0.129283
H42   H     H_    0.139322 0.278180 0.681622 0.149671
H43   H     H_    0.267892 0.301356 0.593473 0.142408
H44   H     H_    0.275910 0.206194 0.688769 0.175954
H45   H     H_    0.899895 0.159330 0.497175 0.142705
H46   H     H_    0.752127 0.643020 0.131080 0.144762
H47   H     H_    0.739827 0.553844 0.230857 0.216687
H48   H     H_    0.744456 0.697546 0.392184 0.168685
H49   H     H_    0.872391 0.718082 0.301386 0.146881
H50   H     H_    0.736498 0.790100 0.293960 0.157523
H51   H     H_    0.014669 0.226289 0.429476 0.113750
H52   H     H_    0.847584 0.298205 0.315195 0.168242
H53   H     H_    0.827978 0.160525 0.302194 0.121567
H54   H     H_    0.731593 0.240613 0.396514 0.173473
I1    I     I_    0.743298 0.798855 0.678977 -0.489975
I2    I     I_    0.492107 0.132724 0.220452 -0.412499
I3    I     I_    0.377412 0.218619 0.962977 -0.423312
I4    I     I_    0.598076 0.784933 0.036747 -0.511906
N1    N     N_R   0.523540 0.519360 0.790140 -0.263950
N2    N     N_R   0.476460 0.480640 0.209860 -0.257079
O1    O     O_R   0.506670 0.354460 0.582000 -0.435621
O2    O     O_3   0.101870 0.683981 0.458602 -0.530088
O3    O     O_3   0.070659 0.465344 0.713325 -0.587077
O4    O     O_3   0.938297 0.533158 0.285049 -0.592139
O5    O     O_3   0.343059 0.814194 0.389082 -0.512670
O6    O     O_3   0.564424 0.196636 0.678205 -0.480517
O7    O     O_3   0.276836 0.992330 0.335331 -0.535320
O8    O     O_3   0.661914 0.024533 0.725657 -0.538071
O9    O     O_3   0.424140 0.354674 0.782082 -0.474591
O10   O     O_3   0.586285 0.638879 0.216025 -0.557349
O11   O     O_R   0.493330 0.645540 0.418000 -0.442516
O12   O     O_R   0.490800 0.341410 0.386200 -0.504151
O13   O     O_R   0.509200 0.658590 0.613800 -0.502548
O14   O     O_R   0.324790 0.506500 0.597880 -0.503395
O15   O     O_R   0.675210 0.493500 0.402120 -0.497614
O16   O     O_R   0.308910 0.493440 0.402080 -0.525755
O17   O     O_R   0.691090 0.506560 0.597920 -0.513055
O18   O     O_3   0.905802 0.314492 0.548284 -0.598711

loop_
_geom_bond_atom_site_label_1
_geom_bond_atom_site_label_2
_ccdc_geom_bond_type
C31   H14   S    
C41   H37   S    
C35   H22   S    
C33   O5    S    
C23   C45   A    
C42   H41   S    
C26   H54   S    
C23   O6    S    
Cu1   O17   S    
C27   H2    S    
C28   H5    S    
C37   H27   S    
Cu1   O1    S    
C6    C48   A    
C18   C24   A    
C40   H35   S    
C36   C37   S    
C9    C16   S    
C39   H32   S    
C21   O8    S    
C36   H25   S    
C17   H12   S    
C38   C39   S    
Cu2   O11   S    
C27   H3    S    
Cu2   N2    S    
C10   C17   S    
C43   H42   S    
C15   C17   S    
C44   O10   S    
C16   H1    S    
C36   H24   S    
C26   H52   S    
C44   H46   S    
C35   H21   S    
C29   H7    S    
C43   H43   S    
C7    O16   A    
C36   O6    S    
C13   O2    S    
C3    O10   S    
C32   H16   S    
C34   O5    S    
C48   C50   A    
C48   I3    S    
C29   O3    S    
C2    H23   S    
C30   H11   S    
C38   H30   S    
C5    C49   A    
C1    O1    A    
C25   O18   S    
C26   H53   S    
C37   H28   S    
Cu2   O15   S    
C44   C46   S    
C21   C45   A    
C45   C47   A    
Cu2   O16   S    
C46   H49   S    
C2    N1    A    
C1    C19   S    
Cu1   Cu2   S    
Cu1   O13   S    
C19   C22   A    
C4    C6    A    
C10   C14   S    
C11   C14   S    
C50   H34   S    
C25   H51   S    
C12   O13   A    
C8    C14   S    
C25   C26   S    
C9    O3    S    
C19   C23   A    
C29   C30   S    
C2    C49   A    
C46   H50   S    
C8    O15   A    
C31   C32   S    
C29   H8    S    
C3    N2    A    
C50   N2    A    
C43   H44   S    
C24   I1    S    
C9    C11   S    
C33   H18   S    
C32   H15   S    
C38   O7    S    
C25   H45   S    
C40   C41   S    
C41   H39   S    
C4    N1    A    
C20   C22   A    
C35   H20   S    
C30   H10   S    
C38   H29   S    
C14   C16   S    
C21   C24   A    
C13   C16   S    
C42   C43   S    
C39   H33   S    
C11   O18   S    
C31   O4    S    
C8    O17   A    
C10   O4    S    
C31   H13   S    
C46   H48   S    
C11   C17   S    
Cu1   N1    S    
C40   O8    S    
Cu1   O14   S    
C44   H47   S    
C3    C5    A    
C10   C13   S    
C32   H17   S    
C28   H6    S    
C37   H26   S    
C40   H36   S    
C13   C15   S    
C9    C15   S    
C1    O12   A    
C39   H31   S    
Cu2   O12   S    
C5    C6    A    
C12   O11   A    
C18   C34   A    
C22   I2    S    
C7    C15   S    
C33   C35   S    
C4    O9    S    
C41   H38   S    
C42   H40   S    
C7    O14   A    
C20   C47   A    
C33   H19   S    
C27   O2    S    
C30   H9    S    
C12   C18   S    
C27   C28   S    
C34   C47   A    
C20   O7    S    
C28   H4    S    
C42   O9    S    
C49   I4    S    
