data_mof_unit_44338.cif
_audit_creation_date              2012-12-10T18:50:01-0500
_audit_creation_method            fapswitch 2.2
_symmetry_space_group_name_H-M    P1
_symmetry_Int_Tables_number       1
_space_group_crystal_system       triclinic
_cell_length_a                    10.710448
_cell_length_b                    9.991757
_cell_length_c                    10.695712
_cell_angle_alpha                 91.175085
_cell_angle_beta                  94.418667
_cell_angle_gamma                 89.663633
_cell_volume                      1140.96168378

loop_
_atom_site_label
_atom_site_type_symbol
_atom_type_description
_atom_site_fract_x
_atom_site_fract_y
_atom_site_fract_z
_atom_type_partial_charge
C1    C     C_R   0.260086 0.500175 0.496798 0.949619
C2    C     C_R   0.584400 0.929745 0.577522 0.235321
C3    C     C_R   0.417613 0.927201 0.419804 0.192825
C4    C     C_R   0.418505 0.070617 0.418947 0.189737
C5    C     C_R   0.498668 0.498475 0.258510 0.999892
C6    C     C_R   0.738545 0.499045 0.488450 0.929015
C7    C     C_R   0.499280 0.500981 0.742156 0.899958
C8    C     C_3   0.619347 0.567770 0.087685 0.142645
C9    C     C_3   0.378827 0.572648 0.066050 0.109075
C10   C     C_3   0.612650 0.588413 0.943042 0.381616
C11   C     C_3   0.365653 0.554835 0.920117 0.448345
C12   C     C_3   0.515588 0.355286 0.928295 -0.515482
C13   C     C_3   0.497780 0.351262 0.068193 -0.353049
C14   C     C_3   0.498046 0.496435 0.122545 -0.171687
C15   C     C_3   0.498063 0.502586 0.879637 -0.068231
C16   C     C_3   0.325594 0.855164 0.327953 -0.734418
C17   C     C_3   0.327419 0.140605 0.326634 -0.762089
C18   C     C_3   0.738988 0.554787 0.886431 -0.713276
C19   C     C_3   0.257934 0.457613 0.873308 -0.710286
C20   C     C_3   0.669114 0.145428 0.676776 -0.761282
C21   C     C_3   0.687315 0.859774 0.655271 -0.674456
C22   C     C_R   0.065043 0.377200 0.483954 -0.225483
C23   C     C_R   0.061424 0.617599 0.457265 -0.157141
C24   C     C_R   0.936992 0.373725 0.471425 0.397414
C25   C     C_R   0.932773 0.616394 0.444525 0.389169
C26   C     C_R   0.869704 0.496130 0.466160 -0.194050
C27   C     C_R   0.126792 0.499271 0.483055 -0.145828
C28   C     C_R   0.581971 0.073060 0.580319 0.248823
Cl1   Cl    Cl    0.758090 0.481139 0.151813 -0.564650
Cl2   Cl    Cl    0.238567 0.530605 0.140666 -0.622876
Cl3   Cl    Cl    0.591723 0.765422 0.921282 -0.613573
Cl4   Cl    Cl    0.315488 0.712547 0.852591 -0.523818
Cl5   Cl    Cl    0.870688 0.212218 0.453952 -0.544482
Cl6   Cl    Cl    0.858401 0.764405 0.389170 -0.522201
H1    H     H_    0.625791 0.667094 0.136797 0.202171
H2    H     H_    0.228424 0.885337 0.344908 0.231096
H3    H     H_    0.344664 0.879207 0.230450 0.235214
H4    H     H_    0.333681 0.248953 0.329614 0.292224
H5    H     H_    0.344633 0.109363 0.229301 0.223347
H6    H     H_    0.229743 0.116246 0.345361 0.235978
H7    H     H_    0.767444 0.448843 0.898215 0.235159
H8    H     H_    0.734747 0.574654 0.784761 0.186891
H9    H     H_    0.815087 0.618218 0.931983 0.296484
H10   H     H_    0.260705 0.362457 0.924720 0.235621
H11   H     H_    0.164921 0.503810 0.885726 0.289363
H12   H     H_    0.393360 0.680701 0.089418 0.179851
H13   H     H_    0.260816 0.433939 0.771761 0.200139
H14   H     H_    0.671140 0.253378 0.668066 0.282708
H15   H     H_    0.640692 0.124604 0.772025 0.214085
H16   H     H_    0.767157 0.111519 0.669906 0.255928
H17   H     H_    0.667348 0.754963 0.668844 0.283314
H18   H     H_    0.776786 0.868622 0.610804 0.254186
H19   H     H_    0.701146 0.904267 0.750680 0.250970
H20   H     H_    0.573636 0.289155 0.114818 0.261930
H21   H     H_    0.408040 0.301306 0.084072 0.212253
H22   H     H_    0.609758 0.315650 0.911528 0.222142
H23   H     H_    0.449281 0.283480 0.878405 0.228526
H24   H     H_    0.115962 0.283467 0.493680 0.203528
H25   H     H_    0.109888 0.710661 0.445140 0.197810
H26   H     H_    0.328662 0.746973 0.333019 0.292375
N1    N     N_R   0.499970 0.857200 0.499970 -0.105459
N2    N     N_R   0.499970 0.142800 0.499970 -0.110696
O1    O     O_R   0.316750 0.614620 0.499990 -0.617116
O2    O     O_R   0.316750 0.385380 0.499990 -0.647115
O3    O     O_R   0.499970 0.614670 0.314790 -0.638180
O4    O     O_R   0.499970 0.385330 0.314790 -0.612842
O5    O     O_R   0.683220 0.614710 0.500010 -0.603923
O6    O     O_R   0.683220 0.385290 0.500010 -0.581194
O7    O     O_R   0.500010 0.614660 0.685200 -0.554833
O8    O     O_R   0.500010 0.385340 0.685200 -0.658157
Zn1   Zn    Zn3+2 0.499980 0.653120 0.500000 1.014722
Zn2   Zn    Zn3+2 0.499980 0.346880 0.500000 0.976403

loop_
_geom_bond_atom_site_label_1
_geom_bond_atom_site_label_2
_ccdc_geom_bond_type
C22   H24   S    
C21   H19   S    
C9    C14   S    
C19   H11   S    
C7    O7    A    
C20   H15   S    
C23   C27   A    
C12   H23   S    
C2    C28   A    
C21   H18   S    
C16   H3    S    
O5    Zn1   S    
C24   Cl5   S    
C12   C15   S    
C25   Cl6   S    
O6    Zn2   S    
O2    Zn2   S    
C1    C27   S    
N1    Zn1   S    
C7    O8    A    
C6    O6    A    
N2    Zn2   S    
C9    H12   S    
C12   H22   S    
C18   H9    S    
C16   H2    S    
C23   H25   S    
C12   C13   S    
C9    C11   S    
C24   C26   A    
C11   C19   S    
C5    C14   S    
C6    C26   S    
C20   C28   S    
C9    Cl2   S    
C2    C21   S    
C4    C17   S    
C1    O1    A    
C22   C24   A    
C5    O3    A    
C6    O5    A    
C10   C18   S    
C11   Cl4   S    
C19   H13   S    
C10   C15   S    
C18   H8    S    
C19   H10   S    
C17   H5    S    
C22   C27   A    
C8    C14   S    
C8    Cl1   S    
C3    N1    A    
C3    C4    A    
C1    O2    A    
C4    N2    A    
C21   H17   S    
C23   C25   A    
C8    H1    S    
C17   H4    S    
C20   H16   S    
C13   H20   S    
C16   H26   S    
C18   H7    S    
O7    Zn1   S    
O8    Zn2   S    
C7    C15   S    
C20   H14   S    
C25   C26   A    
C13   C14   S    
C11   C15   S    
C10   Cl3   S    
C17   H6    S    
C8    C10   S    
O4    Zn2   S    
C3    C16   S    
O3    Zn1   S    
O1    Zn1   S    
C5    O4    A    
C13   H21   S    
C2    N1    A    
C28   N2    A    
