data_mof_unit_32832.cif
_audit_creation_date              2012-12-10T20:38:16-0500
_audit_creation_method            fapswitch 2.2
_symmetry_space_group_name_H-M    P1
_symmetry_Int_Tables_number       1
_space_group_crystal_system       triclinic
_cell_length_a                    9.894523
_cell_length_b                    10.709381
_cell_length_c                    16.772181
_cell_angle_alpha                 89.923151
_cell_angle_beta                  84.693326
_cell_angle_gamma                 91.094123
_cell_volume                      1769.3023365

loop_
_atom_site_label
_atom_site_type_symbol
_atom_type_description
_atom_site_fract_x
_atom_site_fract_y
_atom_site_fract_z
_atom_type_partial_charge
C1    C     C_R   0.502009 0.739985 0.500505 0.976914
C2    C     C_R   0.358944 0.503742 0.786828 -0.339625
C3    C     C_R   0.414339 0.373663 0.153923 0.452501
C4    C     C_R   0.433546 0.377487 0.235007 0.183717
C5    C     C_R   0.610889 0.536902 0.208854 -0.304938
C6    C     C_R   0.601801 0.524605 0.126886 0.499401
C7    C     C_R   0.500212 0.446171 0.099421 -0.129687
C8    C     C_2   0.441513 0.349244 0.974290 -0.137279
C9    C     C_2   0.478049 0.449950 0.014729 -0.117019
C10   C     C_R   0.525422 0.465826 0.262725 -0.249773
C11   C     C_R   0.407651 0.936212 0.549580 -0.005807
C12   C     C_R   0.479914 0.494095 0.652512 0.885968
C13   C     C_R   0.510142 0.872361 0.505556 -0.347382
C14   C     C_R   0.625674 0.939081 0.470314 0.442623
C15   C     C_R   0.617816 0.068421 0.461913 0.411537
C16   C     C_R   0.502790 0.128819 0.498467 -0.286024
C17   C     C_R   0.406168 0.063257 0.547972 -0.044147
C18   C     C_3   0.254690 0.066388 0.555217 0.070461
C19   C     C_3   0.256435 0.923269 0.556504 0.366843
C20   C     C_R   0.918177 0.449428 0.562587 0.105054
C21   C     C_R   0.941433 0.549404 0.437194 0.262109
C22   C     C_R   0.084100 0.547627 0.437201 -0.165587
C23   C     C_R   0.499794 0.260551 0.497585 1.007440
C24   C     C_R   0.061154 0.448683 0.561809 0.176602
C25   C     C_3   0.060172 0.489634 0.646078 -0.541780
C26   C     C_3   0.906839 0.495563 0.647663 0.338506
C27   C     C_R   0.518596 0.492973 0.347423 0.993826
C28   C     C_R   0.461543 0.453027 0.734605 -0.080763
C29   C     C_R   0.531437 0.348357 0.756894 -0.122339
C30   C     C_R   0.512400 0.304602 0.834807 -0.255146
C31   C     C_R   0.422833 0.365333 0.890139 0.061283
C32   C     C_R   0.339191 0.461251 0.866424 0.594620
H1    H     H_    0.601999 0.301582 0.714200 0.201178
H2    H     H_    0.213720 0.105147 0.501004 0.113898
H3    H     H_    0.218868 0.877671 0.502725 0.051537
H4    H     H_    0.147899 0.587977 0.387550 0.189877
H5    H     H_    0.096634 0.415381 0.684689 0.264397
H6    H     H_    0.110476 0.582027 0.652397 0.181473
H7    H     H_    0.864768 0.591489 0.652909 0.063251
H8    H     H_    0.680523 0.605587 0.230089 0.234851
H9    H     H_    0.494545 0.539160 0.983826 0.186834
H10   H     H_    0.297065 0.576411 0.765171 0.161089
H11   H     H_    0.440748 0.256050 0.999917 0.203036
H12   H     H_    0.574896 0.229806 0.853347 0.166066
N1    N     N_R   0.857140 0.500860 0.500530 -0.179143
N2    N     N_R   0.142780 0.500820 0.500530 -0.121701
O1    O     O_R   0.385310 0.683210 0.499990 -0.626198
O2    O     O_R   0.614650 0.683240 0.500000 -0.580678
O3    O     O_R   0.371780 0.500000 0.615800 -0.602120
O4    O     O_R   0.601120 0.500040 0.615800 -0.620045
O5    O     O_R   0.385350 0.316760 0.500000 -0.585346
O6    O     O_R   0.614690 0.316790 0.500010 -0.617121
O7    O     O_R   0.398880 0.499960 0.384200 -0.612374
O8    O     O_R   0.628220 0.500000 0.384200 -0.561330
Zn1   Zn    Zn3+2 0.346870 0.499980 0.499990 0.994142
Zn2   Zn    Zn3+2 0.653130 0.500020 0.500010 1.002306
O9    O     O_3   0.683817 0.598547 0.074076 -0.596211
C33   C     C_3   0.807264 0.536712 0.055634 -0.276190
H13   H     H_    0.872713 0.594614 0.012193 0.193114
H14   H     H_    0.790462 0.444677 0.026933 0.157035
H15   H     H_    0.862810 0.524718 0.109842 0.176871
O10   O     O_3   0.737516 0.878678 0.434297 -0.521473
C34   C     C_3   0.837453 0.871977 0.489442 -0.236267
H16   H     H_    0.823663 0.785945 0.526263 0.177563
H17   H     H_    0.839474 0.953305 0.530600 0.086399
H18   H     H_    0.938854 0.867683 0.455396 0.186180
O11   O     O_3   0.704766 0.131192 0.404849 -0.563372
C35   C     C_3   0.830143 0.160894 0.435019 -0.137346
H19   H     H_    0.824392 0.168720 0.501555 0.122284
H20   H     H_    0.866406 0.252949 0.410245 0.187568
H21   H     H_    0.907128 0.091881 0.413450 0.178234
Br1   Br    Br    0.188288 0.146868 0.654866 -0.474788
O12   O     O_3   0.209298 0.869498 0.631144 -0.536131
C36   C     C_3   0.069835 0.840223 0.631591 -0.292348
H22   H     H_    0.051201 0.769586 0.585095 0.119977
H23   H     H_    0.010174 0.925312 0.623178 0.181743
H24   H     H_    0.033433 0.799637 0.690763 0.182451
Br2   Br    Br    0.876720 0.633641 0.348430 -0.481042
Br3   Br    Br    0.330783 0.260898 0.306000 -0.468136
O13   O     O_3   0.841739 0.406758 0.701066 -0.570806
C37   C     C_3   0.832514 0.456552 0.779314 -0.279422
H25   H     H_    0.758673 0.533771 0.785016 0.160402
H26   H     H_    0.932832 0.489572 0.796990 0.165428
H27   H     H_    0.795600 0.381954 0.822240 0.195680
O14   O     O_3   0.239045 0.505855 0.922750 -0.623578
C38   C     C_3   0.211446 0.633143 0.911593 -0.351345
H28   H     H_    0.306014 0.690685 0.899061 0.175588
H29   H     H_    0.158000 0.668858 0.967780 0.201876
H30   H     H_    0.142175 0.644286 0.863684 0.174518
O15   O     O_3   0.310037 0.300203 0.128593 -0.577428
C39   C     C_3   0.191749 0.372330 0.131118 -0.198654
H31   H     H_    0.206515 0.455497 0.091191 0.180147
H32   H     H_    0.158462 0.401991 0.193305 0.175900
H33   H     H_    0.108706 0.314171 0.109528 0.195589

loop_
_geom_bond_atom_site_label_1
_geom_bond_atom_site_label_2
_ccdc_geom_bond_type
C10   C27   S    
C8    C9    D    
C34   H17   S    
O12   C36   S    
C8    H11   S    
C12   O3    A    
O9    C33   S    
C27   O8    A    
O14   C38   S    
C11   C19   S    
O10   C34   S    
C36   H23   S    
C12   C28   S    
C3    O15   S    
C28   C29   A    
C3    C7    A    
C30   C31   A    
C38   H29   S    
C26   H7    S    
C33   H14   S    
C15   C16   A    
C14   O10   S    
C29   H1    S    
C2    C32   A    
C18   C19   S    
C25   H5    S    
C20   C24   A    
N1    Zn2   S    
C16   C17   A    
C36   H24   S    
N2    Zn1   S    
C20   N1    A    
C33   H15   S    
C34   H18   S    
C13   C14   A    
C6    O9    S    
C30   H12   S    
C37   H26   S    
C37   H25   S    
C21   N1    A    
O7    Zn1   S    
C18   Br1   S    
O8    Zn2   S    
C36   H22   S    
O11   C35   S    
C19   O12   S    
C24   C25   S    
C4    Br3   S    
C39   H31   S    
C38   H28   S    
C35   H19   S    
C25   C26   S    
O3    Zn1   S    
O4    Zn2   S    
C21   Br2   S    
C23   O6    A    
C29   C30   A    
C25   H6    S    
C39   H32   S    
C23   O5    A    
C31   C32   A    
C15   O11   S    
C17   C18   S    
C18   H2    S    
C22   N2    A    
C16   C23   S    
C1    C13   S    
C4    C10   A    
C3    C4    A    
C37   H27   S    
O1    Zn1   S    
O2    Zn2   S    
C11   C17   A    
C8    C31   S    
C1    O1    A    
O13   C37   S    
C38   H30   S    
C12   O4    A    
C27   O7    A    
C1    O2    A    
C6    C7    A    
C22   H4    S    
C9    H9    S    
C24   N2    A    
C33   H13   S    
C5    C10   A    
C19   H3    S    
C39   H33   S    
C11   C13   A    
O15   C39   S    
C5    C6    A    
C20   C26   S    
C2    H10   S    
C35   H21   S    
C32   O14   S    
O5    Zn1   S    
C26   O13   S    
C34   H16   S    
C7    C9    S    
C35   H20   S    
C5    H8    S    
C14   C15   A    
C2    C28   A    
C21   C22   A    
O6    Zn2   S    
