data_mof_unit_15342.cif
_audit_creation_date              2012-10-26T18:29:52-0400
_audit_creation_method            fapswitch 2.2
_symmetry_space_group_name_H-M    P1
_symmetry_Int_Tables_number       1
_space_group_crystal_system       triclinic
_cell_length_a                    11.069238
_cell_length_b                    13.036485
_cell_length_c                    11.888071
_cell_angle_alpha                 99.71038
_cell_angle_beta                  94.384807
_cell_angle_gamma                 95.299735
_cell_volume                      1676.27026433

loop_
_atom_site_label
_atom_site_type_symbol
_atom_type_description
_atom_site_fract_x
_atom_site_fract_y
_atom_site_fract_z
_atom_type_partial_charge
C1    C     C_R   0.508942 0.300325 0.479013 0.582325
C2    C     C_R   0.517486 0.031316 0.554207 0.004487
C3    C     C_R   0.497247 0.967708 0.444437 -0.015989
C4    C     C_R   0.259645 0.493289 0.498752 0.580169
C5    C     C_R   0.464735 0.859289 0.435633 0.016114
C6    C     C_R   0.480036 0.877450 0.643786 0.005544
C7    C     C_R   0.499536 0.986778 0.653006 0.060966
C8    C     C_R   0.410722 0.377214 0.020839 0.038945
C9    C     C_R   0.402036 0.399391 0.140213 0.189279
C10   C     C_R   0.547255 0.548025 0.156517 0.203846
C11   C     C_R   0.531960 0.542571 0.034070 0.020494
C12   C     C_3   0.878614 0.497445 0.501731 -0.008488
C13   C     C_R   0.470078 0.452783 0.964568 0.019631
C14   C     C_R   0.464909 0.443627 0.842214 0.269785
C15   C     C_R   0.583948 0.607747 0.859324 0.169398
C16   C     C_R   0.492641 0.699884 0.521512 0.524330
C17   C     C_R   0.577189 0.624843 0.979965 0.103104
C18   C     C_R   0.740082 0.500580 0.500746 0.489686
C19   C     C_3   0.077527 0.458254 0.616360 0.093776
C20   C     C_3   0.931404 0.449035 0.611414 0.104346
C21   C     C_3   0.082805 0.603778 0.485874 -0.027216
C22   C     C_3   0.052117 0.409078 0.390145 0.196586
C23   C     C_3   0.944745 0.614139 0.506858 0.031906
C24   C     C_3   0.120753 0.490954 0.498678 0.074195
C25   C     C_2   0.141022 0.533982 0.723496 0.263896
C26   C     C_2   0.868835 0.464587 0.275789 0.287633
C27   C     C_2   0.381370 0.803042 0.335885 0.247512
C28   C     C_2   0.450518 0.834548 0.747867 0.271541
C29   C     C_2   0.540752 0.953404 0.237123 0.267568
C30   C     C_2   0.642799 0.188279 0.661098 0.234654
C31   C     C_2   0.661248 0.683092 0.808101 0.263710
C32   C     C_2   0.301345 0.333683 0.179126 0.312691
C33   C     C_2   0.650297 0.618475 0.222936 0.387199
C34   C     C_3   0.908009 0.421393 0.384367 0.117125
C35   C     C_2   0.891423 0.497699 0.729553 0.233579
C36   C     C_2   0.928222 0.687934 0.617544 0.317661
C37   C     C_R   0.477845 0.813180 0.534452 -0.038016
C38   C     C_R   0.524347 0.187146 0.466743 0.015472
C39   C     C_R   0.511624 0.014581 0.346461 0.006528
C40   C     C_R   0.513793 0.123680 0.356536 0.045102
C41   C     C_R   0.550732 0.139432 0.563629 -0.003938
Cu1   Cu    Cu3+1 0.509350 0.507730 0.615930 1.007006
Cu2   Cu    Cu3+1 0.490650 0.492270 0.384070 1.051203
H1    H     H_    0.090412 0.613159 0.396456 0.103020
H2    H     H_    0.560152 0.040169 0.820608 0.231377
H3    H     H_    0.437610 0.138934 0.200031 0.241803
H4    H     H_    0.592866 0.153590 0.214665 0.232040
H5    H     H_    0.706399 0.139472 0.694157 0.134631
H6    H     H_    0.442355 0.296455 0.749651 0.298667
H7    H     H_    0.350906 0.380590 0.703431 0.266928
H8    H     H_    0.194948 0.336866 0.592269 0.255750
H9    H     H_    0.118728 0.340413 0.712999 0.222766
H10   H     H_    0.684330 0.660807 0.723508 0.156422
H11   H     H_    0.425780 0.236927 0.917734 0.281039
H12   H     H_    0.197794 0.504194 0.786568 0.127237
H13   H     H_    0.281319 0.280086 0.908787 0.258832
H14   H     H_    0.694482 0.754210 0.050810 0.324857
H15   H     H_    0.549796 0.778970 0.009245 0.260801
H16   H     H_    0.223769 0.300521 0.118250 0.099417
H17   H     H_    0.643412 0.661170 0.306496 0.164079
H18   H     H_    0.903497 0.302455 0.664048 0.281503
H19   H     H_    0.788547 0.329429 0.577215 0.289174
H20   H     H_    0.926400 0.574909 0.773881 0.143338
H21   H     H_    0.254248 0.684844 0.523959 0.223353
H22   H     H_    0.145627 0.760223 0.523360 0.246774
H23   H     H_    0.916152 0.534724 0.256487 0.172733
H24   H     H_    0.852971 0.671274 0.663933 0.073326
H25   H     H_    0.105917 0.501093 0.262199 0.202698
H26   H     H_    0.054660 0.375138 0.211647 0.224380
H27   H     H_    0.067792 0.251758 0.321293 0.250347
H28   H     H_    0.019191 0.264791 0.450252 0.299055
H29   H     H_    0.856365 0.268641 0.296161 0.250421
H30   H     H_    0.744457 0.320230 0.365974 0.280036
H31   H     H_    0.803386 0.684593 0.436317 0.230536
H32   H     H_    0.941376 0.732754 0.409971 0.261050
H33   H     H_    0.284886 0.812254 0.334163 0.082898
H34   H     H_    0.498594 0.868185 0.830614 0.118963
H35   H     H_    0.500116 0.966664 0.155555 0.097094
H36   H     H_    0.406737 0.037298 0.789802 0.247008
N1    N     N_R   0.523430 0.519360 0.790130 -0.239869
N2    N     N_3   0.883112 0.337111 0.592560 -0.560017
N3    N     N_3   0.167472 0.691292 0.550355 -0.455820
N4    N     N_3   0.102234 0.426294 0.281670 -0.582401
N5    N     N_3   0.077790 0.301243 0.401182 -0.544836
N6    N     N_3   0.838442 0.316526 0.371690 -0.614015
N7    N     N_R   0.476570 0.480640 0.209880 -0.272146
N8    N     N_3   0.888781 0.663155 0.415714 -0.645065
N9    N     N_3   0.491995 0.054058 0.760901 -0.645227
N10   N     N_3   0.514869 0.170581 0.255477 -0.572810
N11   N     N_3   0.390270 0.357329 0.774237 -0.653446
N12   N     N_3   0.115148 0.354166 0.628583 -0.650003
N13   N     N_3   0.359729 0.275095 0.961511 -0.668478
N14   N     N_3   0.601832 0.728368 0.046541 -0.521097
O1    O     O_R   0.506640 0.354460 0.582000 -0.488845
O2    O     O_2   0.788614 0.417519 0.204242 -0.474897
O3    O     O_2   0.418955 0.747656 0.255666 -0.468745
O4    O     O_2   0.367070 0.765515 0.743478 -0.423522
O5    O     O_2   0.616621 0.891266 0.238031 -0.459534
O6    O     O_2   0.647873 0.278939 0.708640 -0.456054
O7    O     O_2   0.701795 0.770231 0.858549 -0.561913
O8    O     O_2   0.300470 0.311851 0.274060 -0.441542
O9    O     O_2   0.747515 0.630352 0.182285 -0.507681
O10   O     O_2   0.821595 0.448424 0.780762 -0.442874
O11   O     O_2   0.984583 0.774700 0.645412 -0.435065
O12   O     O_R   0.490840 0.341410 0.386200 -0.412756
O13   O     O_R   0.325590 0.506510 0.597900 -0.525943
O14   O     O_R   0.309790 0.493450 0.402100 -0.446142
O15   O     O_R   0.509160 0.658590 0.613800 -0.506669
O16   O     O_R   0.493360 0.645540 0.418000 -0.519663
O17   O     O_R   0.690210 0.506550 0.597900 -0.520729
O18   O     O_R   0.674410 0.493490 0.402100 -0.505912
O19   O     O_2   0.130939 0.627372 0.741964 -0.425981

loop_
_geom_bond_atom_site_label_1
_geom_bond_atom_site_label_2
_ccdc_geom_bond_type
C28   O4    D    
Cu1   N1    S    
C8    C13   A    
C5    C37   A    
C2    C7    A    
H6    N11   S    
H29   N6    S    
C36   H24   S    
H3    N10   S    
C12   C23   S    
C29   O5    D    
C30   H5    S    
H15   N14   S    
C35   O10   D    
C4    C24   S    
C2    C41   A    
Cu2   O12   S    
C14   N11   S    
C25   O19   D    
H8    N12   S    
C5    C27   S    
C20   C35   S    
C26   C34   S    
C6    C28   S    
C29   H35   S    
C15   N1    A    
C8    C9    A    
C30   C41   S    
C8    N13   S    
C14   N1    A    
H31   N8    S    
H27   N5    S    
C9    C32   S    
C16   C37   S    
C3    C39   A    
H14   N14   S    
C13   C14   A    
H4    N10   S    
C29   C39   S    
C27   O3    D    
Cu2   O18   S    
H36   N9    S    
H7    N11   S    
C16   O16   A    
C22   C34   S    
C4    O14   A    
C33   O9    D    
C26   H23   S    
C25   H12   S    
H2    N9    S    
C18   O18   A    
C38   C41   A    
C39   C40   A    
C1    O1    A    
C4    O13   A    
C30   O6    D    
C34   N6    S    
C22   N5    S    
H11   N13   S    
H26   N4    S    
C9    N7    A    
C21   H1    S    
C7    N9    S    
H21   N3    S    
C12   C20   S    
C6    C37   A    
Cu2   O14   S    
C31   O7    D    
C31   H10   S    
C28   H34   S    
Cu1   O13   S    
H30   N6    S    
C1    C38   S    
H32   N8    S    
H19   N2    S    
C33   H17   S    
C21   C23   S    
C40   N10   S    
C22   C24   S    
C17   N14   S    
Cu1   Cu2   S    
C12   C34   S    
C27   H33   S    
H28   N5    S    
C26   O2    D    
C15   C17   A    
C10   N7    A    
Cu1   O1    S    
H25   N4    S    
C18   O17   A    
C3    C5    A    
C11   C17   A    
C35   H20   S    
C15   C31   S    
C6    C7    A    
C36   O11   D    
C22   N4    S    
C19   C20   S    
C2    C3    A    
Cu1   O17   S    
H18   N2    S    
C38   C40   A    
C11   C13   A    
H22   N3    S    
C19   C24   S    
C10   C33   S    
C19   C25   S    
Cu2   N7    S    
C19   N12   S    
C10   C11   A    
C16   O15   A    
H13   N13   S    
C21   N3    S    
C23   C36   S    
C21   C24   S    
C12   C18   S    
C32   O8    D    
H9    N12   S    
C23   N8    S    
Cu2   O16   S    
C32   H16   S    
C20   N2    S    
Cu1   O15   S    
C1    O12   A    
