data_mof_unit_64997.cif
_audit_creation_date              2012-12-11T14:34:40-0500
_audit_creation_method            fapswitch 2.2
_symmetry_space_group_name_H-M    P1
_symmetry_Int_Tables_number       1
_space_group_crystal_system       triclinic
_cell_length_a                    8.173605
_cell_length_b                    15.056013
_cell_length_c                    16.500725
_cell_angle_alpha                 110.053659
_cell_angle_beta                  97.355122
_cell_angle_gamma                 81.141859
_cell_volume                      1878.54832245

loop_
_atom_site_label
_atom_site_type_symbol
_atom_type_description
_atom_site_fract_x
_atom_site_fract_y
_atom_site_fract_z
_atom_type_partial_charge
Ba1   Ba    Ba6+2 0.364960 0.465930 0.541880 1.660802
Ba2   Ba    Ba6+2 0.824870 0.533990 0.458110 1.654616
C1    C     C_3   0.256155 0.176391 0.755101 -0.359563
C2    C     C_3   0.222353 0.265136 0.728518 0.359157
C3    C     C_3   0.014567 0.723345 0.724248 0.305164
C4    C     C_3   0.016768 0.769846 0.821957 -0.376022
C5    C     C_3   0.488589 0.679560 0.225272 0.356700
C6    C     C_3   0.477836 0.687893 0.135409 -0.340284
C7    C     C_3   0.969566 0.739080 0.273873 0.327360
C8    C     C_3   0.928005 0.829285 0.249777 -0.332976
C9    C     C_2   0.293558 0.476909 0.247152 -0.329162
C10   C     C_R   0.892083 0.527842 0.751520 -0.305399
C11   C     C_2   0.485359 0.389107 0.136378 -0.074804
C12   C     C_3   0.702488 0.319595 0.773560 0.307069
C13   C     C_2   0.454614 0.422127 0.220402 0.064562
C14   C     C_2   0.177562 0.500112 0.189963 0.047361
C15   C     C_3   0.227777 0.490404 0.101328 -0.157746
C16   C     C_3   0.355874 0.403521 0.066829 0.019663
C17   C     C_2   0.088951 0.495581 0.032987 0.577720
C18   C     C_2   0.116202 0.523513 0.967177 -0.113280
C19   C     C_R   0.827971 0.582614 0.924864 0.090234
C20   C     C_R   0.984633 0.535374 0.899773 -0.018972
C21   C     C_R   0.706063 0.603754 0.864480 -0.157478
C22   C     C_R   0.738858 0.577380 0.777633 0.061378
C23   C     C_3   0.709573 0.310943 0.863061 -0.336257
C24   C     C_R   0.016700 0.508528 0.811908 -0.001275
C25   C     C_R   0.255451 0.760614 0.470634 -0.282919
C26   C     C_R   0.340255 0.813942 0.439561 0.017223
C27   C     C_R   0.281345 0.909615 0.450649 -0.134197
C28   C     C_R   0.137221 0.954196 0.495471 0.005641
C29   C     C_R   0.060857 0.898724 0.530770 -0.102651
C30   C     C_R   0.119956 0.803586 0.518591 0.032885
C31   C     C_R   0.924098 0.099650 0.551665 -0.029237
C32   C     C_R   0.859171 0.193535 0.561334 0.069926
C33   C     C_R   0.077814 0.208880 0.483761 0.066379
C34   C     C_3   0.695665 0.230160 0.342396 0.293597
C35   C     C_R   0.142985 0.113949 0.472566 -0.094564
C36   C     C_R   0.069255 0.057105 0.507585 0.030957
C37   C     C_R   0.939006 0.248870 0.530115 -0.259966
C38   C     C_3   0.704222 0.122024 0.313530 0.400214
C39   C     C_3   0.488135 0.765269 0.653443 0.307827
C40   C     C_3   0.455792 0.873268 0.679181 -0.388650
C41   C     C_3   0.173299 0.293708 0.278702 0.328841
C42   C     C_3   0.163497 0.247140 0.180735 0.495295
H1    H     H_    0.288274 0.251310 0.669774 0.083780
H2    H     H_    0.799528 0.088830 0.266237 0.032729
H3    H     H_    0.581712 0.099618 0.282308 0.096902
H4    H     H_    0.370022 0.734568 0.629255 0.003576
H5    H     H_    0.574558 0.738919 0.601486 0.069182
H6    H     H_    0.360687 0.901098 0.727047 0.133965
H7    H     H_    0.410830 0.894948 0.621763 0.063164
H8    H     H_    0.572468 0.905050 0.708157 0.130080
H9    H     H_    0.296530 0.318586 0.301515 -0.017544
H10   H     H_    0.074898 0.355163 0.295023 -0.026605
H11   H     H_    0.391574 0.160261 0.770054 0.145337
H12   H     H_    0.170566 0.300403 0.149137 -0.052267
H13   H     H_    0.043706 0.216904 0.157621 0.027087
H14   H     H_    0.086483 0.278478 0.713035 -0.074954
H15   H     H_    0.211687 0.114802 0.701485 0.060217
H16   H     H_    0.890720 0.699300 0.699297 0.015830
H17   H     H_    0.111739 0.661019 0.709908 0.058905
H18   H     H_    0.917969 0.831198 0.838438 0.133358
H19   H     H_    0.994653 0.717809 0.852165 0.050118
H20   H     H_    0.139473 0.795176 0.848479 0.131244
H21   H     H_    0.190035 0.187522 0.813194 0.125974
H22   H     H_    0.737246 0.379284 0.912814 0.156940
H23   H     H_    0.578488 0.616721 0.226468 0.094198
H24   H     H_    0.364149 0.668564 0.237509 -0.070294
H25   H     H_    0.599650 0.701555 0.122015 0.158086
H26   H     H_    0.443671 0.620624 0.086010 0.067797
H27   H     H_    0.382085 0.747239 0.130718 0.107912
H28   H     H_    0.106743 0.724764 0.283111 -0.067874
H29   H     H_    0.915336 0.751719 0.335759 0.095563
H30   H     H_    0.979458 0.889665 0.302012 0.107290
H31   H     H_    0.791201 0.846519 0.241104 0.161634
H32   H     H_    0.610997 0.381571 0.771617 0.102317
H33   H     H_    0.982871 0.819353 0.188620 0.104275
H34   H     H_    0.599762 0.343696 0.116404 0.101731
H35   H     H_    0.588161 0.642802 0.886009 0.099547
H36   H     H_    0.265920 0.491849 0.313410 0.068810
H37   H     H_    0.916737 0.508003 0.684341 0.077781
H38   H     H_    0.239613 0.539372 0.963359 0.039997
H39   H     H_    0.854118 0.061652 0.576934 0.059397
H40   H     H_    0.352090 0.947287 0.425206 0.093711
H41   H     H_    0.248692 0.086172 0.434755 0.088227
H42   H     H_    0.827255 0.332317 0.763198 -0.046645
H43   H     H_    0.957799 0.927176 0.570167 0.070093
H44   H     H_    0.887019 0.321453 0.537184 0.060885
H45   H     H_    0.301632 0.687011 0.462585 0.065841
H46   H     H_    0.588285 0.294330 0.874141 0.144901
H47   H     H_    0.808272 0.253569 0.869371 0.122237
H48   H     H_    0.821660 0.251521 0.364275 -0.038369
H49   H     H_    0.613778 0.261555 0.396243 0.068669
O1    O     O_2   0.426270 0.593440 0.713420 -0.459576
O2    O     O_3   0.150797 0.226311 0.315924 -0.626075
O3    O     O_3   0.653477 0.235669 0.711244 -0.611646
O4    O     O_2   0.763420 0.406520 0.286530 -0.473451
O5    O     O_3   0.541980 0.429670 0.395140 -0.502511
O6    O     O_3   0.985790 0.582400 0.342040 -0.499603
O7    O     O_3   0.633029 0.258276 0.270948 -0.644131
O8    O     O_3   0.119470 0.618230 0.545790 -0.485063
O9    O     O_3   0.574000 0.638040 0.386500 -0.498639
O10   O     O_2   0.682745 0.809043 0.443995 -0.474350
O11   O     O_3   0.542028 0.762842 0.286650 -0.594827
O12   O     O_3   0.647730 0.570260 0.604850 -0.499664
O13   O     O_3   0.070240 0.381690 0.454200 -0.495812
O14   O     O_2   0.845720 0.730180 0.545110 -0.461705
O15   O     O_3   0.045992 0.790092 0.687910 -0.641296
O16   O     O_2   0.836707 0.491945 0.190007 -0.431283
O17   O     O_3   0.902389 0.663254 0.207918 -0.591229
O18   O     O_3   0.203920 0.417520 0.657950 -0.497287
O19   O     O_2   0.358249 0.509306 0.809795 -0.494884
O20   O     O_3   0.556724 0.741413 0.726386 -0.632879
O21   O     O_3   0.280639 0.342438 0.796411 -0.600298
O22   O     O_2   0.343970 0.269780 0.454840 -0.463160
O23   O     O_3   0.615710 0.361880 0.613490 -0.502109
O24   O     O_2   0.518029 0.188680 0.552271 -0.455408
P1    P     P_3+3 0.589930 0.617420 0.700180 0.981990
P2    P     P_3+3 0.161520 0.277720 0.428790 1.000938
P3    P     P_3+3 0.660723 0.243396 0.608338 0.976302
P4    P     P_3+3 0.599780 0.382500 0.299810 0.994945
P5    P     P_3+3 0.535315 0.757047 0.390325 0.962195
P6    P     P_3+3 0.216172 0.446488 0.770355 0.946094
P7    P     P_3+3 0.034689 0.737894 0.575186 0.944235
P8    P     P_3+3 0.974353 0.557836 0.230436 1.015329
F1    F     F_    0.744034 0.090013 0.383265 -0.748679
F2    F     F_    0.293355 0.175178 0.157367 -0.689540
F3    F     F_    0.942497 0.463512 0.033139 -0.716831

loop_
_geom_bond_atom_site_label_1
_geom_bond_atom_site_label_2
_ccdc_geom_bond_type
C38   H3    S    
C42   F2    S    
C18   H38   S    
O13   P2    S    
O5    P4    S    
O1    P1    D    
C39   C40   S    
C17   F3    S    
C33   P2    S    
C17   C18   D    
C7    H28   S    
C5    C6    S    
O6    P8    S    
C38   H2    S    
C23   H46   S    
C27   C28   A    
C11   C16   S    
C37   H44   S    
C35   H41   S    
C26   C27   A    
C33   C35   A    
O7    P4    S    
C28   C29   A    
C26   P5    S    
O11   P5    S    
Ba2   O9    S    
Ba2   O14   S    
C28   C36   S    
Ba1   Ba2   S    
Ba1   P2    S    
C4    H20   S    
C30   P7    S    
O4    P4    D    
C5    H24   S    
C9    C13   S    
C34   H49   S    
C41   H9    S    
Ba2   O4    S    
Ba1   O1    S    
C41   O2    S    
C21   C22   A    
Ba1   O23   S    
C7    C8    S    
C40   H7    S    
C34   H48   S    
C19   C20   A    
C1    H21   S    
C7    H29   S    
O14   P7    D    
O15   P7    S    
C12   O3    S    
C8    H33   S    
Ba1   O12   S    
C15   C16   S    
C2    H1    S    
C32   P3    S    
C23   H47   S    
O8    P7    S    
C29   H43   S    
O18   P6    S    
C32   C37   A    
C34   C38   S    
C12   H42   S    
C27   H40   S    
O24   P3    D    
C39   O20   S    
C14   C15   S    
Ba2   O8    S    
O2    P2    S    
Ba2   O13   S    
O23   P3    S    
C10   C24   A    
C12   H32   S    
C4    H19   S    
C33   C37   A    
C41   C42   S    
C35   C36   A    
C9    C14   D    
C42   H12   S    
C41   H10   S    
C29   C30   A    
C42   H13   S    
C38   F1    S    
C31   C32   A    
C6    H25   S    
C3    H17   S    
C34   O7    S    
C31   H39   S    
O19   P6    D    
O21   P6    S    
O16   P8    D    
C40   H6    S    
Ba2   O6    S    
O22   P2    D    
C5    O11   S    
C11   C13   D    
O12   P1    S    
C24   P6    S    
C1    C2    S    
Ba1   O8    S    
C14   P8    S    
Ba2   P4    S    
C2    O21   S    
C7    O17   S    
C10   C22   A    
C11   H34   S    
C6    H27   S    
C13   P4    S    
C3    H16   S    
C25   C30   A    
C6    H26   S    
O3    P3    S    
C23   H22   S    
C18   C20   S    
Ba1   O5    S    
C39   H5    S    
Ba1   O13   S    
Ba2   O12   S    
C1    H11   S    
C31   C36   A    
C4    H18   S    
C19   C21   A    
Ba1   O18   S    
C8    H30   S    
C3    C4    S    
C22   P1    S    
C15   C17   S    
C39   H4    S    
C10   H37   S    
C25   H45   S    
Ba1   P1    S    
C12   C23   S    
C9    H36   S    
O17   P8    S    
C5    H23   S    
O20   P1    S    
Ba2   O5    S    
C20   C24   A    
C2    H14   S    
C25   C26   A    
Ba1   O22   S    
C21   H35   S    
O9    P5    S    
O10   P5    D    
C3    O15   S    
C40   H8    S    
C8    H31   S    
C1    H15   S    
