data_mof_unit_18611.cif
_audit_creation_date              2012-12-11T15:07:33-0500
_audit_creation_method            fapswitch 2.2
_symmetry_space_group_name_H-M    P1
_symmetry_Int_Tables_number       1
_space_group_crystal_system       triclinic
_cell_length_a                    21.770596
_cell_length_b                    7.19457
_cell_length_c                    18.48526
_cell_angle_alpha                 89.814297
_cell_angle_beta                  95.750451
_cell_angle_gamma                 90.153043
_cell_volume                      2880.75438063

loop_
_atom_site_label
_atom_site_type_symbol
_atom_type_description
_atom_site_fract_x
_atom_site_fract_y
_atom_site_fract_z
_atom_type_partial_charge
O1    O     O_R   0.449650 0.506500 0.414480 -0.531500
O2    O     O_R   0.550350 0.006500 0.585520 -0.530765
O3    O     O_R   0.432010 0.173150 0.560250 -0.539842
O4    O     O_R   0.567990 0.673150 0.439750 -0.540141
C1    C     C_R   0.415747 0.344402 0.580626 0.683080
C2    C     C_R   0.583673 0.845060 0.418649 0.684323
O5    O     O_R   0.442320 0.176650 0.413480 -0.535748
O6    O     O_R   0.557680 0.676650 0.586520 -0.535171
O7    O     O_R   0.560730 0.008380 0.437700 -0.537281
O8    O     O_R   0.439270 0.508380 0.562300 -0.536706
C3    C     C_R   0.428625 0.345626 0.387431 0.673777
C4    C     C_R   0.571253 0.845482 0.612641 0.677249
O9    O     O_3   0.538840 0.339860 0.508120 -0.371056
O10   O     O_3   0.461160 0.839860 0.491880 -0.372604
V1    V     V_3+5 0.492800 0.064220 0.498490 1.415010
V2    V     V_3+5 0.507200 0.564220 0.501510 1.415015
C5    C     C_R   0.867945 0.981496 0.691337 -0.169996
C6    C     C_R   0.132672 0.497467 0.308191 -0.170773
H1    H     H_    0.952561 0.041682 0.755868 0.116143
H2    H     H_    0.048178 0.554943 0.242979 0.114007
H3    H     H_    0.790324 0.930582 0.573140 0.126351
H4    H     H_    0.210677 0.456701 0.426839 0.126305
H5    H     H_    0.887632 0.013418 0.641150 0.118802
H6    H     H_    0.113459 0.536429 0.357834 0.118881
C7    C     C_R   0.883281 0.940320 0.821867 -0.063704
C8    C     C_R   0.116388 0.441501 0.178614 -0.066008
C9    C     C_R   0.582987 0.878645 0.745688 -0.158500
C10   C     C_R   0.416445 0.369580 0.253923 -0.159090
C11   C     C_R   0.617586 0.921234 0.810957 -0.121676
C12   C     C_R   0.381860 0.408498 0.188196 -0.121095
C13   C     C_R   0.681680 0.934331 0.814382 -0.176193
C14   C     C_R   0.317905 0.425982 0.184973 -0.178709
C15   C     C_R   0.713328 0.892826 0.753525 0.079012
C16   C     C_R   0.286329 0.393365 0.246789 0.080182
C17   C     C_R   0.677220 0.870102 0.684961 0.070520
C18   C     C_R   0.322621 0.375660 0.315484 0.071075
C19   C     C_R   0.779457 0.899620 0.756817 0.048080
C20   C     C_R   0.220277 0.403623 0.243805 0.047897
C21   C     C_R   0.805739 0.931561 0.690570 0.118379
C22   C     C_R   0.194572 0.444607 0.309553 0.118389
C23   C     C_R   0.769704 0.914175 0.623786 -0.193560
C24   C     C_R   0.230875 0.433082 0.376398 -0.194547
C25   C     C_R   0.706956 0.874575 0.621021 -0.193468
C26   C     C_R   0.293314 0.389672 0.379509 -0.194251
C27   C     C_R   0.820984 0.877427 0.822085 0.002681
C28   C     C_R   0.178302 0.375788 0.179301 0.003074
C29   C     C_R   0.905126 0.996228 0.756665 -0.196172
C30   C     C_R   0.095249 0.506340 0.242827 -0.194837
C31   C     C_R   0.611718 0.857225 0.681831 -0.078624
C32   C     C_R   0.387950 0.357234 0.318351 -0.077619
H7    H     H_    0.533111 0.873177 0.744097 0.099513
H8    H     H_    0.466209 0.359467 0.255213 0.097314
H9    H     H_    0.705790 0.988045 0.863964 0.111179
H10   H     H_    0.293877 0.475333 0.134525 0.112982
H11   H     H_    0.594400 0.950209 0.858811 0.117304
H12   H     H_    0.404970 0.430438 0.139663 0.117356
H13   H     H_    0.681232 0.859841 0.568090 0.109747
H14   H     H_    0.319222 0.379368 0.432517 0.108655
C33   C     C_R   0.634836 0.015310 0.322074 -0.199603
C34   C     C_R   0.357056 0.212562 0.679845 -0.207896
C35   C     C_R   0.632339 0.858662 0.367795 -0.077427
C36   C     C_R   0.365800 0.355747 0.629846 -0.076635
C37   C     C_R   0.676570 0.717775 0.364661 -0.230174
C38   C     C_R   0.328168 0.514806 0.629131 -0.218810
C39   C     C_R   0.723304 0.734275 0.317754 0.088910
C40   C     C_R   0.282420 0.531036 0.677196 0.093747
C41   C     C_R   0.725342 0.892105 0.272101 0.048139
C42   C     C_R   0.274482 0.387654 0.727854 0.042374
C43   C     C_R   0.680609 0.032020 0.273917 0.054953
C44   C     C_R   0.312296 0.228963 0.729509 0.060200
C45   C     C_R   0.767966 0.595026 0.315549 -0.183761
C46   C     C_R   0.244739 0.689090 0.675712 -0.201921
C47   C     C_R   0.814369 0.611796 0.268961 -0.192692
C48   C     C_R   0.199121 0.704622 0.723392 -0.187945
C49   C     C_R   0.816703 0.767366 0.223254 0.100839
C50   C     C_R   0.190671 0.563226 0.773968 0.109749
C51   C     C_R   0.771949 0.909009 0.224478 0.038914
C52   C     C_R   0.228881 0.403748 0.776867 0.031055
C53   C     C_R   0.773520 0.065569 0.177726 0.045856
C54   C     C_R   0.221777 0.262037 0.828888 0.053149
C55   C     C_R   0.727022 0.204534 0.177993 0.082191
C56   C     C_R   0.261925 0.105005 0.832710 0.071840
C57   C     C_R   0.681653 0.185976 0.227254 -0.199515
C58   C     C_R   0.305912 0.090318 0.781609 -0.194317
C59   C     C_R   0.862949 0.782080 0.176073 -0.224072
C60   C     C_R   0.144816 0.579925 0.821765 -0.220066
C61   C     C_R   0.866066 0.937386 0.130323 -0.075131
C62   C     C_R   0.135830 0.438911 0.872151 -0.081184
C63   C     C_R   0.821469 0.077682 0.131450 -0.240431
C64   C     C_R   0.174571 0.281940 0.875688 -0.232153
H15   H     H_    0.600492 0.123849 0.323205 0.124314
H16   H     H_    0.386354 0.090667 0.681554 0.121706
H17   H     H_    0.675298 0.596752 0.399581 0.131331
H18   H     H_    0.334227 0.626009 0.590734 0.130187
H19   H     H_    0.766933 0.472689 0.349762 0.131903
H20   H     H_    0.250525 0.800968 0.637572 0.133710
H21   H     H_    0.848193 0.501772 0.268132 0.125905
H22   H     H_    0.170666 0.828279 0.721072 0.131257
H23   H     H_    0.897122 0.672811 0.175647 0.124965
H24   H     H_    0.115259 0.701348 0.818772 0.119944
H25   H     H_    0.824390 0.194504 0.095039 0.125940
H26   H     H_    0.167302 0.175981 0.915567 0.122836
H27   H     H_    0.646204 0.290091 0.229563 0.118504
H28   H     H_    0.336296 0.971734 0.781983 0.121904
O11   O     O_R   0.060820 0.290050 0.937800 -0.536128
O12   O     O_R   0.939180 0.790050 0.062200 -0.538470
O13   O     O_R   0.057690 0.616620 0.086540 -0.538040
O14   O     O_R   0.942310 0.116620 0.913460 -0.537563
C65   C     C_R   0.072560 0.448239 0.111789 0.685260
C66   C     C_R   0.927319 0.948194 0.888394 0.688462
O15   O     O_R   0.068010 0.619890 0.939770 -0.539899
O16   O     O_R   0.931990 0.119890 0.060230 -0.539162
O17   O     O_R   0.949640 0.787940 0.914460 -0.534092
O18   O     O_R   0.050360 0.287940 0.085540 -0.534544
C67   C     C_R   0.084891 0.451108 0.919823 0.693199
C68   C     C_R   0.915705 0.950594 0.080932 0.693252
O19   O     O_3   0.961210 0.453080 0.991940 -0.371682
O20   O     O_3   0.038790 0.953080 0.008060 -0.372866
V3    V     V_3+5 0.007200 0.728820 0.001500 1.374631
V4    V     V_3+5 0.992800 0.228820 0.998500 1.377235
C69   C     C_3   0.726270 0.367450 0.124582 -0.352960
C70   C     C_3   0.673856 0.509170 0.127183 -0.306455
C71   C     C_3   0.679191 0.664605 0.071634 -0.768336
H29   H     H_    0.724465 0.736287 0.081694 0.238832
H30   H     H_    0.674520 0.607284 0.015614 0.223601
H31   H     H_    0.642004 0.768024 0.076101 0.218732
H32   H     H_    0.628492 0.438933 0.114847 0.189283
H33   H     H_    0.675903 0.572338 0.182045 0.208986
H34   H     H_    0.770781 0.443377 0.134524 0.183766
H35   H     H_    0.723100 0.309658 0.068596 0.169164
C72   C     C_3   0.257650 0.957668 0.891849 -0.357027
C73   C     C_3   0.305383 0.799669 0.894353 -0.296288
C74   C     C_3   0.296732 0.662438 0.955734 -0.775647
H36   H     H_    0.307497 0.730656 0.009270 0.220669
H37   H     H_    0.248624 0.608953 0.951386 0.239610
H38   H     H_    0.328526 0.542996 0.952462 0.218053
H39   H     H_    0.300551 0.722179 0.842303 0.207942
H40   H     H_    0.352815 0.858407 0.903155 0.188664
H41   H     H_    0.263262 0.028554 0.945492 0.172636
H42   H     H_    0.210798 0.894833 0.884560 0.178644
C75   C     C_3   0.805558 0.748915 0.883912 -0.391571
C76   C     C_3   0.824004 0.547682 0.869005 -0.249899
C77   C     C_3   0.808609 0.417195 0.930101 -0.738855
H43   H     H_    0.833008 0.461885 0.982857 0.232701
H44   H     H_    0.758092 0.416322 0.934484 0.208147
H45   H     H_    0.823192 0.273564 0.918350 0.212661
H46   H     H_    0.798653 0.499737 0.817167 0.189667
H47   H     H_    0.874161 0.538832 0.863247 0.215094
H48   H     H_    0.829262 0.796875 0.936588 0.162179
H49   H     H_    0.756294 0.744345 0.892049 0.180540
C78   C     C_3   0.192651 0.238587 0.120333 -0.392828
C79   C     C_3   0.172586 0.041188 0.139723 -0.254499
C80   C     C_3   0.189766 0.900208 0.083598 -0.734956
H50   H     H_    0.166790 0.934982 0.028891 0.229994
H51   H     H_    0.240522 0.899231 0.081522 0.210140
H52   H     H_    0.175107 0.758999 0.099052 0.217533
H53   H     H_    0.195907 0.000984 0.193780 0.191891
H54   H     H_    0.121996 0.035389 0.143015 0.214592
H55   H     H_    0.169383 0.281083 0.066623 0.160232
H56   H     H_    0.241904 0.229707 0.112524 0.180537

loop_
_geom_bond_atom_site_label_1
_geom_bond_atom_site_label_2
_ccdc_geom_bond_type
C77   H45   S    
C40   C42   A    
C37   C39   A    
C7    C27   A    
O12   V3    S    
C9    C11   A    
C23   C25   A    
O14   V4    S    
O1    C3    A    
C69   H35   S    
O2    C4    A    
C2    O7    A    
C4    C31   S    
C75   H48   S    
C71   H29   S    
C21   C23   A    
C47   H21   S    
C5    H5    S    
C48   C50   A    
C59   H23   S    
C2    C35   S    
O15   V3    S    
C50   C52   A    
C60   C62   A    
C71   H30   S    
C45   H19   S    
C73   H40   S    
C77   H43   S    
C34   C36   A    
C5    C21   A    
O13   V3    S    
C70   H32   S    
C35   C37   A    
C6    C22   A    
O20   V3    S    
C64   H26   S    
C36   C38   A    
C72   H42   S    
C14   C16   A    
O17   V3    S    
C10   C32   A    
C49   C59   A    
C76   C77   S    
C40   C46   A    
C18   C32   A    
C26   H14   S    
C73   C74   S    
C39   C41   A    
C41   C51   A    
C17   C31   A    
C74   H38   S    
C78   C79   S    
C13   C15   A    
O11   V4    S    
C80   H51   S    
C44   C58   A    
C7    C29   A    
C16   C18   A    
C8    C30   A    
C34   H16   S    
C28   C78   S    
O6    V2    S    
C27   C75   S    
O13   C65   A    
C24   C26   A    
C14   H10   S    
C55   C57   A    
C9    H7    S    
C75   H49   S    
C51   C53   A    
C42   C52   A    
C79   H54   S    
C33   C35   A    
C53   C63   A    
C59   C61   A    
C12   C14   A    
C76   H47   S    
C54   C56   A    
O19   V4    S    
C53   C55   A    
C8    C28   A    
C71   H31   S    
C11   H11   S    
C73   H39   S    
C39   C45   A    
C12   H12   S    
C15   C19   A    
C55   C69   S    
C41   C43   A    
C78   H55   S    
O4    V2    S    
O5    C3    A    
C43   C57   A    
C66   O17   A    
C34   C44   A    
O6    C4    A    
C61   C68   S    
H1    C29   S    
O1    V2    S    
C33   H15   S    
C13   H9    S    
C80   H52   S    
O2    V1    S    
C49   C51   A    
C8    C65   S    
C69   C70   S    
H2    C30   S    
C57   H27   S    
C7    C66   S    
C33   C43   A    
H3    C23   S    
C65   O18   A    
C46   C48   A    
C62   C64   A    
C56   C58   A    
C61   C63   A    
C74   H36   S    
C58   H28   S    
C6    H6    S    
C18   C26   A    
O4    C2    A    
C47   C49   A    
C19   C27   A    
C72   C73   S    
C50   C60   A    
O16   C68   A    
C17   C25   A    
O16   V4    S    
C77   H44   S    
C79   H53   S    
C48   H22   S    
C63   H25   S    
C16   C20   A    
C76   H46   S    
O11   C67   A    
C5    C29   A    
C69   H34   S    
C22   C24   A    
O3    C1    A    
C6    C30   A    
C70   H33   S    
C37   H17   S    
O12   C68   A    
C78   H56   S    
C62   C67   S    
C10   C12   A    
C56   C72   S    
C38   H18   S    
C1    O8    A    
C19   C21   A    
C3    C32   S    
O8    V2    S    
C75   C76   S    
C20   C22   A    
C60   H24   S    
C10   H8    S    
H4    C24   S    
O5    V1    S    
C15   C17   A    
O14   C66   A    
C1    C36   S    
C52   C54   A    
C54   C64   A    
C20   C28   A    
C72   H41   S    
C25   H13   S    
C46   H20   S    
C79   C80   S    
C11   C13   A    
O9    V2    S    
C45   C47   A    
C74   H37   S    
C42   C44   A    
O10   V1    S    
O3    V1    S    
O15   C67   A    
C70   C71   S    
O18   V4    S    
C9    C31   A    
O7    V1    S    
C38   C40   A    
C80   H50   S    
