data_mof_unit_19964.cif
_audit_creation_date              2012-12-10T16:52:43-0500
_audit_creation_method            fapswitch 2.2
_symmetry_space_group_name_H-M    P1
_symmetry_Int_Tables_number       1
_space_group_crystal_system       triclinic
_cell_length_a                    13.022691
_cell_length_b                    10.935713
_cell_length_c                    9.683445
_cell_angle_alpha                 90.886692
_cell_angle_beta                  97.34912
_cell_angle_gamma                 90.210942
_cell_volume                      1367.528053

loop_
_atom_site_label
_atom_site_type_symbol
_atom_type_description
_atom_site_fract_x
_atom_site_fract_y
_atom_site_fract_z
_atom_type_partial_charge
C1    C     C_R   0.496452 0.265178 0.498335 0.856457
C2    C     C_R   0.029667 0.499086 0.565193 0.113843
C3    C     C_R   0.969912 0.502628 0.433915 0.115384
C4    C     C_R   0.862835 0.503530 0.424897 -0.304555
C5    C     C_R   0.873103 0.490565 0.678035 0.440907
C6    C     C_R   0.981728 0.495230 0.686142 -0.292123
C7    C     C_2   0.484935 0.930473 0.390805 -0.229191
C8    C     C_2   0.514100 0.865749 0.504741 -0.290837
C9    C     C_2   0.506162 0.062959 0.389931 0.398291
C10   C     C_2   0.476293 0.134280 0.492947 0.009523
C11   C     C_2   0.443802 0.425460 0.912113 0.089006
C12   C     C_R   0.300045 0.500457 0.472191 0.847036
C13   C     C_2   0.457739 0.413377 0.068846 0.015864
C14   C     C_R   0.502478 0.734495 0.501314 0.855499
C15   C     C_R   0.699870 0.499449 0.527501 0.814465
C16   C     C_R   0.813524 0.498476 0.545344 -0.131089
C17   C     C_R   0.186282 0.501483 0.453556 -0.111821
C18   C     C_R   0.017858 0.505843 0.313005 -0.207688
C19   C     C_R   0.125406 0.505013 0.321025 0.269902
C20   C     C_R   0.136915 0.499005 0.574188 -0.248337
Cu1   Cu    Cu3+1 0.500020 0.500020 0.638640 1.003048
Cu2   Cu    Cu3+1 0.499980 0.499980 0.361360 0.991041
H1    H     H_    0.817919 0.508045 0.322766 0.179659
H2    H     H_    0.384697 0.369550 0.851961 0.120696
H3    H     H_    0.428670 0.331204 0.112049 0.159853
H4    H     H_    0.506626 0.583277 0.111112 0.234193
H5    H     H_    0.971542 0.508875 0.211798 0.156349
H6    H     H_    0.029199 0.495917 0.786451 0.162439
H7    H     H_    0.181846 0.496166 0.676422 0.181811
H8    H     H_    0.451245 0.885025 0.294979 0.157862
H9    H     H_    0.549859 0.909488 0.600583 0.165358
N1    N     N_2   0.498860 0.498660 0.846770 -0.022994
N2    N     N_2   0.498840 0.498630 0.152900 -0.259011
O1    O     O_R   0.500020 0.321960 0.617050 -0.568542
O2    O     O_R   0.499980 0.321920 0.382890 -0.545419
O3    O     O_R   0.349010 0.500000 0.598060 -0.602053
O4    O     O_R   0.348980 0.499950 0.363910 -0.535404
O5    O     O_R   0.500020 0.678080 0.617110 -0.616775
O6    O     O_R   0.499980 0.678040 0.382950 -0.589644
O7    O     O_R   0.651020 0.500050 0.636090 -0.529040
O8    O     O_R   0.650990 0.500000 0.401940 -0.585349
Br1   Br    Br    0.388489 0.077379 0.626184 -0.553686
O9    O     O_3   0.590526 0.531373 0.920299 -0.497239
C21   C     C_3   0.608266 0.656496 0.898094 0.237642
H10   H     H_    0.535901 0.711121 0.895677 0.121235
H11   H     H_    0.642624 0.668536 0.800500 0.197652
C22   C     C_3   0.686786 0.707578 0.015232 -0.900110
H12   H     H_    0.761992 0.659981 0.015818 0.277536
H13   H     H_    0.699193 0.806589 0.999062 0.208848
H14   H     H_    0.658864 0.696278 0.117860 0.241853
O10   O     O_3   0.823814 0.486157 0.797334 -0.558976
C23   C     C_3   0.868713 0.397203 0.890894 0.054529
H15   H     H_    0.938176 0.435797 0.955756 0.164953
H16   H     H_    0.890243 0.312719 0.835453 0.144110
C24   C     C_3   0.791626 0.360693 0.988357 -0.703007
H17   H     H_    0.720053 0.323533 0.927220 0.271402
H18   H     H_    0.826340 0.289651 0.060285 0.183877
H19   H     H_    0.771946 0.440793 0.051345 0.260494
Br2   Br    Br    0.179938 0.509300 0.145488 -0.564419
O11   O     O_3   0.562797 0.116023 0.292337 -0.575731
C25   C     C_3   0.571487 0.039597 0.175428 0.067934
H20   H     H_    0.493478 0.015689 0.120368 0.153797
H21   H     H_    0.615491 0.955237 0.206861 0.153297
C26   C     C_3   0.630384 0.107319 0.074225 -0.756936
H22   H     H_    0.709445 0.130375 0.125214 0.246386
H23   H     H_    0.636540 0.048750 0.980950 0.202397
H24   H     H_    0.589244 0.192712 0.040843 0.253547

loop_
_geom_bond_atom_site_label_1
_geom_bond_atom_site_label_2
_ccdc_geom_bond_type
C12   C17   S    
C4    C16   A    
C25   C26   S    
O9    C21   S    
C21   C22   S    
C13   N2    D    
C12   O3    A    
C9    C10   D    
H4    N2    S    
C22   H12   S    
C23   C24   S    
C24   H17   S    
C9    O11   S    
C26   H22   S    
C26   H23   S    
C2    C3    A    
C5    C16   A    
C7    C8    D    
C22   H13   S    
Cu1   O3    S    
Cu1   Cu2   S    
C23   H15   S    
Cu2   O2    S    
C11   C13   S    
C13   H3    S    
C2    C6    A    
Cu1   O7    S    
C5    C6    A    
Cu2   O6    S    
C17   C19   A    
N1    O9    S    
C23   H16   S    
C1    O1    A    
C4    H1    S    
C22   H14   S    
C20   H7    S    
C24   H18   S    
C25   H20   S    
Cu1   N1    S    
C15   O7    A    
Cu2   O8    S    
C14   O5    A    
C1    C10   S    
C2    C20   A    
C15   C16   S    
C26   H24   S    
C11   H2    S    
Cu1   O5    S    
C17   C20   A    
O10   C23   S    
C21   H10   S    
C15   O8    A    
C3    C18   A    
C7    C9    S    
C18   C19   A    
C24   H19   S    
C12   O4    A    
C25   H21   S    
Cu2   N2    S    
C5    O10   S    
C10   Br1   S    
C8    C14   S    
Cu1   O1    S    
C1    O2    A    
C19   Br2   S    
C14   O6    A    
Cu2   O4    S    
C8    H9    S    
C6    H6    S    
C18   H5    S    
C3    C4    A    
C21   H11   S    
O11   C25   S    
C11   N1    D    
C7    H8    S    
