data_mof_unit_46510.cif
_audit_creation_date              2013-03-05T16:10:09-0500
_audit_creation_method            fapswitch 2.2
_symmetry_space_group_name_H-M    P1
_symmetry_Int_Tables_number       1
_space_group_crystal_system       triclinic
_cell_length_a                    12.749072
_cell_length_b                    13.870454
_cell_length_c                    23.502464
_cell_angle_alpha                 89.909562
_cell_angle_beta                  92.990079
_cell_angle_gamma                 98.3193
_cell_volume                      4106.66062107

loop_
_atom_site_label
_atom_site_type_symbol
_atom_site_description
_atom_site_fract_x
_atom_site_fract_y
_atom_site_fract_z
_atom_type_partial_charge
O1    O     O_R   0.399110 0.356330 0.496510 -0.581384
O2    O     O_R   0.600890 0.643670 0.503490 -0.577011
O3    O     O_R   0.575900 0.366540 0.502610 -0.554476
O4    O     O_R   0.424100 0.633460 0.497390 -0.561009
C1    C     C_R   0.483230 0.315879 0.499323 0.773655
C2    C     C_R   0.516733 0.684114 0.500735 0.770066
O5    O     O_R   0.411590 0.494870 0.414830 -0.548154
O6    O     O_R   0.588410 0.505130 0.585170 -0.538138
O7    O     O_R   0.588370 0.505070 0.420930 -0.534201
O8    O     O_R   0.411630 0.494930 0.579070 -0.539628
C3    C     C_R   0.500386 0.499323 0.390616 0.849250
C4    C     C_R   0.499492 0.500531 0.609260 0.853049
Cu1   Cu    Cu3+1 0.395330 0.493960 0.496390 1.050772
Cu2   Cu    Cu3+1 0.604670 0.506040 0.503610 1.058260
C5    C     C_R   0.495558 0.586785 0.879877 0.677365
C6    C     C_R   0.480041 0.421332 0.119000 0.667664
N1    N     N_R   0.483144 0.499208 0.852086 -0.406303
N2    N     N_R   0.489772 0.508734 0.146778 -0.408780
C7    C     C_R   0.458413 0.413069 0.879985 0.733307
C8    C     C_R   0.486240 0.594108 0.118197 0.737691
C9    C     C_R   0.446132 0.412247 0.939309 -0.157826
C10   C     C_R   0.471686 0.594117 0.058260 -0.159847
C11   C     C_R   0.460281 0.502455 0.968813 -0.129021
C12   C     C_R   0.462085 0.504101 0.028847 -0.129040
C13   C     C_R   0.479228 0.591074 0.938619 -0.143377
C14   C     C_R   0.460419 0.416044 0.059433 -0.144020
C15   C     C_R   0.424054 0.324138 0.970164 0.363055
C16   C     C_R   0.469288 0.681433 0.026936 0.365326
C17   C     C_R   0.438030 0.325591 0.030101 0.415962
C18   C     C_R   0.480694 0.680975 0.967533 0.408126
O9    O     O_2   0.524248 0.668976 0.850289 -0.502768
O10   O     O_2   0.489775 0.340263 0.149458 -0.498649
O11   O     O_2   0.450339 0.328901 0.850302 -0.505878
O12   O     O_2   0.500177 0.678444 0.148018 -0.493287
C19   C     C_R   0.591638 0.534299 0.239565 0.243273
C20   C     C_R   0.578773 0.472374 0.765445 0.239498
C21   C     C_R   0.591899 0.537709 0.299377 0.315759
C22   C     C_R   0.576522 0.464369 0.705722 0.312195
C23   C     C_R   0.500334 0.497999 0.327610 -0.367668
C24   C     C_R   0.497971 0.503168 0.671977 -0.364771
C25   C     C_R   0.407182 0.458519 0.295172 0.314707
C26   C     C_R   0.417348 0.544073 0.698442 0.312254
C27   C     C_R   0.400434 0.474882 0.236077 0.236238
C28   C     C_R   0.405415 0.530497 0.757246 0.236737
C29   C     C_R   0.493969 0.509137 0.208003 -0.007335
C30   C     C_R   0.488660 0.498492 0.791146 -0.008885
C31   C     C_1   0.526680 0.787204 0.503867 -0.113061
C32   C     C_1   0.472869 0.212658 0.500361 -0.110936
C33   C     C_2   0.542923 0.978011 0.512385 0.186698
C34   C     C_2   0.454237 0.021368 0.504925 0.182671
C35   C     C_1   0.463794 0.125595 0.502067 0.055531
C36   C     C_1   0.534788 0.874066 0.507489 0.044184
N3    N     N_1   0.238030 0.484870 0.490960 -0.133679
N4    N     N_1   0.761970 0.515130 0.509040 -0.133359
C37   C     C_2   0.028385 0.475932 0.481825 0.099088
C38   C     C_2   0.971729 0.524674 0.518041 0.097240
C39   C     C_1   0.854436 0.518621 0.512255 0.326948
C40   C     C_1   0.145606 0.481634 0.487686 0.327894
O13   O     O_3   0.399054 0.235161 0.942453 -0.552522
C41   C     C_3   0.290613 0.222778 0.923206 0.084875
H1    H     H_    0.275852 0.275831 0.889258 0.194154
H2    H     H_    0.238160 0.233412 0.958438 0.107918
C42   C     C_3   0.259930 0.119695 0.899016 -0.336664
H3    H     H_    0.308888 0.110050 0.862227 0.249658
H4    H     H_    0.276114 0.065598 0.932080 0.208137
C43   C     C_3   0.142763 0.100256 0.879479 -0.848618
H5    H     H_    0.092324 0.107340 0.915956 0.260721
H6    H     H_    0.123422 0.025095 0.861988 0.265229
H7    H     H_    0.124960 0.152473 0.845682 0.278822
O14   O     O_3   0.464938 0.769048 0.054178 -0.549946
C44   C     C_3   0.358686 0.772560 0.068285 0.077678
H8    H     H_    0.332394 0.716508 0.100435 0.196268
H9    H     H_    0.302777 0.759472 0.030119 0.108384
C45   C     C_3   0.351405 0.873072 0.093066 -0.310448
H10   H     H_    0.403510 0.884851 0.132595 0.257173
H11   H     H_    0.379400 0.930343 0.061978 0.213093
C46   C     C_3   0.237830 0.882766 0.106969 -0.887672
H12   H     H_    0.185074 0.874739 0.067609 0.260704
H13   H     H_    0.235844 0.955747 0.125807 0.248599
H14   H     H_    0.208032 0.826434 0.138173 0.285560
O15   O     O_3   0.443481 0.239525 0.059809 -0.528813
C47   C     C_3   0.342299 0.184024 0.066649 0.088843
H15   H     H_    0.354843 0.124657 0.096918 0.180509
H16   H     H_    0.311178 0.146233 0.026642 0.148881
C48   C     C_3   0.259875 0.241135 0.091594 -0.403685
H17   H     H_    0.291697 0.274935 0.132852 0.278900
H18   H     H_    0.241445 0.299565 0.061938 0.209465
C49   C     C_3   0.156693 0.174207 0.101635 -0.814035
H19   H     H_    0.123088 0.138402 0.061115 0.248232
H20   H     H_    0.098102 0.217575 0.118228 0.294661
H21   H     H_    0.171000 0.117678 0.133464 0.249240
O16   O     O_3   0.508345 0.767893 0.938734 -0.528589
C50   C     C_3   0.422029 0.820984 0.928904 0.104201
H22   H     H_    0.450616 0.883407 0.901324 0.187525
H23   H     H_    0.401541 0.854813 0.968522 0.153492
C51   C     C_3   0.323384 0.762927 0.897827 -0.394994
H24   H     H_    0.345584 0.734367 0.856751 0.281774
H25   H     H_    0.289840 0.700554 0.924184 0.211647
C52   C     C_3   0.237474 0.827357 0.885721 -0.843303
H26   H     H_    0.212665 0.856213 0.926204 0.244207
H27   H     H_    0.167248 0.783942 0.863513 0.297572
H28   H     H_    0.267284 0.889252 0.858041 0.252273
N5    N     N_R   0.690982 0.554259 0.211977 0.159050
O17   O     O_R   0.776790 0.528582 0.236159 -0.243620
O18   O     O_R   0.697393 0.597569 0.162931 -0.322322
N6    N     N_R   0.673308 0.455727 0.798558 0.161638
O19   O     O_R   0.765764 0.474349 0.776706 -0.252202
O20   O     O_R   0.669780 0.426485 0.851096 -0.321820
O21   O     O_3   0.684132 0.576696 0.329975 -0.511453
C53   C     C_3   0.677212 0.673538 0.346946 0.107228
H29   H     H_    0.726059 0.688124 0.387394 0.189687
H30   H     H_    0.595111 0.685479 0.356396 0.094091
C54   C     C_3   0.721797 0.746489 0.302176 -0.343675
H31   H     H_    0.803211 0.733669 0.292763 0.270886
H32   H     H_    0.670833 0.736286 0.262232 0.246136
C55   C     C_3   0.725772 0.851214 0.322940 -0.817461
H33   H     H_    0.644849 0.865909 0.331936 0.255808
H34   H     H_    0.757739 0.902330 0.289543 0.277253
H35   H     H_    0.778199 0.864337 0.362246 0.275371
O22   O     O_3   0.654261 0.421191 0.680616 -0.525483
C56   C     C_3   0.613330 0.323929 0.664542 0.104100
H36   H     H_    0.661631 0.302783 0.629869 0.207137
H37   H     H_    0.529733 0.315713 0.646595 0.097455
C57   C     C_3   0.622433 0.253916 0.714583 -0.333508
H38   H     H_    0.705632 0.263600 0.732643 0.270955
H39   H     H_    0.569950 0.270334 0.748455 0.241946
C58   C     C_3   0.590018 0.148005 0.695845 -0.834882
H40   H     H_    0.507551 0.136896 0.676758 0.255336
H41   H     H_    0.593831 0.099551 0.733322 0.266107
H42   H     H_    0.644780 0.127635 0.664213 0.296971
O23   O     O_3   0.319404 0.410235 0.321203 -0.516777
C59   C     C_3   0.340377 0.317926 0.341456 0.146948
H43   H     H_    0.292233 0.299741 0.379110 0.191025
H44   H     H_    0.424640 0.316961 0.356453 0.091880
C60   C     C_3   0.307869 0.238363 0.296183 -0.341773
H45   H     H_    0.221834 0.234341 0.284313 0.274158
H46   H     H_    0.353471 0.256144 0.257567 0.239575
C61   C     C_3   0.329072 0.139043 0.318210 -0.844576
H47   H     H_    0.415019 0.140428 0.329420 0.260476
H48   H     H_    0.304395 0.082932 0.284621 0.266608
H49   H     H_    0.283225 0.118781 0.356436 0.287884
O24   O     O_3   0.345105 0.590971 0.666682 -0.502283
C62   C     C_3   0.395253 0.682751 0.647649 0.158270
H50   H     H_    0.351104 0.701215 0.608059 0.207793
H51   H     H_    0.478828 0.682357 0.636049 0.082135
C63   C     C_3   0.391629 0.763131 0.691917 -0.327384
H52   H     H_    0.307651 0.769395 0.699672 0.275929
H53   H     H_    0.431996 0.744519 0.732667 0.237949
C64   C     C_3   0.446480 0.861437 0.671649 -0.865179
H54   H     H_    0.531127 0.857662 0.664192 0.266050
H55   H     H_    0.442870 0.917929 0.704634 0.264207
H56   H     H_    0.406339 0.883124 0.631592 0.287675
N7    N     N_R   0.299368 0.456375 0.204189 0.151938
O25   O     O_R   0.278339 0.512384 0.161914 -0.377358
O26   O     O_R   0.223824 0.390316 0.220209 -0.308988
N8    N     N_R   0.309632 0.549230 0.782892 0.155710
O27   O     O_R   0.271582 0.495015 0.824383 -0.371870
O28   O     O_R   0.253813 0.613350 0.761689 -0.297482
N9    N     N_R   0.349216 0.966466 0.496380 0.127959
O29   O     O_R   0.274438 0.006216 0.469716 -0.318227
O30   O     O_R   0.323680 0.883382 0.521569 -0.354951
N10   N     N_R   0.647809 0.032777 0.521950 0.132070
O31   O     O_R   0.730659 0.993816 0.509316 -0.300254
O32   O     O_R   0.662436 0.114900 0.549951 -0.373587
N11   N     N_R   0.024657 0.583875 0.564533 0.133596
O33   O     O_R   0.977863 0.651230 0.586647 -0.285192
O34   O     O_R   0.112357 0.563844 0.589555 -0.297641
N12   N     N_R   0.975474 0.417197 0.435160 0.134330
O35   O     O_R   0.021989 0.349659 0.413029 -0.295303
O36   O     O_R   0.888583 0.438366 0.409772 -0.297155

loop_
_geom_bond_atom_site_label_1
_geom_bond_atom_site_label_2
_geom_bond_distance
_ccdc_geom_bond_type
C62   C63   1.533358 S    
C43   H6    1.110421 S    
C37   C38   1.382229 D    
C42   H4    1.111623 S    
N11   O33   1.301551 A    
C15   C17   1.410446 A    
O15   C47   1.420011 S    
C60   H45   1.111065 S    
C23   C25   1.417796 A    
C46   H12   1.110980 S    
C55   H33   1.111030 S    
O5    C3    1.286904 A    
C50   H22   1.110964 S    
C45   H11   1.111572 S    
C41   C42   1.529095 S    
O1    C1    1.279035 A    
N8    O27   1.301221 A    
C19   C21   1.406431 A    
C12   C14   1.414324 A    
N10   O31   1.301657 A    
C19   N5    1.443896 S    
C64   H55   1.110463 S    
N12   O36   1.301550 A    
C46   H14   1.110850 S    
C43   H7    1.110851 S    
N6    O19   1.301727 A    
C62   H50   1.111057 S    
C51   C52   1.526153 S    
C62   H51   1.114294 S    
C38   C39   1.484648 S    
C41   H2    1.114140 S    
O4    Cu1   1.916482 S    
C53   H29   1.111225 S    
C56   C57   1.534419 S    
C54   H31   1.111483 S    
C32   C35   1.197158 T    
C52   H26   1.111187 S    
C59   H43   1.111143 S    
C45   C46   1.525557 S    
C51   H25   1.110848 S    
C38   N11   1.445387 S    
C26   O24   1.388782 S    
C11   C12   1.410106 A    
N9    O30   1.301502 A    
C20   C30   1.417567 A    
O14   C44   1.418896 S    
N7    O26   1.300105 A    
O21   C53   1.418042 S    
C63   H53   1.111296 S    
C54   C55   1.526123 S    
C8    O12   1.349306 S    
C24   C26   1.414875 A    
C43   H5    1.110940 S    
C9    C15   1.420421 A    
C42   C43   1.525500 S    
O13   C41   1.418366 S    
N11   O34   1.301514 A    
C10   C16   1.419596 A    
Cu1   Cu2   2.646370 S    
C25   C27   1.407158 A    
O2    C2    1.279399 A    
C26   C28   1.407645 A    
C37   N12   1.445052 S    
C28   C30   1.416053 A    
Cu1   N3    1.988494 S    
C48   H18   1.110879 S    
C6    C14   1.409377 A    
C1    C32   1.418942 S    
C45   H10   1.111640 S    
C20   N6    1.446952 S    
C28   N8    1.446076 S    
N1    C30   1.437755 S    
C18   O16   1.391125 S    
C7    O11   1.349256 S    
C64   H56   1.109986 S    
C25   O23   1.388676 S    
C48   H17   1.109042 S    
C61   H49   1.110944 S    
C41   H1    1.111779 S    
C4    C24   1.475730 S    
O7    Cu2   1.943313 S    
C58   H41   1.110408 S    
C17   O15   1.390583 S    
C63   C64   1.527082 S    
O7    C3    1.289623 A    
N9    O29   1.301637 A    
C49   H21   1.110368 S    
O6    C4    1.286713 A    
C33   C36   1.434805 S    
C51   H24   1.109569 S    
C34   C35   1.434898 S    
C56   H36   1.111167 S    
C46   H13   1.109663 S    
N5    O18   1.299884 A    
C3    C23   1.480899 S    
C27   C29   1.414303 A    
C53   C54   1.531902 S    
C33   N10   1.445995 S    
C60   C61   1.526376 S    
O8    C4    1.286973 A    
C57   C58   1.526481 S    
O4    C2    1.282543 A    
N12   O35   1.301640 A    
Cu2   N4    1.988495 S    
C8    C10   1.411211 A    
C47   H15   1.110902 S    
C50   C51   1.541609 S    
C47   H16   1.103963 S    
C9    C11   1.415384 A    
C60   H46   1.111493 S    
C10   C12   1.414708 A    
O1    Cu1   1.916549 S    
C58   H40   1.111076 S    
C19   C29   1.414640 A    
N2    C29   1.437133 S    
O22   C56   1.418571 S    
C57   H39   1.110655 S    
C63   H52   1.111019 S    
C48   C49   1.525216 S    
C13   C18   1.418338 A    
C5    N1    1.365034 A    
O6    Cu2   1.938587 S    
C7    C9    1.410967 A    
C21   O21   1.386099 S    
C16   O14   1.384032 S    
C49   H20   1.110429 S    
O3    C1    1.282959 A    
O8    Cu1   1.943315 S    
C44   C45   1.528767 S    
N3    C40   1.171159 T    
C5    O9    1.349208 S    
C31   C36   1.197032 T    
C61   H48   1.110447 S    
O3    Cu2   1.916483 S    
C34   N9    1.445797 S    
C6    O10   1.349380 S    
C47   C48   1.543393 S    
C55   H35   1.110925 S    
N8    O28   1.300188 A    
C58   H42   1.109894 S    
C22   O22   1.386712 S    
C44   H8    1.112173 S    
C21   C23   1.414207 A    
N10   O32   1.301336 A    
C15   O13   1.384176 S    
C64   H54   1.110932 S    
C20   C22   1.406685 A    
C22   C24   1.411829 A    
C50   H23   1.103432 S    
N6    O20   1.300044 A    
C59   C60   1.532035 S    
C59   H44   1.114960 S    
C16   C18   1.411308 A    
O16   C50   1.419182 S    
N1    C7    1.366354 A    
C55   H34   1.110356 S    
N2    C8    1.365754 A    
C11   C13   1.414939 A    
O2    Cu2   1.916549 S    
C53   H30   1.116647 S    
C56   H37   1.115755 S    
C5    C13   1.409501 A    
C61   H47   1.110969 S    
C42   H3    1.111701 S    
C2    C31   1.418809 S    
O5    Cu1   1.938584 S    
C52   H28   1.111006 S    
C49   H19   1.111076 S    
C14   C17   1.417520 A    
C6    N2    1.364491 A    
C33   C34   1.358876 D    
C37   C40   1.484256 S    
C44   H9    1.114433 S    
N5    O17   1.301484 A    
O24   C62   1.421965 S    
N7    O25   1.301006 A    
C27   N7    1.446358 S    
C52   H27   1.110349 S    
O23   C59   1.421712 S    
C57   H38   1.111436 S    
C54   H32   1.110716 S    
N4    C39   1.171309 T    
