data_mof_unit_53030.cif
_audit_creation_date              2012-12-10T22:11:08-0500
_audit_creation_method            fapswitch 2.2
_symmetry_space_group_name_H-M    P1
_symmetry_Int_Tables_number       1
_space_group_crystal_system       triclinic
_cell_length_a                    12.140497
_cell_length_b                    12.327698
_cell_length_c                    23.295866
_cell_angle_alpha                 90.184461
_cell_angle_beta                  92.033831
_cell_angle_gamma                 91.932097
_cell_volume                      3482.35003374

loop_
_atom_site_label
_atom_site_type_symbol
_atom_type_description
_atom_site_fract_x
_atom_site_fract_y
_atom_site_fract_z
_atom_type_partial_charge
C1    C     C_R   0.657579 0.998447 0.579060 0.852527
C2    C     C_R   0.341856 0.001465 0.421160 0.862659
C3    C     C_R   0.918974 0.735748 0.160067 -0.166176
C4    C     C_R   0.080639 0.262333 0.839205 -0.160576
C5    C     C_R   0.083084 0.900849 0.168205 -0.048879
C6    C     C_R   0.919492 0.094182 0.833078 -0.045507
C7    C     C_R   0.081218 0.826207 0.122554 -0.064420
C8    C     C_R   0.920279 0.170956 0.877932 -0.060448
C9    C     C_R   0.918745 0.096940 0.151961 0.004573
C10   C     C_R   0.084690 0.899496 0.846089 0.021873
C11   C     C_R   0.924893 0.183887 0.114639 -0.138097
C12   C     C_R   0.076978 0.814200 0.884299 -0.119299
C13   C     C_R   0.150770 0.917378 0.299887 -0.212801
C14   C     C_R   0.845416 0.077890 0.702391 -0.200251
C15   C     C_R   0.234446 0.915187 0.341346 -0.159503
C16   C     C_R   0.761561 0.081122 0.661025 -0.166454
C17   C     C_R   0.800229 0.081222 0.287501 0.003872
C18   C     C_R   0.213956 0.928433 0.717441 -0.039441
C19   C     C_R   0.743138 0.096955 0.338309 0.149265
C20   C     C_R   0.296171 0.939850 0.676370 0.154833
C21   C     C_3   0.984227 0.002784 0.247169 -0.064878
C22   C     C_3   0.016598 0.993795 0.752104 -0.078753
C23   C     C_R   0.656043 0.003876 0.421965 0.846380
C24   C     C_R   0.347999 0.997532 0.579339 0.835112
C25   C     C_R   0.083298 0.008953 0.292431 0.034259
C26   C     C_R   0.915950 0.988006 0.707604 0.021394
C27   C     C_R   0.252312 0.002355 0.378518 -0.074287
C28   C     C_R   0.746406 0.996817 0.621909 -0.060828
C29   C     C_R   0.882552 0.000858 0.285871 -0.117238
C30   C     C_R   0.119309 0.996352 0.713678 -0.104417
C31   C     C_R   0.741313 0.010848 0.379185 -0.193518
C32   C     C_R   0.271561 0.996393 0.625157 -0.132625
C33   C     C_R   0.985899 0.099197 0.204091 -0.003990
C34   C     C_R   0.016647 0.896825 0.794352 0.067670
C35   C     C_R   0.998137 0.271163 0.124893 -0.084429
C36   C     C_R   0.002759 0.727405 0.874620 -0.059550
C37   C     C_R   0.993739 0.900208 0.207971 -0.049798
C38   C     C_R   0.006866 0.096060 0.792088 -0.049033
C39   C     C_R   0.997142 0.745442 0.118568 -0.082082
C40   C     C_R   0.003252 0.253083 0.881264 -0.085921
C41   C     C_R   0.994621 0.662442 0.074475 0.943383
C42   C     C_R   0.005443 0.337408 0.925269 0.945658
C43   C     C_R   0.999224 0.355105 0.081952 0.949578
C44   C     C_R   0.000889 0.644751 0.918077 0.945402
C45   C     C_R   0.096015 0.093492 0.335367 0.006914
C46   C     C_R   0.904602 0.906328 0.663130 -0.018656
C47   C     C_R   0.182889 0.089852 0.376145 -0.170969
C48   C     C_R   0.817573 0.910827 0.622608 -0.160841
C49   C     C_R   0.887091 0.925563 0.331497 -0.106776
C50   C     C_R   0.110712 0.066380 0.665750 -0.102423
C51   C     C_R   0.817442 0.927818 0.376923 -0.057980
C52   C     C_R   0.177987 0.059528 0.619565 -0.072888
C53   C     C_R   0.066730 0.184923 0.210263 -0.235862
C54   C     C_R   0.937204 0.810019 0.787685 -0.210830
C55   C     C_R   0.070155 0.272951 0.173273 0.005989
C56   C     C_R   0.932566 0.723502 0.825553 0.026229
C57   C     C_R   0.913719 0.810916 0.204019 -0.017639
C58   C     C_R   0.084673 0.187070 0.794962 -0.000526
H1    H     H_    0.195669 0.155117 0.407235 0.200005
H2    H     H_    0.806365 0.847801 0.590142 0.195502
H3    H     H_    0.948026 0.863420 0.331540 0.208688
H4    H     H_    0.044763 0.123169 0.662724 0.216776
H5    H     H_    0.130510 0.184854 0.243411 0.123932
H6    H     H_    0.875054 0.808276 0.753713 0.106533
H7    H     H_    0.139819 0.844413 0.274355 0.164907
H8    H     H_    0.854275 0.149126 0.729335 0.164110
H9    H     H_    0.857841 0.669325 0.156900 0.184514
H10   H     H_    0.140928 0.329533 0.841513 0.183275
H11   H     H_    0.869678 0.184513 0.077227 0.236067
H12   H     H_    0.131486 0.814513 0.922033 0.228162
H13   H     H_    0.285593 0.844889 0.344124 0.172181
H14   H     H_    0.708326 0.149969 0.659723 0.167650
O1    O     O_R   0.621380 0.090460 0.561410 -0.607136
O2    O     O_R   0.378620 0.909540 0.438590 -0.607629
O3    O     O_R   0.617150 0.909540 0.438590 -0.620886
O4    O     O_R   0.382850 0.090460 0.561410 -0.624735
O5    O     O_R   0.619720 0.093230 0.440890 -0.638669
O6    O     O_R   0.380280 0.906770 0.559110 -0.611458
O7    O     O_R   0.618800 0.906770 0.559110 -0.640950
O8    O     O_R   0.381200 0.093230 0.440890 -0.633390
O9    O     O_R   0.087590 0.627480 0.058790 -0.607497
O10   O     O_R   0.912410 0.372520 0.941210 -0.604155
O11   O     O_R   0.905660 0.383870 0.059980 -0.635107
O12   O     O_R   0.094340 0.616130 0.940020 -0.630279
O13   O     O_R   0.092570 0.390420 0.063230 -0.577474
O14   O     O_R   0.907430 0.609580 0.936770 -0.583412
O15   O     O_R   0.900680 0.620930 0.055550 -0.628483
O16   O     O_R   0.099320 0.379070 0.944450 -0.625552
Zn1   Zn    Zn3+2 0.501730 0.123520 0.501540 0.996332
Zn2   Zn    Zn3+2 0.498270 0.876480 0.498460 1.011358
Zn3   Zn    Zn3+2 0.125690 0.504390 0.002180 1.058182
Zn4   Zn    Zn3+2 0.874310 0.495610 0.997820 1.053619
C59   C     C_2   0.814892 0.793321 0.238765 0.394771
H15   H     H_    0.753053 0.854252 0.241405 0.088139
O17   O     O_2   0.799378 0.707047 0.263331 -0.523568
C60   C     C_2   0.178592 0.207620 0.757377 0.397748
H16   H     H_    0.244964 0.151310 0.755464 0.067756
O18   O     O_2   0.185033 0.291578 0.729836 -0.511859
C61   C     C_2   0.175565 0.984447 0.170562 0.356965
H17   H     H_    0.227125 0.997314 0.208844 0.091036
O19   O     O_2   0.194232 0.041268 0.128898 -0.520557
C62   C     C_2   0.829388 0.008102 0.832294 0.332995
H18   H     H_    0.778552 0.990899 0.794176 0.082187
O20   O     O_2   0.812464 0.953545 0.874985 -0.528197
C63   C     C_2   0.835688 0.009967 0.135694 0.481713
H19   H     H_    0.789863 0.967887 0.167951 0.056510
O21   O     O_2   0.816338 0.985736 0.085363 -0.501338
C64   C     C_2   0.169261 0.986119 0.861074 0.396130
H20   H     H_    0.212940 0.028400 0.827962 0.011929
O22   O     O_2   0.192302 0.009889 0.911121 -0.498221
C65   C     C_2   0.762606 0.142246 0.236846 0.337018
H21   H     H_    0.810471 0.211792 0.222039 0.081601
O23   O     O_2   0.672607 0.120245 0.213885 -0.554820
C66   C     C_2   0.231649 0.841539 0.760186 0.347895
H22   H     H_    0.287361 0.856064 0.796976 0.072810
O24   O     O_2   0.192535 0.750099 0.751987 -0.546711
C67   C     C_2   0.834489 0.849262 0.424669 0.492716
H23   H     H_    0.807117 0.866877 0.467422 0.068022
O25   O     O_2   0.881247 0.764480 0.417036 -0.518291
C68   C     C_2   0.147040 0.116971 0.565292 0.486937
H24   H     H_    0.186762 0.099236 0.525539 0.061357
O26   O     O_2   0.074939 0.183775 0.564007 -0.523563
C69   C     C_2   0.147814 0.365264 0.188490 0.420865
H25   H     H_    0.219119 0.351929 0.216719 0.075765
O27   O     O_2   0.130637 0.457556 0.172479 -0.572257
C70   C     C_2   0.855524 0.630533 0.810615 0.429039
H26   H     H_    0.785201 0.642685 0.781524 0.066558
O28   O     O_2   0.872184 0.538925 0.827861 -0.566168
C71   C     C_2   0.166843 0.835188 0.078483 0.567223
H27   H     H_    0.253312 0.845559 0.091463 0.064757
O29   O     O_2   0.140575 0.836052 0.027502 -0.548627
C72   C     C_2   0.834165 0.163047 0.921712 0.568819
H28   H     H_    0.747963 0.151169 0.908491 0.060068
O30   O     O_2   0.859726 0.164525 0.972769 -0.548014
C73   C     C_3   0.687341 0.205042 0.351199 -0.344968
C74   C     C_3   0.718975 0.307987 0.317867 -0.810467
H29   H     H_    0.809308 0.315305 0.312527 0.260323
H30   H     H_    0.673269 0.310955 0.275861 0.273767
H31   H     H_    0.694620 0.380437 0.342288 0.266512
H32   H     H_    0.596224 0.192544 0.348139 0.226869
H33   H     H_    0.713499 0.228677 0.395769 0.251878
C75   C     C_3   0.411712 0.896872 0.689334 -0.399204
C76   C     C_3   0.476756 0.971964 0.731479 -0.903139
H34   H     H_    0.487692 0.053944 0.712398 0.266971
H35   H     H_    0.433734 0.979352 0.772466 0.257555
H36   H     H_    0.559545 0.939111 0.740816 0.261326
H37   H     H_    0.407037 0.813181 0.706712 0.232210
H38   H     H_    0.462247 0.890292 0.651126 0.230613
C77   C     C_2   0.021270 0.186460 0.339937 0.388246
H39   H     H_    0.968733 0.210336 0.304388 0.060309
O31   O     O_2   0.017741 0.238854 0.384400 -0.532033
C78   C     C_2   0.982029 0.816379 0.656336 0.395197
H40   H     H_    0.038121 0.794659 0.690505 0.154278
O32   O     O_2   0.983724 0.764477 0.611627 -0.527341

loop_
_geom_bond_atom_site_label_1
_geom_bond_atom_site_label_2
_ccdc_geom_bond_type
C16   C28   A    
C76   H36   S    
C46   C78   S    
C59   H15   S    
C5    C37   A    
C43   O11   A    
C10   C64   S    
C65   H21   S    
C42   O10   A    
C19   C31   A    
C16   H14   S    
C18   C66   S    
C66   H22   S    
O13   Zn3   S    
O10   Zn4   S    
C69   H25   S    
C39   C41   S    
C29   C49   A    
O6    Zn2   S    
O11   Zn4   S    
C63   O21   D    
O5    Zn1   S    
C70   H26   S    
C77   O31   D    
C69   O27   D    
C21   C33   S    
C19   C73   S    
C76   H34   S    
C22   C38   S    
C41   O15   A    
C17   C29   A    
C64   H20   S    
O8    Zn1   S    
C58   C60   S    
C32   C52   A    
O7    Zn2   S    
C21   C25   S    
O3    Zn2   S    
C17   C19   A    
C38   C58   A    
C11   C35   A    
C5    C61   S    
C72   H28   S    
C49   C51   A    
C60   O18   D    
C8    C72   S    
C1    C28   S    
C50   C52   A    
C6    C38   A    
C2    C27   S    
C18   C30   A    
O12   Zn3   S    
C56   C70   S    
C12   C36   A    
C35   C43   S    
C18   C20   A    
C2    O2    A    
O4    Zn1   S    
C45   C47   A    
C30   C50   A    
C3    C39   A    
C59   O17   D    
C57   C59   S    
O15   Zn4   S    
C9    C33   A    
C10   C34   A    
C13   C25   A    
C74   H31   S    
C44   O14   A    
C17   C65   S    
C68   O26   D    
C48   H2    S    
C55   C69   S    
C53   C55   A    
C33   C53   A    
C73   H32   S    
C22   C34   S    
C46   C48   A    
C49   H3    S    
C35   C55   A    
C43   O13   A    
C75   H38   S    
C73   C74   S    
C74   H30   S    
C23   O3    A    
C4    H10   S    
C24   O4    A    
C6    C8    A    
C21   C29   S    
C14   C26   A    
C23   C31   S    
C24   C32   S    
C4    C40   A    
C36   C56   A    
C20   C75   S    
C15   C27   A    
C61   H17   S    
O16   Zn3   S    
C41   O9    A    
C60   H16   S    
C14   H8    S    
C65   O23   D    
C23   O5    A    
C62   O20   D    
C9    C11   A    
C10   C12   A    
C52   C68   S    
C24   O6    A    
C61   O19   D    
C78   O32   D    
C34   C54   A    
C13   C15   A    
C1    O7    A    
C14   C16   A    
C36   C44   S    
C42   O16   A    
C25   C45   A    
C68   H24   S    
C5    C7    A    
C71   H27   S    
C20   C32   A    
C27   C47   A    
C76   H35   S    
C12   H12   S    
C28   C48   A    
C70   O28   D    
C22   C30   S    
C75   H37   S    
C3    H9    S    
C31   C51   A    
C74   H29   S    
C44   O12   A    
C66   O24   D    
C11   H11   S    
C54   C56   A    
C15   H13   S    
C63   H19   S    
C1    O1    A    
O2    Zn2   S    
C67   O25   D    
O1    Zn1   S    
O14   Zn4   S    
C67   H23   S    
C53   H5    S    
C54   H6    S    
C50   H4    S    
C40   C42   S    
C51   C67   S    
C64   O22   D    
C3    C57   A    
C45   C77   S    
C6    C62   S    
C62   H18   S    
C13   H7    S    
C7    C71   S    
C2    O8    A    
C26   C46   A    
C47   H1    S    
O9    Zn3   S    
C73   H33   S    
C21   C37   S    
C78   H40   S    
C72   O30   D    
C22   C26   S    
C4    C58   A    
C7    C39   A    
C75   C76   S    
C8    C40   A    
C77   H39   S    
C9    C63   S    
C37   C57   A    
C71   O29   D    
