data_mof_unit_52221.cif
_audit_creation_date              2012-12-10T18:58:44-0500
_audit_creation_method            fapswitch 2.2
_symmetry_space_group_name_H-M    P1
_symmetry_Int_Tables_number       1
_space_group_crystal_system       triclinic
_cell_length_a                    12.966295
_cell_length_b                    10.868915
_cell_length_c                    9.586301
_cell_angle_alpha                 90.234831
_cell_angle_beta                  96.023808
_cell_angle_gamma                 89.959234
_cell_volume                      1343.52214896

loop_
_atom_site_label
_atom_site_type_symbol
_atom_type_description
_atom_site_fract_x
_atom_site_fract_y
_atom_site_fract_z
_atom_type_partial_charge
C1    C     C_R   0.497628 0.262570 0.498886 0.801903
C2    C     C_R   0.026644 0.530467 0.558194 0.159609
C3    C     C_R   0.972634 0.467981 0.443359 0.076061
C4    C     C_R   0.865881 0.453340 0.438077 -0.253133
C5    C     C_R   0.865194 0.568696 0.655294 -0.215610
C6    C     C_R   0.972562 0.579795 0.664348 -0.164925
C7    C     C_R   0.526038 0.063368 0.616309 -0.077557
C8    C     C_R   0.494347 0.129128 0.494859 -0.300083
C9    C     C_R   0.465255 0.063675 0.368384 0.356625
C10   C     C_R   0.459838 0.934773 0.370161 0.365220
C11   C     C_R   0.489485 0.870365 0.496513 -0.261529
C12   C     C_R   0.300566 0.499134 0.473631 0.802294
C13   C     C_R   0.523918 0.936611 0.617194 -0.044899
C14   C     C_3   0.487985 0.930846 0.760522 -0.424956
C15   C     C_3   0.489125 0.070847 0.760095 0.344812
C16   C     C_R   0.588211 0.474068 0.085960 0.088856
C17   C     C_R   0.412556 0.526503 0.061314 0.605817
C18   C     C_R   0.412959 0.528401 0.914410 0.567068
C19   C     C_R   0.587953 0.473129 0.938262 0.097479
C20   C     C_3   0.686060 0.545275 0.945975 -0.531698
C21   C     C_3   0.685930 0.547807 0.103825 0.284666
C22   C     C_R   0.495174 0.737172 0.499210 0.813395
C23   C     C_R   0.699218 0.500865 0.526285 0.779265
C24   C     C_R   0.811762 0.506020 0.541744 -0.036637
C25   C     C_R   0.187565 0.493988 0.458072 -0.178912
C26   C     C_R   0.025948 0.422507 0.334743 -0.308797
C27   C     C_R   0.132873 0.436700 0.340919 0.617636
C28   C     C_R   0.133806 0.542412 0.564989 -0.325617
Cu1   Cu    Cu3+1 0.499990 0.499980 0.640670 0.990749
Cu2   Cu    Cu3+1 0.500010 0.500020 0.359330 1.051170
H1    H     H_    0.824803 0.401245 0.353216 0.134655
H2    H     H_    0.546945 0.888622 0.838491 0.216232
H3    H     H_    0.410013 0.111042 0.756816 0.097416
H4    H     H_    0.750894 0.489666 0.911819 0.167493
H5    H     H_    0.675382 0.637091 0.895554 0.214486
H6    H     H_    0.751057 0.496109 0.160786 0.061271
H7    H     H_    0.823843 0.611854 0.734724 0.141737
H8    H     H_    0.984910 0.376167 0.245154 0.160157
H9    H     H_    0.012936 0.628632 0.752560 0.148985
H10   H     H_    0.175226 0.589903 0.653233 0.237281
H11   H     H_    0.408735 0.891502 0.759443 0.171974
N1    N     N_R   0.500660 0.500930 0.148010 -0.243393
N2    N     N_R   0.500660 0.500890 0.852110 -0.250687
O1    O     O_R   0.500000 0.319640 0.618810 -0.575819
O2    O     O_R   0.500010 0.319680 0.381230 -0.549391
O3    O     O_R   0.348990 0.499960 0.599490 -0.524238
O4    O     O_R   0.349000 0.500000 0.361910 -0.498276
O5    O     O_R   0.499990 0.680320 0.618770 -0.570256
O6    O     O_R   0.500000 0.680360 0.381190 -0.514002
O7    O     O_R   0.651000 0.500000 0.638090 -0.586749
O8    O     O_R   0.651010 0.500040 0.400510 -0.570813
O9    O     O_3   0.557039 0.122544 0.872103 -0.540415
C29   C     C_3   0.662858 0.123757 0.847746 0.139309
H12   H     H_    0.675634 0.191506 0.764583 0.154523
H13   H     H_    0.689471 0.031043 0.817292 0.131271
C30   C     C_3   0.728430 0.162264 0.981679 -0.799387
H14   H     H_    0.717602 0.096361 0.066998 0.253711
H15   H     H_    0.811624 0.163689 0.963638 0.192795
H16   H     H_    0.705646 0.255452 0.014552 0.241869
F1    F     F_    0.322998 0.555179 0.113995 -0.613577
F2    F     F_    0.325431 0.565739 0.837609 -0.656633
O10   O     O_3   0.666443 0.666189 0.156820 -0.516957
C31   C     C_3   0.760772 0.728884 0.191740 0.080295
H17   H     H_    0.799938 0.746592 0.095852 0.129437
H18   H     H_    0.813588 0.675826 0.268515 0.144403
C32   C     C_3   0.737962 0.851530 0.259044 -0.740674
H19   H     H_    0.703894 0.835771 0.359077 0.242300
H20   H     H_    0.810750 0.905136 0.281136 0.182089
H21   H     H_    0.682080 0.905095 0.187485 0.267660
F3    F     F_    0.182537 0.391383 0.234266 -0.662143
O11   O     O_3   0.449364 0.122722 0.240147 -0.527517
C33   C     C_3   0.344907 0.160786 0.214631 0.131095
H22   H     H_    0.329550 0.240224 0.282387 0.189833
H23   H     H_    0.289465 0.086883 0.234214 0.101878
C34   C     C_3   0.323770 0.199190 0.061899 -0.623037
H24   H     H_    0.335217 0.119638 0.992253 0.215488
H25   H     H_    0.242791 0.232589 0.040072 0.230209
H26   H     H_    0.377880 0.273485 0.038658 0.233649
O12   O     O_3   0.426672 0.874244 0.245930 -0.525028
C35   C     C_3   0.322653 0.834611 0.248186 0.098876
H27   H     H_    0.276178 0.893646 0.313667 0.061235
H28   H     H_    0.321139 0.740075 0.290598 0.200847
C36   C     C_3   0.269109 0.832578 0.098964 -0.657509
H29   H     H_    0.316748 0.781130 0.028687 0.284711
H30   H     H_    0.192098 0.787631 0.097282 0.209740
H31   H     H_    0.257810 0.927529 0.058605 0.199320

loop_
_geom_bond_atom_site_label_1
_geom_bond_atom_site_label_2
_ccdc_geom_bond_type
C32   H20   S    
Cu2   O8    S    
C31   H18   S    
C33   H23   S    
C16   C21   S    
C5    H7    S    
C1    C8    S    
Cu2   O2    S    
C22   O5    A    
C19   C20   S    
C7    C8    A    
C21   H6    S    
C29   H12   S    
C25   C28   A    
C26   C27   A    
Cu1   Cu2   S    
C35   C36   S    
C5    C6    A    
C4    C24   A    
C32   H21   S    
C28   H10   S    
C30   H14   S    
C17   N1    A    
C20   H5    S    
C8    C9    A    
C23   C24   S    
C33   C34   S    
C9    C10   A    
C20   H4    S    
C7    C15   S    
C32   H19   S    
C31   C32   S    
C13   C14   S    
Cu1   N2    S    
C2    C6    A    
C12   O4    A    
C19   N2    A    
Cu1   O7    S    
C29   H13   S    
Cu1   O5    S    
Cu2   O4    S    
C12   O3    A    
C33   H22   S    
C23   O7    A    
O12   C35   S    
C34   H24   S    
O10   C31   S    
C1    O1    A    
C23   O8    A    
C36   H29   S    
C17   C18   A    
C15   O9    S    
C34   H25   S    
C21   O10   S    
C27   F3    S    
C14   H11   S    
C35   H28   S    
C36   H30   S    
Cu2   O6    S    
C22   O6    A    
Cu1   O1    S    
C3    C4    A    
C16   N1    A    
O9    C29   S    
C29   C30   S    
C14   C15   S    
C3    C26   A    
C26   H8    S    
C9    O11   S    
C14   H2    S    
C35   H27   S    
C10   O12   S    
C18   F2    S    
C25   C27   A    
C12   C25   S    
C11   C22   S    
C30   H16   S    
Cu1   O3    S    
C2    C3    A    
O11   C33   S    
C18   N2    A    
C11   C13   A    
C1    O2    A    
C5    C24   A    
C16   C19   A    
C30   H15   S    
C34   H26   S    
C4    H1    S    
C10   C11   A    
C17   F1    S    
C31   H17   S    
C7    C13   A    
C36   H31   S    
C20   C21   S    
C6    H9    S    
Cu2   N1    S    
C2    C28   A    
C15   H3    S    
