data_mof_unit_17708.cif
_audit_creation_date              2012-10-26T19:28:58-0400
_audit_creation_method            fapswitch 2.2
_symmetry_space_group_name_H-M    P1
_symmetry_Int_Tables_number       1
_space_group_crystal_system       triclinic
_cell_length_a                    9.475791
_cell_length_b                    10.763783
_cell_length_c                    17.250001
_cell_angle_alpha                 90.4629
_cell_angle_beta                  86.49014
_cell_angle_gamma                 89.839186
_cell_volume                      1756.05292684

loop_
_atom_site_label
_atom_site_type_symbol
_atom_type_description
_atom_site_fract_x
_atom_site_fract_y
_atom_site_fract_z
_atom_type_partial_charge
C1    C     C_R   0.500033 0.739788 0.500268 0.574678
C2    C     C_R   0.530918 0.500207 0.265896 0.024894
C3    C     C_3   0.420885 0.928176 0.430638 0.080670
C4    C     C_R   0.481828 0.500380 0.649523 0.585528
C5    C     C_3   0.426298 0.071526 0.429769 -0.240944
C6    C     C_3   0.426183 0.927147 0.576842 -0.274781
C7    C     C_3   0.655485 0.926125 0.495175 -0.182125
C8    C     C_3   0.500840 0.877524 0.500139 -0.035129
C9    C     C_3   0.502096 0.121543 0.501059 0.069332
C10   C     C_3   0.423747 0.071509 0.577192 0.088565
C11   C     C_3   0.658727 0.069882 0.497218 0.397908
C12   C     C_R   0.392107 0.598076 0.771900 -0.164754
C13   C     C_3   0.911505 0.392701 0.543496 0.218364
C14   C     C_3   0.078567 0.387917 0.540184 -0.148584
C15   C     C_3   0.923803 0.490354 0.417957 0.206406
C16   C     C_R   0.500373 0.259932 0.500739 0.625518
C17   C     C_3   0.913971 0.616214 0.532642 0.215940
C18   C     C_3   0.091632 0.498855 0.417197 0.500649
C19   C     C_3   0.079197 0.606920 0.541250 -0.106968
C20   C     C_R   0.518429 0.498728 0.350333 0.619074
C21   C     C_R   0.471566 0.503543 0.733682 0.076911
C22   C     C_R   0.540447 0.413149 0.775870 0.266722
C23   C     C_R   0.491019 0.408226 0.140351 0.312511
C24   C     C_R   0.530353 0.420306 0.857134 -0.052247
C25   C     C_R   0.456324 0.518476 0.895274 0.016377
C26   C     C_R   0.385227 0.605998 0.852496 -0.116057
C27   C     C_R   0.474258 0.404402 0.221553 0.279032
C28   C     C_R   0.608277 0.596056 0.229365 -0.114400
C29   C     C_R   0.621609 0.601862 0.148926 -0.094001
C30   C     C_R   0.560662 0.510061 0.104145 0.058506
C31   C     C_2   0.449809 0.527035 0.980724 0.274588
C32   C     C_2   0.569307 0.522413 0.019395 0.273380
Cl1   Cl    Cl    0.488634 0.865816 0.338993 -0.560630
Cl2   Cl    Cl    0.390540 0.275705 0.266880 -0.470206
Cl3   Cl    Cl    0.143268 0.641699 0.368908 -0.500244
Cl4   Cl    Cl    0.739634 0.536224 0.972106 -0.563424
Cl5   Cl    Cl    0.430835 0.282500 0.084548 -0.420598
Cu1   Cu    Cu3+1 0.357600 0.500140 0.499960 1.006784
Cu2   Cu    Cu3+1 0.642400 0.499860 0.500040 1.110884
H1    H     H_    0.677661 0.679066 0.121550 0.196831
H2    H     H_    0.873923 0.304211 0.518894 0.169019
H3    H     H_    0.116411 0.383697 0.599922 0.190508
H4    H     H_    0.113963 0.298785 0.512919 0.093436
H5    H     H_    0.894231 0.695530 0.493319 0.086472
H6    H     H_    0.656700 0.667558 0.263283 0.190563
H7    H     H_    0.101921 0.603085 0.603781 0.157044
H8    H     H_    0.128134 0.694673 0.520271 0.133012
H9    H     H_    0.884726 0.569953 0.384475 0.181967
H10   H     H_    0.326185 0.681140 0.881456 0.162321
H11   H     H_    0.338207 0.667272 0.739144 0.121554
H12   H     H_    0.308134 0.899260 0.437649 0.179581
H13   H     H_    0.580436 0.349935 0.890769 0.163236
H14   H     H_    0.655218 0.262918 0.775104 0.334687
H15   H     H_    0.224830 0.076506 0.551067 0.315881
H16   H     H_    0.709013 0.074119 0.384157 0.348132
H17   H     H_    0.825713 0.084865 0.557685 0.329477
H18   H     H_    0.876444 0.316380 0.644587 0.333151
H19   H     H_    0.928348 0.309501 0.396008 0.349911
H20   H     H_    0.198946 0.341209 0.400184 0.344606
H21   H     H_    0.869810 0.729072 0.619103 0.291192
H22   H     H_    0.244393 0.530325 0.985591 0.357633
H23   H     H_    0.480841 0.105172 0.375339 0.218430
H24   H     H_    0.316942 0.109059 0.429260 0.137338
H25   H     H_    0.316980 0.889376 0.584140 0.134605
H26   H     H_    0.712056 0.888848 0.544792 0.127298
H27   H     H_    0.713643 0.889316 0.441830 0.163720
H28   H     H_    0.483320 0.893737 0.627246 0.123774
H29   H     H_    0.481178 0.104241 0.627825 0.230008
N1    N     N_3   0.856560 0.499750 0.498270 -0.219179
N2    N     N_3   0.143860 0.496700 0.498910 -0.306446
O1    O     O_R   0.379740 0.682430 0.499960 -0.503751
O2    O     O_3   0.284769 0.118114 0.588551 -0.707130
O3    O     O_3   0.738630 0.116286 0.431752 -0.676369
O4    O     O_3   0.724249 0.108496 0.564533 -0.690164
O5    O     O_3   0.858619 0.398631 0.621322 -0.568311
O6    O     O_3   0.877086 0.383637 0.378841 -0.605580
O7    O     O_3   0.151055 0.403174 0.369132 -0.567306
O8    O     O_3   0.843902 0.642842 0.604986 -0.599029
O9    O     O_3   0.320507 0.537460 0.022317 -0.638288
O10   O     O_R   0.620260 0.682190 0.500020 -0.516451
O11   O     O_R   0.365800 0.500150 0.613560 -0.548013
O12   O     O_R   0.606310 0.499910 0.613620 -0.363005
O13   O     O_R   0.379740 0.317810 0.499980 -0.524720
O14   O     O_R   0.620260 0.317570 0.500040 -0.419924
O15   O     O_R   0.393690 0.500090 0.386380 -0.401894
O16   O     O_R   0.634200 0.499850 0.386440 -0.489426
O17   O     O_3   0.613417 0.318047 0.736769 -0.658524

loop_
_geom_bond_atom_site_label_1
_geom_bond_atom_site_label_2
_ccdc_geom_bond_type
C24   H13   S    
C15   C18   S    
Cu1   N2    S    
C17   N1    S    
Cu1   O13   S    
C1    C8    S    
H20   O7    S    
C13   H2    S    
C19   H7    S    
H19   O6    S    
C7    C8    S    
C7    C11   S    
H21   O8    S    
C1    O1    A    
C32   Cl4   S    
C28   C29   A    
C9    C16   S    
Cu2   O14   S    
Cu1   Cu2   S    
C19   H8    S    
C3    Cl1   S    
C16   O14   A    
C5    H24   S    
C6    H25   S    
C4    O11   A    
C13   O5    S    
C20   O16   A    
C2    C27   A    
C23   C27   A    
C9    C10   S    
C14   H3    S    
C15   O6    S    
C13   C14   S    
C14   N2    S    
C15   H9    S    
C27   Cl2   S    
C15   N1    S    
C28   H6    S    
H17   O4    S    
Cu1   O15   S    
C2    C20   S    
C23   C30   A    
C24   C25   A    
C3    C8    S    
C11   O3    S    
C26   H10   S    
C3    H12   S    
C6    C8    S    
C25   C26   A    
C23   Cl5   S    
C12   C21   A    
C16   O13   A    
C12   C26   A    
C5    C9    S    
C29   C30   A    
C7    H26   S    
C31   C32   D    
C20   O15   A    
Cu2   N1    S    
H15   O2    S    
H14   O17   S    
C22   O17   S    
C9    C11   S    
C6    H28   S    
Cu1   O11   S    
C22   C24   A    
C18   Cl3   S    
Cu1   O1    S    
C25   C31   S    
Cu2   O12   S    
C3    C5    S    
C11   O4    S    
C6    C10   S    
C12   H11   S    
C31   O9    S    
C10   H29   S    
C18   N2    S    
Cu2   O10   S    
H18   O5    S    
C17   H5    S    
C7    H27   S    
C30   C32   S    
C4    C21   S    
C13   N1    S    
H22   O9    S    
C18   O7    S    
C29   H1    S    
C17   O8    S    
C17   C19   S    
C5    H23   S    
H16   O3    S    
C4    O12   A    
C1    O10   A    
C19   N2    S    
C2    C28   A    
Cu2   O16   S    
C21   C22   A    
C14   H4    S    
C10   O2    S    
