data_mof_unit_61024.cif
_audit_creation_date              2012-12-10T18:07:06-0500
_audit_creation_method            fapswitch 2.2
_symmetry_space_group_name_H-M    P1
_symmetry_Int_Tables_number       1
_space_group_crystal_system       triclinic
_cell_length_a                    10.753421
_cell_length_b                    12.749257
_cell_length_c                    13.900596
_cell_angle_alpha                 97.936998
_cell_angle_beta                  90.219732
_cell_angle_gamma                 93.139496
_cell_volume                      1884.5316049

loop_
_atom_site_label
_atom_site_type_symbol
_atom_type_description
_atom_site_fract_x
_atom_site_fract_y
_atom_site_fract_z
_atom_type_partial_charge
C1    C     C_R   0.498682 0.483575 0.315825 0.801390
C2    C     C_3   0.878251 0.499340 0.500555 -0.028923
C3    C     C_3   0.932222 0.558473 0.598449 0.474205
C4    C     C_3   0.931230 0.554786 0.415629 -0.358328
C5    C     C_1   0.502063 0.525835 0.787512 -0.147295
C6    C     C_2   0.503463 0.543567 0.978401 -0.152365
C7    C     C_2   0.496540 0.456472 0.021598 -0.163257
C8    C     C_1   0.497262 0.465629 0.125423 0.010835
C9    C     C_1   0.502740 0.534403 0.874576 0.021571
C10   C     C_1   0.497938 0.474182 0.212487 -0.167113
C11   C     C_2   0.464421 0.028194 0.473597 -0.254277
C12   C     C_R   0.259364 0.500208 0.500075 0.806036
C13   C     C_2   0.535580 0.971807 0.526409 -0.249138
C14   C     C_1   0.525561 0.854627 0.519118 0.255558
C15   C     C_1   0.474440 0.145374 0.480886 0.213668
C16   C     C_R   0.501318 0.516429 0.684175 0.826007
C17   C     C_R   0.740574 0.499601 0.500164 0.805698
C18   C     C_3   0.063610 0.384430 0.487663 -0.490205
C19   C     C_3   0.921149 0.383995 0.487708 -0.495982
C20   C     C_3   0.076225 0.558955 0.598387 0.473737
C21   C     C_3   0.074682 0.555349 0.415686 -0.362142
C22   C     C_3   0.121569 0.500163 0.500522 -0.029565
Cu1   Cu    Cu3+1 0.491980 0.395330 0.493960 0.967838
Cu2   Cu    Cu3+1 0.508020 0.604670 0.506040 1.039642
H1    H     H_    0.095241 0.342281 0.547608 0.190205
H2    H     H_    0.902115 0.637880 0.422234 0.223243
H3    H     H_    0.490306 0.377996 0.979303 0.161201
H4    H     H_    0.509697 0.622044 0.020694 0.163697
H5    H     H_    0.604115 0.014117 0.577133 0.169434
H6    H     H_    0.395887 0.985883 0.422872 0.165767
H7    H     H_    0.094510 0.339903 0.418056 0.219165
H8    H     H_    0.883799 0.339386 0.418133 0.219274
H9    H     H_    0.884881 0.341818 0.547706 0.188651
H10   H     H_    0.107987 0.518038 0.659079 0.001264
H11   H     H_    0.896307 0.517343 0.659181 0.000574
H12   H     H_    0.113994 0.638653 0.422480 0.222748
H13   H     H_    0.106504 0.513611 0.345183 0.154808
H14   H     H_    0.893700 0.512759 0.345104 0.154686
N1    N     N_1   0.479930 0.238040 0.484880 -0.159522
N2    N     N_1   0.520070 0.761960 0.515120 -0.143499
O1    O     O_R   0.492240 0.399110 0.356330 -0.570528
O2    O     O_R   0.505790 0.575900 0.366540 -0.581967
O3    O     O_R   0.310920 0.411610 0.494880 -0.596121
O4    O     O_R   0.324460 0.588390 0.505090 -0.531311
O5    O     O_R   0.494210 0.424100 0.633460 -0.580214
O6    O     O_R   0.507760 0.600890 0.643670 -0.544122
O7    O     O_R   0.675540 0.411610 0.494910 -0.596107
O8    O     O_R   0.689080 0.588390 0.505120 -0.530396
F1    F     F_    0.127075 0.662394 0.614202 -0.599069
F2    F     F_    0.894238 0.661684 0.614451 -0.599458

loop_
_geom_bond_atom_site_label_1
_geom_bond_atom_site_label_2
_ccdc_geom_bond_type
C16   O5    A    
C4    H2    S    
Cu1   Cu2   S    
C5    C9    T    
C6    C7    D    
Cu1   O5    S    
C13   C14   S    
Cu2   O2    S    
C2    C4    S    
Cu1   O1    S    
C17   O8    A    
C3    H11   S    
C20   H10   S    
C6    C9    S    
C2    C3    S    
Cu2   O6    S    
C7    C8    S    
C12   O4    A    
C21   H12   S    
C21   C22   S    
C2    C17   S    
C4    C21   S    
C11   C13   D    
C15   N1    T    
C20   F1    S    
C18   H1    S    
Cu1   N1    S    
C19   H8    S    
C1    O1    A    
Cu2   N2    S    
C3    F2    S    
C4    H14   S    
C12   O3    A    
C16   O6    A    
Cu2   O4    S    
Cu1   O7    S    
C14   N2    T    
Cu2   O8    S    
C12   C22   S    
C1    O2    A    
C3    C20   S    
C7    H3    S    
C21   H13   S    
C8    C10   T    
C18   C19   S    
C19   H9    S    
C13   H5    S    
C5    C16   S    
C18   H7    S    
C2    C19   S    
C18   C22   S    
Cu1   O3    S    
C11   C15   S    
C6    H4    S    
C1    C10   S    
C17   O7    A    
C11   H6    S    
C20   C22   S    
