data_mof_unit_15705.cif
_audit_creation_date              2012-12-10T19:52:22-0500
_audit_creation_method            fapswitch 2.2
_symmetry_space_group_name_H-M    P1
_symmetry_Int_Tables_number       1
_space_group_crystal_system       triclinic
_cell_length_a                    14.876436
_cell_length_b                    14.136109
_cell_length_c                    10.666563
_cell_angle_alpha                 89.803582
_cell_angle_beta                  91.542135
_cell_angle_gamma                 90.258695
_cell_volume                      2242.2764484

loop_
_atom_site_label
_atom_site_type_symbol
_atom_type_description
_atom_site_fract_x
_atom_site_fract_y
_atom_site_fract_z
_atom_type_partial_charge
C1    C     C_R   0.327165 0.499758 0.496304 0.883175
C2    C     C_R   0.912380 0.564288 0.522949 -0.152005
C3    C     C_R   0.802945 0.437899 0.387053 -0.213815
C4    C     C_R   0.820702 0.565549 0.538410 -0.216372
C5    C     C_R   0.766611 0.500763 0.472888 -0.026468
C6    C     C_R   0.949236 0.501203 0.437619 0.111403
C7    C     C_R   0.423852 0.104443 0.459816 -0.281334
C8    C     C_R   0.424473 0.894694 0.537845 -0.296104
C9    C     C_R   0.498327 0.500020 0.257539 0.842606
C10   C     C_R   0.425362 0.203928 0.459423 0.008711
C11   C     C_R   0.425931 0.795255 0.537407 0.013619
C12   C     C_3   0.597896 0.551255 0.939053 0.032274
C13   C     C_R   0.574634 0.204692 0.541203 0.017018
C14   C     C_R   0.574248 0.796138 0.463351 0.035051
C15   C     C_R   0.576325 0.105215 0.541623 -0.288630
C16   C     C_R   0.575951 0.895614 0.463795 -0.295232
C17   C     C_R   0.500145 0.053229 0.500859 0.139852
C18   C     C_R   0.500237 0.946746 0.500949 0.136047
C19   C     C_R   0.671739 0.500242 0.490945 0.840750
C20   C     C_R   0.504787 0.499795 0.742828 0.826679
C21   C     C_3   0.411086 0.539182 0.066157 -0.437631
C22   C     C_3   0.512327 0.396956 0.072732 -0.385593
C23   C     C_R   0.095518 0.579561 0.406477 0.010689
C24   C     C_3   0.416854 0.540767 0.922660 -0.413096
C25   C     C_3   0.507685 0.395173 0.929893 -0.406188
C26   C     C_3   0.576774 0.567680 0.079516 -0.422478
C27   C     C_3   0.500285 0.500177 0.121756 0.147868
C28   C     C_3   0.508804 0.499217 0.880009 0.111928
C29   C     C_R   0.619623 0.650525 0.880002 0.120927
C30   C     C_R   0.555550 0.724566 0.878143 -0.116711
C31   C     C_R   0.573134 0.812009 0.822195 -0.119687
C32   C     C_R   0.656427 0.830019 0.770877 -0.094406
C33   C     C_R   0.723173 0.761560 0.778723 -0.157498
C34   C     C_R   0.090762 0.412141 0.469972 0.015797
C35   C     C_R   0.705968 0.673925 0.834467 -0.173873
C36   C     C_R   0.681232 0.483557 0.926296 0.092306
C37   C     C_R   0.708151 0.458322 0.805203 -0.187645
C38   C     C_R   0.780227 0.397674 0.785859 -0.144662
C39   C     C_R   0.828192 0.360020 0.887818 -0.128639
C40   C     C_R   0.803340 0.382159 0.008920 -0.142366
C41   C     C_R   0.730868 0.442412 0.028643 -0.142744
C42   C     C_R   0.051876 0.666797 0.356083 0.117216
C43   C     C_R   0.994120 0.662504 0.249609 -0.128484
C44   C     C_R   0.951834 0.744237 0.203880 -0.135565
C45   C     C_R   0.187632 0.580290 0.431179 -0.253381
C46   C     C_R   0.967162 0.830945 0.263415 -0.117840
C47   C     C_R   0.024960 0.836115 0.368639 -0.141042
C48   C     C_R   0.067331 0.754540 0.414809 -0.175908
C49   C     C_R   0.043166 0.321425 0.491638 0.117676
C50   C     C_R   0.982572 0.311660 0.589686 -0.134818
C51   C     C_R   0.937174 0.225925 0.607273 -0.150053
C52   C     C_R   0.952806 0.149301 0.528466 -0.111028
C53   C     C_R   0.014030 0.158098 0.432021 -0.143577
C54   C     C_R   0.059263 0.243737 0.413717 -0.180786
C55   C     C_R   0.183071 0.414532 0.490998 -0.252659
C56   C     C_R   0.230810 0.498831 0.475777 -0.070099
C57   C     C_R   0.046326 0.496043 0.431400 -0.006686
C58   C     C_R   0.894412 0.439680 0.367069 -0.161367
H1    H     H_    0.397956 0.611897 0.100780 0.176436
H2    H     H_    0.632678 0.757893 0.433598 0.130279
H3    H     H_    0.636379 0.069296 0.575554 0.127638
H4    H     H_    0.635713 0.932185 0.433540 0.134761
H5    H     H_    0.353812 0.493669 0.094726 0.168083
H6    H     H_    0.457997 0.350121 0.107817 0.179920
H7    H     H_    0.360585 0.496596 0.883562 0.163365
H8    H     H_    0.444893 0.357978 0.898261 0.182919
H9    H     H_    0.401812 0.611526 0.883817 0.168293
H10   H     H_    0.563690 0.352024 0.894069 0.194239
H11   H     H_    0.553265 0.641153 0.094644 0.172044
H12   H     H_    0.576995 0.366718 0.107858 0.181354
H13   H     H_    0.636408 0.568025 0.143273 0.136237
H14   H     H_    0.225911 0.644130 0.413163 0.156943
H15   H     H_    0.217285 0.350767 0.522400 0.157887
H16   H     H_    0.922898 0.391336 0.300500 0.131588
H17   H     H_    0.954868 0.611288 0.578778 0.134191
H18   H     H_    0.492846 0.718159 0.924657 0.109078
H19   H     H_    0.522322 0.866616 0.820649 0.126043
H20   H     H_    0.670018 0.897941 0.728045 0.119112
H21   H     H_    0.789093 0.776739 0.742827 0.121852
H22   H     H_    0.762361 0.626512 0.842994 0.137580
H23   H     H_    0.760499 0.388416 0.335197 0.137927
H24   H     H_    0.674774 0.489098 0.725295 0.135077
H25   H     H_    0.799165 0.380453 0.691491 0.146748
H26   H     H_    0.884472 0.313505 0.873307 0.117937
H27   H     H_    0.839875 0.351731 0.088281 0.121625
H28   H     H_    0.714754 0.452190 0.125212 0.113868
H29   H     H_    0.981932 0.595945 0.201972 0.124627
H30   H     H_    0.907202 0.740336 0.122197 0.128881
H31   H     H_    0.934319 0.894146 0.227968 0.118654
H32   H     H_    0.036700 0.903320 0.414730 0.120313
H33   H     H_    0.111118 0.759561 0.497316 0.120555
H34   H     H_    0.792356 0.614545 0.604109 0.147916
H35   H     H_    0.970301 0.370418 0.651708 0.127216
H36   H     H_    0.889818 0.218640 0.681883 0.118314
H37   H     H_    0.917622 0.083047 0.542299 0.114953
H38   H     H_    0.026264 0.098629 0.371234 0.119861
H39   H     H_    0.106167 0.249888 0.338150 0.124468
H40   H     H_    0.363821 0.067919 0.426261 0.134551
H41   H     H_    0.364891 0.930533 0.568760 0.134406
H42   H     H_    0.366573 0.242265 0.426365 0.122028
H43   H     H_    0.367583 0.756341 0.567507 0.123266
H44   H     H_    0.633303 0.243623 0.574275 0.130892
N1    N     N_R   0.499980 0.252470 0.500000 -0.090203
N2    N     N_R   0.499980 0.747530 0.500000 -0.085709
O1    O     O_R   0.369070 0.579480 0.500010 -0.633249
O2    O     O_R   0.369070 0.420520 0.500010 -0.629469
O3    O     O_R   0.499990 0.579480 0.314790 -0.627188
O4    O     O_R   0.499990 0.420520 0.314790 -0.630936
O5    O     O_R   0.630940 0.579480 0.499990 -0.622947
O6    O     O_R   0.630940 0.420520 0.499990 -0.631769
O7    O     O_R   0.500020 0.579480 0.685200 -0.607928
O8    O     O_R   0.500020 0.420520 0.685200 -0.620730
Zn1   Zn    Zn3+2 0.500010 0.606140 0.500000 0.941845
Zn2   Zn    Zn3+2 0.500010 0.393860 0.500000 0.929235

loop_
_geom_bond_atom_site_label_1
_geom_bond_atom_site_label_2
_ccdc_geom_bond_type
C7    C10   A    
C55   C56   A    
C23   C45   A    
C7    H40   S    
C38   H25   S    
C6    C58   A    
O8    Zn2   S    
C46   H31   S    
C53   C54   A    
C9    O4    A    
C41   H28   S    
C58   H16   S    
C26   C27   S    
C29   C30   A    
C23   C42   S    
O2    Zn2   S    
O1    Zn1   S    
C36   C37   A    
C1    C56   S    
C39   H26   S    
C21   H1    S    
C30   C31   A    
C12   C29   S    
C49   C54   A    
C35   H22   S    
C52   H37   S    
C15   C17   A    
O4    Zn2   S    
O3    Zn1   S    
C24   H9    S    
C20   O8    A    
C47   C48   A    
C45   C56   A    
C7    C17   A    
C48   H33   S    
C3    H23   S    
C34   C57   A    
C54   H39   S    
C11   N2    A    
C12   C36   S    
O6    Zn2   S    
O5    Zn1   S    
C1    O2    A    
C21   C27   S    
C34   C55   A    
C53   H38   S    
C26   H13   S    
C6    C57   S    
C36   C41   A    
C2    C6    A    
C25   H10   S    
C16   H4    S    
C44   C46   A    
C31   H19   S    
C19   O5    A    
C51   C52   A    
N1    Zn2   S    
O7    Zn1   S    
C39   C40   A    
C33   H21   S    
C20   C28   S    
C50   C51   A    
C32   H20   S    
C22   C25   S    
C8    C18   A    
C12   C26   S    
C25   C28   S    
C40   H27   S    
C2    C4    A    
C43   C44   A    
C37   C38   A    
C20   O7    A    
C30   H18   S    
C14   N2    A    
C31   C32   A    
C17   C18   S    
C15   H3    S    
C11   H43   S    
C42   C48   A    
C10   H42   S    
C24   H7    S    
C40   C41   A    
C12   C28   S    
C22   C27   S    
C13   C15   A    
C47   H32   S    
C14   C16   A    
C37   H24   S    
C13   N1    A    
C42   C43   A    
C52   C53   A    
C9    C27   S    
C19   O6    A    
C23   C57   A    
C46   C47   A    
C10   N1    A    
C34   C49   S    
C8    H41   S    
C25   H8    S    
C24   C28   S    
C4    C5    A    
C3    C5    A    
C50   H35   S    
C5    C19   S    
C9    O3    A    
C14   H2    S    
C29   C35   A    
C43   H29   S    
C32   C33   A    
C38   C39   A    
C8    C11   A    
C33   C35   A    
C21   H5    S    
C51   H36   S    
C22   H6    S    
N2    Zn1   S    
C55   H15   S    
C3    C58   A    
C16   C18   A    
C49   C50   A    
C21   C24   S    
C26   H11   S    
C45   H14   S    
C13   H44   S    
C44   H30   S    
C22   H12   S    
C2    H17   S    
C1    O1    A    
C4    H34   S    
