data_mof_unit_22028.cif
_audit_creation_date              2013-03-05T15:41:23-0500
_audit_creation_method            fapswitch 2.2
_symmetry_space_group_name_H-M    P1
_symmetry_Int_Tables_number       1
_space_group_crystal_system       triclinic
_cell_length_a                    7.81678
_cell_length_b                    8.562708
_cell_length_c                    10.67041
_cell_angle_alpha                 91.185831
_cell_angle_beta                  84.906424
_cell_angle_gamma                 93.739746
_cell_volume                      709.785489451

loop_
_atom_site_label
_atom_site_type_symbol
_atom_site_description
_atom_site_fract_x
_atom_site_fract_y
_atom_site_fract_z
_atom_type_partial_charge
O1    O     O_R   0.389250 0.738570 0.508370 -0.629711
O2    O     O_R   0.678390 0.711620 0.486510 -0.607521
C1    C     C_R   0.545920 0.794434 0.501981 0.854279
O3    O     O_R   0.355430 0.513500 0.696140 -0.576847
O4    O     O_R   0.644580 0.486550 0.674270 -0.648576
C2    C     C_R   0.500189 0.504247 0.742185 0.977920
Zn1   Zn    Zn3+2 0.306940 0.517990 0.514600 1.187822
Zn2   Zn    Zn3+2 0.693060 0.482010 0.485400 1.168946
O5    O     O_R   0.321610 0.288380 0.513490 -0.543548
O6    O     O_R   0.610750 0.261430 0.491630 -0.579302
O7    O     O_R   0.355420 0.513450 0.325730 -0.510044
O8    O     O_R   0.644570 0.486500 0.303860 -0.583327
C3    C     C_R   0.455009 0.205710 0.506871 0.987236
C4    C     C_R   0.501707 0.511190 0.258623 0.956740
C5    C     C_3   0.346540 0.609184 0.942567 0.678857
C6    C     C_3   0.335018 0.586114 0.085833 1.077557
H1    H     H_    0.391073 0.274015 0.126066 0.290313
C7    C     C_3   0.490602 0.335951 0.930289 0.068553
C8    C     C_3   0.668882 0.590952 0.915538 -0.476819
C9    C     C_3   0.496083 0.507834 0.879232 -0.416887
H2    H     H_    0.777935 0.519525 0.881333 0.241035
H3    H     H_    0.695157 0.705829 0.868158 0.278771
C10   C     C_3   0.502406 0.514773 0.122257 -0.425467
C11   C     C_3   0.499448 0.342323 0.074274 -0.535635
C12   C     C_3   0.663189 0.614864 0.059374 0.756419
H4    H     H_    0.609773 0.281964 0.890027 0.215865
H5    H     H_    0.613538 0.282997 0.098631 0.264190
C13   C     C_2   0.569716 0.956712 0.524332 0.143732
C14   C     C_2   0.433723 0.041894 0.511088 -0.327662
H6    H     H_    0.309225 0.990837 0.487665 0.208840
N1    N     N_2   0.950330 0.457950 0.465890 0.242513
N2    N     N_2   0.049670 0.542050 0.534110 -0.058451
H7    H     H_    0.986307 0.618283 0.594884 0.177291
N3    N     N_R   0.175373 0.577942 0.895563 0.232787
O9    O     O_R   0.104451 0.437050 0.887738 -0.305678
O10   O     O_R   0.094328 0.693420 0.856813 -0.298246
N4    N     N_R   0.827510 0.574886 0.103037 0.248273
O11   O     O_R   0.923239 0.681087 0.157732 -0.190134
O12   O     O_R   0.875403 0.432249 0.093293 -0.275028
N5    N     N_R   0.727640 0.018274 0.572822 0.240934
O13   O     O_R   0.875741 0.980977 0.519112 -0.305162
O14   O     O_R   0.722598 0.095261 0.679415 -0.321699
F1    F     F_    0.030250 0.357652 0.387015 -0.441117
F2    F     F_    0.394749 0.766149 0.918937 -0.562848
F3    F     F_    0.311352 0.728723 0.147425 -0.536822
F4    F     F_    0.195063 0.485492 0.123605 -0.555527
N6    N     N_R   0.345227 0.233177 0.891463 0.295726
O15   O     O_R   0.227735 0.170695 0.972799 -0.180140
O16   O     O_R   0.347397 0.183669 0.775565 -0.341151
F5    F     F_    0.642706 0.772324 0.087133 -0.561253

loop_
_geom_bond_atom_site_label_1
_geom_bond_atom_site_label_2
_geom_bond_distance
_ccdc_geom_bond_type
C6    F3    1.389945 S    
C4    C10   1.455557 S    
O4    Zn2   2.017351 S    
C10   C11   1.552254 S    
N4    O11   1.301670 A    
C2    C9    1.459583 S    
C5    N3    1.476554 S    
C7    C9    1.576586 S    
N1    N2    1.287314 D    
C7    H4    1.114854 S    
C11   H5    1.107548 S    
Zn2   O8    2.008205 S    
C7    N6    1.474939 S    
N5    O14   1.301602 A    
O2    C1    1.289542 A    
N6    O16   1.298031 A    
N2    H7    1.029349 S    
Zn1   O7    2.017350 S    
C13   C14   1.346875 D    
C14   H6    1.088040 S    
N1    F1    1.335252 S    
O3    Zn1   2.008205 S    
C7    C11   1.543736 S    
C3    C14   1.402905 S    
N5    O13   1.301344 A    
C8    H2    1.112408 S    
O8    C4    1.286669 A    
C5    F2    1.393957 S    
C6    C10   1.562250 S    
N3    O10   1.301993 A    
C10   C12   1.580467 S    
O4    C2    1.301750 A    
C8    C12   1.541278 S    
O7    C4    1.295225 A    
H1    C11   1.109413 S    
C13   N5    1.444545 S    
C5    C6    1.539418 S    
N6    O15   1.302506 A    
N4    O12   1.300060 A    
C8    H3    1.114074 S    
O3    C2    1.280660 A    
N3    O9    1.298675 A    
C6    F4    1.383745 S    
Zn1   O5    1.976608 S    
O5    C3    1.294048 A    
C12   F5    1.390840 S    
C1    C13   1.408095 S    
Zn1   N2    2.026803 S    
C12   N4    1.467751 S    
O1    Zn1   1.955731 S    
Zn2   N1    2.026802 S    
Zn2   O6    1.955730 S    
O2    Zn2   1.976608 S    
C8    C9    1.561150 S    
C5    C9    1.595014 S    
O1    C1    1.281934 A    
O6    C3    1.276093 A    
