data_mof_unit_16948.cif
_audit_creation_date              2013-03-05T15:41:28-0500
_audit_creation_method            fapswitch 2.2
_symmetry_space_group_name_H-M    P1
_symmetry_Int_Tables_number       1
_space_group_crystal_system       triclinic
_cell_length_a                    17.065805
_cell_length_b                    7.243133
_cell_length_c                    16.987727
_cell_angle_alpha                 90.518729
_cell_angle_beta                  99.402041
_cell_angle_gamma                 89.294932
_cell_volume                      2071.43282575

loop_
_atom_site_label
_atom_site_type_symbol
_atom_site_description
_atom_site_fract_x
_atom_site_fract_y
_atom_site_fract_z
_atom_type_partial_charge
O1    O     O_R   0.414560 0.494370 0.416770 -0.574065
O2    O     O_R   0.585440 0.994370 0.583230 -0.569286
O3    O     O_R   0.578370 0.819590 0.429320 -0.529957
O4    O     O_R   0.421630 0.319590 0.570680 -0.541137
C1    C     C_R   0.604446 0.653932 0.413830 0.866371
C2    C     C_R   0.395318 0.157060 0.586096 0.869615
O5    O     O_R   0.414740 0.823790 0.407360 -0.515991
O6    O     O_R   0.585260 0.323790 0.592640 -0.522898
O7    O     O_R   0.420650 0.998510 0.561120 -0.524949
O8    O     O_R   0.579350 0.498510 0.438880 -0.543435
C3    C     C_R   0.389720 0.655124 0.383753 0.815945
C4    C     C_R   0.610304 0.154749 0.616427 0.812042
O9    O     O_3   0.502130 0.662240 0.550470 -0.261513
O10   O     O_3   0.497870 0.162240 0.449530 -0.271295
V1    V     V_3+5 0.499600 0.935390 0.490640 1.287727
V2    V     V_3+5 0.500400 0.435390 0.509360 1.269644
C5    C     C_2   0.778103 0.261611 0.793565 0.350909
C6    C     C_2   0.219002 0.763006 0.209622 0.347585
C7    C     C_2   0.830360 0.118327 0.808478 0.310260
C8    C     C_2   0.170025 0.616722 0.191725 0.296874
C9    C     C_2   0.722671 0.274938 0.715165 0.344532
C10   C     C_2   0.274468 0.773305 0.288108 0.346779
C11   C     C_2   0.669110 0.140561 0.691761 0.294470
C12   C     C_2   0.331283 0.642126 0.308363 0.312284
C13   C     C_R   0.330495 0.156813 0.635307 -0.267881
C14   C     C_R   0.668634 0.638278 0.364252 -0.271396
C15   C     C_R   0.168445 0.110487 0.864215 -0.270013
C16   C     C_R   0.831724 0.628958 0.135331 -0.265767
C17   C     C_R   0.290489 0.968751 0.831382 0.494177
C18   C     C_R   0.706583 0.771084 0.159370 0.490469
C19   C     C_R   0.235120 0.992368 0.884281 0.285751
C20   C     C_R   0.763029 0.736231 0.108467 0.284893
C21   C     C_R   0.160212 0.215043 0.793730 0.333442
C22   C     C_R   0.841247 0.545937 0.211011 0.333727
C23   C     C_R   0.216487 0.195932 0.740108 -0.169701
C24   C     C_R   0.783849 0.575515 0.262617 -0.166578
C25   C     C_R   0.282169 0.071017 0.759161 -0.167881
C26   C     C_R   0.716409 0.691577 0.236890 -0.167464
C27   C     C_R   0.338904 0.053366 0.706031 0.332893
C28   C     C_R   0.659378 0.722519 0.288814 0.333232
C29   C     C_R   0.263247 0.272868 0.614534 0.290906
C30   C     C_R   0.736803 0.528897 0.390647 0.277284
C31   C     C_R   0.207485 0.295710 0.667163 0.491222
C32   C     C_R   0.793190 0.494073 0.339722 0.493001
O11   O     O_R   0.920750 0.773600 0.061260 -0.542825
O12   O     O_R   0.079250 0.273600 0.938740 -0.525718
O13   O     O_R   0.085340 0.439850 0.092570 -0.566992
O14   O     O_R   0.914660 0.939850 0.907430 -0.572624
C33   C     C_R   0.110540 0.608525 0.116373 0.808428
C34   C     C_R   0.889471 0.108855 0.883772 0.812512
O15   O     O_R   0.921720 0.444130 0.070790 -0.522089
O16   O     O_R   0.078280 0.944130 0.929210 -0.533664
O17   O     O_R   0.914480 0.269530 0.916840 -0.516013
O18   O     O_R   0.085520 0.769530 0.083160 -0.522447
C35   C     C_R   0.896080 0.613824 0.085932 0.859135
C36   C     C_R   0.104006 0.110822 0.913933 0.856700
O19   O     O_3   0.997840 0.601520 0.949550 -0.258504
O20   O     O_3   0.002160 0.101520 0.050450 -0.267830
V3    V     V_3+5 0.000400 0.328340 0.009360 1.288910
V4    V     V_3+5 0.999600 0.828340 0.990640 1.271484
O21   O     O_3   0.777072 0.399974 0.850052 -0.731151
H1    H     H_    0.734026 0.488944 0.829749 0.329842
O22   O     O_3   0.216311 0.907540 0.156600 -0.732266
H2    H     H_    0.257487 0.997860 0.178709 0.332755
N1    N     N_R   0.092947 0.337132 0.776550 0.142134
O23   O     O_R   0.022751 0.270568 0.751466 -0.339106
O24   O     O_R   0.100276 0.511069 0.795831 -0.294916
N2    N     N_R   0.911526 0.437159 0.235781 0.138150
O25   O     O_R   0.978515 0.517982 0.261833 -0.338250
O26   O     O_R   0.910449 0.259609 0.223362 -0.296040
O27   O     O_3   0.830903 0.983779 0.750037 -0.703127
H3    H     H_    0.876408 0.898498 0.766049 0.333228
O28   O     O_3   0.173453 0.476796 0.247391 -0.696203
H4    H     H_    0.130489 0.387635 0.229941 0.350534
O29   O     O_3   0.724667 0.428876 0.668018 -0.722707
H5    H     H_    0.768642 0.508549 0.693488 0.336522
O30   O     O_3   0.269093 0.921602 0.338877 -0.725904
H6    H     H_    0.223243 0.999775 0.315363 0.332990
O31   O     O_3   0.667726 0.990031 0.741336 -0.693454
H7    H     H_    0.622441 0.910229 0.719772 0.354282
O32   O     O_3   0.336596 0.497048 0.255697 -0.698739
H8    H     H_    0.384713 0.422250 0.275295 0.335103
N3    N     N_R   0.407807 0.937029 0.724855 0.135851
O33   O     O_R   0.405330 0.765504 0.701240 -0.296574
O34   O     O_R   0.474942 0.007395 0.758307 -0.335728
N4    N     N_R   0.590284 0.835993 0.265056 0.142125
O35   O     O_R   0.594499 0.013957 0.275666 -0.296545
O36   O     O_R   0.521443 0.759972 0.242916 -0.336529
O37   O     O_3   0.249783 0.365993 0.542668 -0.693211
H9    H     H_    0.276915 0.300509 0.503162 0.323764
O38   O     O_3   0.750822 0.454970 0.466600 -0.690381
H10   H     H_    0.723644 0.531194 0.502834 0.335757
O39   O     O_3   0.354134 0.847608 0.849947 -0.624259
H11   H     H_    0.349813 0.775561 0.898197 0.369852
O40   O     O_3   0.639970 0.879014 0.133415 -0.623118
H12   H     H_    0.642950 0.935846 0.081292 0.372133
O41   O     O_3   0.142365 0.412029 0.647253 -0.625993
H13   H     H_    0.145686 0.481492 0.598080 0.371056
O42   O     O_3   0.858975 0.383022 0.365032 -0.622989
H14   H     H_    0.855587 0.325022 0.416826 0.371107
O43   O     O_3   0.248483 0.898196 0.955863 -0.689243
H15   H     H_    0.222697 0.965480 0.995877 0.337180
O44   O     O_3   0.748595 0.808218 0.032157 -0.696518
H16   H     H_    0.776641 0.732897 0.996328 0.325297

loop_
_geom_bond_atom_site_label_1
_geom_bond_atom_site_label_2
_geom_bond_distance
_ccdc_geom_bond_type
C29   O37   1.384794 S    
O11   V4    1.989054 S    
O39   H11   0.988958 S    
O12   V3    1.978095 S    
O28   H4    0.989804 S    
C7    O27   1.385895 S    
O40   H12   0.988882 S    
O1    C3    1.331179 A    
O29   H5    0.991704 S    
O2    C4    1.330258 A    
C2    O7    1.313249 A    
O41   H13   0.988895 S    
O17   V3    2.012962 S    
C21   N1    1.433587 S    
O13   C33   1.337258 A    
O18   V4    2.011348 S    
O30   H6    0.991707 S    
C15   C21   1.409188 A    
O5    C3    1.335528 A    
C4    C11   1.495228 S    
O43   H15   0.989773 S    
C19   O43   1.384397 S    
C26   C28   1.430783 A    
C21   C23   1.432325 A    
C32   O42   1.385138 S    
N4    O36   1.301021 A    
C6    O22   1.382659 S    
C2    C13   1.491611 S    
C17   C25   1.425121 A    
C33   O18   1.334762 A    
C3    C12   1.492126 S    
C18   C26   1.425888 A    
C18   O40   1.385091 S    
C30   O38   1.384642 S    
C28   N4    1.433690 S    
O16   V4    2.024034 S    
C5    O21   1.383167 S    
O42   H14   0.988883 S    
N2    O25   1.300766 A    
N1    O24   1.301217 A    
C23   C31   1.425732 A    
O15   C35   1.336478 A    
O14   C34   1.335782 A    
C16   C22   1.408613 A    
O6    V2    2.018585 S    
C29   C31   1.415524 A    
C30   C32   1.414245 A    
C17   O39   1.385203 S    
C16   C35   1.489621 S    
O14   V4    2.018442 S    
C25   C27   1.431357 A    
C34   O17   1.331981 A    
C15   C19   1.413326 A    
C16   C20   1.412652 A    
O31   H7    0.990055 S    
O4    C2    1.308848 A    
C13   C29   1.413337 A    
O38   H10   0.989769 S    
C15   C36   1.492000 S    
O19   V4    1.777869 S    
O20   V3    1.788832 S    
O32   H8    0.990780 S    
C1    C14   1.489542 S    
O4    V2    2.024051 S    
C12   O32   1.385651 S    
C8    C33   1.499383 S    
N3    O33   1.301134 A    
O6    C4    1.335939 A    
C20   O44   1.384850 S    
O1    V2    2.011580 S    
O2    V1    2.013186 S    
N4    O35   1.301180 A    
N3    O34   1.300685 A    
C9    C11   1.355385 D    
C10   C12   1.354814 D    
C24   C32   1.425663 A    
O15   V3    2.002396 S    
C22   N2    1.433249 S    
O3    V1    2.002407 S    
C14   C30   1.412607 A    
C23   C25   1.428861 A    
C6    C10   1.505613 S    
C31   O41   1.385125 S    
C10   O30   1.382983 S    
O3    C1    1.313925 A    
C9    O29   1.382696 S    
C24   C26   1.428569 A    
O7    V1    1.989941 S    
C27   N3    1.432703 S    
O27   H3    0.990377 S    
C17   C19   1.414331 A    
O8    V2    2.002498 S    
C13   C27   1.408123 A    
C18   C20   1.414777 A    
C7    C34   1.495553 S    
C14   C28   1.408969 A    
O5    V1    2.022595 S    
C5    C7    1.358217 D    
C22   C24   1.430363 A    
C8    O28   1.386613 S    
C6    C8    1.358909 D    
O21   H1    0.991702 S    
C5    C9    1.505477 S    
O13   V3    2.022472 S    
O22   H2    0.991702 S    
C1    O8    1.308400 A    
O11   C35   1.330652 A    
N2    O26   1.301189 A    
N1    O23   1.301074 A    
O9    V2    1.778219 S    
O12   C36   1.335324 A    
O44   H16   0.989910 S    
O10   V1    1.789198 S    
C11   O31   1.386482 S    
O37   H9    0.990028 S    
O16   C36   1.331842 A    
