data_mof_unit_35940.cif
_audit_creation_date              2012-12-10T20:04:47-0500
_audit_creation_method            fapswitch 2.2
_symmetry_space_group_name_H-M    P1
_symmetry_Int_Tables_number       1
_space_group_crystal_system       triclinic
_cell_length_a                    10.829174
_cell_length_b                    18.956212
_cell_length_c                    18.47133
_cell_angle_alpha                 90.787026
_cell_angle_beta                  103.619637
_cell_angle_gamma                 89.690032
_cell_volume                      3684.81592459

loop_
_atom_site_label
_atom_site_type_symbol
_atom_type_description
_atom_site_fract_x
_atom_site_fract_y
_atom_site_fract_z
_atom_type_partial_charge
C1    C     C_R   0.501494 0.365288 0.499732 0.857952
C2    C     C_R   0.500322 0.634710 0.500557 0.861725
C3    C     C_R   0.524675 0.709678 0.505496 -0.065238
C4    C     C_R   0.524582 0.290020 0.501630 -0.066777
C5    C     C_R   0.641142 0.962641 0.583223 0.027745
C6    C     C_R   0.618985 0.036334 0.449057 0.027102
C7    C     C_R   0.642458 0.036741 0.584078 0.025863
C8    C     C_R   0.622208 0.962331 0.448653 0.026079
C9    C     C_R   0.624109 0.073059 0.516488 0.038704
C10   C     C_R   0.625602 0.926034 0.514915 0.038398
C11   C     C_R   0.554826 0.553700 0.735740 0.268551
C12   C     C_R   0.419751 0.542660 0.261931 0.267151
C13   C     C_R   0.550595 0.554192 0.811295 -0.293673
C14   C     C_R   0.421641 0.542119 0.185950 -0.301237
C15   C     C_R   0.497142 0.497329 0.841248 0.106889
C16   C     C_R   0.504905 0.496991 0.159467 0.123502
C17   C     C_R   0.440811 0.443026 0.792077 -0.301588
C18   C     C_R   0.587558 0.454469 0.210969 -0.297003
C19   C     C_R   0.442281 0.445736 0.716275 -0.021043
C20   C     C_R   0.583296 0.456653 0.286388 -0.020119
C21   C     C_R   0.393017 0.476176 0.947584 -0.260567
C22   C     C_R   0.614497 0.510023 0.054650 -0.264863
C23   C     C_R   0.259112 0.501248 0.469209 0.959309
C24   C     C_R   0.740879 0.501488 0.530846 0.942459
C25   C     C_R   0.393086 0.475137 0.023837 0.012883
C26   C     C_R   0.615891 0.509490 0.978468 0.022345
C27   C     C_R   0.503825 0.493850 0.078207 0.059606
C28   C     C_R   0.502779 0.494155 0.923475 0.061322
C29   C     C_2   0.123270 0.507087 0.451790 -0.396953
C30   C     C_2   0.876700 0.507527 0.548551 -0.384670
C31   C     C_2   0.067588 0.518858 0.507613 -0.179892
C32   C     C_2   0.932473 0.519507 0.493192 -0.175430
C33   C     C_R   0.440076 0.758596 0.463050 -0.025014
C34   C     C_R   0.453682 0.243439 0.534823 -0.019357
C35   C     C_R   0.475862 0.829439 0.466713 -0.189781
C36   C     C_R   0.489334 0.172412 0.540543 -0.193643
C37   C     C_R   0.593833 0.850984 0.510669 0.178768
C38   C     C_R   0.594648 0.148560 0.514959 0.177451
C39   C     C_R   0.676689 0.801998 0.552383 -0.146023
C40   C     C_R   0.665204 0.195585 0.483459 -0.142758
C41   C     C_R   0.641651 0.731663 0.550239 -0.219786
C42   C     C_R   0.629276 0.265784 0.475951 -0.225112
H1    H     H_    0.878721 0.525442 0.435850 0.188290
H2    H     H_    0.121364 0.523966 0.565178 0.196357
H3    H     H_    0.591074 0.598415 0.846427 0.148254
H4    H     H_    0.358820 0.576958 0.148084 0.131492
H5    H     H_    0.397686 0.398237 0.812231 0.143654
H6    H     H_    0.653465 0.419117 0.192793 0.140697
H7    H     H_    0.398184 0.403882 0.678910 0.162343
H8    H     H_    0.646527 0.423335 0.325770 0.129858
H9    H     H_    0.306362 0.462990 0.906801 0.144566
H10   H     H_    0.700672 0.522933 0.095994 0.142291
H11   H     H_    0.930866 0.501437 0.605721 0.149584
H12   H     H_    0.069111 0.501856 0.394381 0.151271
H13   H     H_    0.410779 0.868386 0.436328 0.135481
H14   H     H_    0.433320 0.135213 0.563350 0.137165
H15   H     H_    0.768022 0.818278 0.586395 0.141318
H16   H     H_    0.747215 0.177715 0.464126 0.142818
H17   H     H_    0.707308 0.693833 0.582129 0.149375
H18   H     H_    0.685605 0.301837 0.451966 0.142821
N1    N     N_R   0.500020 0.499980 0.689440 -0.088998
N2    N     N_R   0.499980 0.500020 0.310560 -0.085174
O1    O     O_R   0.500000 0.398180 0.560840 -0.612981
O2    O     O_R   0.500000 0.601820 0.439160 -0.590681
O3    O     O_R   0.499950 0.398180 0.439200 -0.623392
O4    O     O_R   0.500050 0.601820 0.560800 -0.603500
O5    O     O_R   0.317830 0.500010 0.538110 -0.620129
O6    O     O_R   0.682170 0.499990 0.461890 -0.628762
O7    O     O_R   0.317770 0.500000 0.416470 -0.597930
O8    O     O_R   0.682230 0.500000 0.583530 -0.604667
Zn1   Zn    Zn3+2 0.500040 0.500000 0.581220 0.955140
Zn2   Zn    Zn3+2 0.499960 0.500000 0.418780 0.955706
C43   C     C_R   0.278887 0.450105 0.046225 0.116430
C44   C     C_R   0.274136 0.380553 0.070471 -0.140442
C45   C     C_R   0.169124 0.357518 0.095471 -0.139716
C46   C     C_R   0.069156 0.403979 0.097158 -0.120909
C47   C     C_R   0.073945 0.473428 0.073625 -0.111139
C48   C     C_R   0.177900 0.496360 0.047462 -0.165368
H19   H     H_    0.352082 0.344492 0.070498 0.122715
H20   H     H_    0.165741 0.303843 0.114123 0.125456
H21   H     H_    0.988341 0.386310 0.117070 0.119502
H22   H     H_    0.997301 0.509515 0.076029 0.143809
H23   H     H_    0.181340 0.550463 0.029993 0.121851
C49   C     C_R   0.737283 0.524141 0.957753 0.103686
C50   C     C_R   0.789052 0.474517 0.915849 -0.131068
C51   C     C_R   0.896616 0.491290 0.890058 -0.116837
C52   C     C_R   0.953599 0.557413 0.906224 -0.122287
C53   C     C_R   0.904653 0.606363 0.949482 -0.165005
C54   C     C_R   0.797195 0.589771 0.975526 -0.201590
H24   H     H_    0.744477 0.423536 0.901892 0.126765
H25   H     H_    0.935348 0.453198 0.857162 0.124641
H26   H     H_    0.036614 0.570397 0.885995 0.121119
H27   H     H_    0.949578 0.657320 0.962479 0.127085
H28   H     H_    0.758508 0.628738 0.007569 0.130725
C55   C     C_R   0.313567 0.738131 0.416637 0.119912
C56   C     C_R   0.275280 0.760608 0.342439 -0.162328
C57   C     C_R   0.154845 0.743290 0.299119 -0.158899
C58   C     C_R   0.070998 0.704269 0.329685 -0.114614
C59   C     C_R   0.107302 0.682686 0.403672 -0.124910
C60   C     C_R   0.228132 0.699222 0.447030 -0.142813
H29   H     H_    0.339163 0.790911 0.317895 0.124672
H30   H     H_    0.126485 0.760227 0.241860 0.122822
H31   H     H_    0.977584 0.691163 0.296202 0.120941
H32   H     H_    0.041256 0.653629 0.427573 0.145362
H33   H     H_    0.253979 0.682822 0.504571 0.117062
C61   C     C_R   0.341717 0.267250 0.562251 0.120305
C62   C     C_R   0.333506 0.251983 0.635230 -0.164726
C63   C     C_R   0.229354 0.275510 0.661639 -0.166243
C64   C     C_R   0.132270 0.313974 0.615365 -0.115700
C65   C     C_R   0.138779 0.328642 0.542457 -0.128410
C66   C     C_R   0.242810 0.305361 0.515846 -0.145786
H34   H     H_    0.408596 0.222831 0.671995 0.129968
H35   H     H_    0.224200 0.264173 0.718118 0.128249
H36   H     H_    0.051847 0.332257 0.635920 0.126522
H37   H     H_    0.063073 0.357976 0.506500 0.142912
H38   H     H_    0.246058 0.316904 0.459065 0.109218
N3    N     N_3   0.646980 0.924248 0.650411 -0.470453
H39   H     H_    0.570490 0.939477 0.672623 0.183294
H40   H     H_    0.731634 0.936934 0.688763 0.176629
N4    N     N_3   0.601834 0.074447 0.380739 -0.469186
H41   H     H_    0.516369 0.058767 0.344911 0.183284
H42   H     H_    0.676643 0.062103 0.355885 0.177176
N5    N     N_3   0.657616 0.075872 0.652720 -0.468546
H43   H     H_    0.744179 0.061719 0.688141 0.183719
H44   H     H_    0.584032 0.062650 0.677814 0.173136
N6    N     N_3   0.616585 0.923156 0.380839 -0.466307
H45   H     H_    0.693679 0.937611 0.359310 0.184993
H46   H     H_    0.532458 0.935933 0.342319 0.172077
N7    N     N_3   0.618664 0.609054 0.707645 -0.409847
H47   H     H_    0.576112 0.656904 0.716957 0.163998
H48   H     H_    0.712957 0.610182 0.738470 0.164049
N8    N     N_3   0.334262 0.588176 0.288569 -0.391390
H49   H     H_    0.241763 0.575691 0.259525 0.165812
H50   H     H_    0.352921 0.639775 0.275160 0.169074

loop_
_geom_bond_atom_site_label_1
_geom_bond_atom_site_label_2
_ccdc_geom_bond_type
C13   H3    S    
C52   C53   A    
N6    H45   S    
N3    H39   S    
C43   C44   A    
C23   O7    A    
C55   C56   A    
C6    C9    A    
C57   C58   A    
C24   O8    A    
N5    H43   S    
C39   C41   A    
C47   C48   A    
C60   H33   S    
C10   C37   S    
C23   C29   S    
C35   C37   A    
C25   C43   S    
C51   H25   S    
N3    H40   S    
N5    H44   S    
C29   H12   S    
C3    C33   A    
C58   H31   S    
C39   H15   S    
C33   C55   S    
C63   C64   A    
C15   C17   A    
C62   H34   S    
C23   O5    A    
C54   H28   S    
C65   C66   A    
C20   H8    S    
C17   C19   A    
C48   H23   S    
C3    C41   A    
O4    Zn1   S    
C2    O2    A    
N8    H49   S    
C1    O3    A    
C62   C63   A    
C66   H38   S    
C45   H20   S    
O5    Zn1   S    
C57   H30   S    
N1    Zn1   S    
C16   C27   S    
C40   C42   A    
C59   H32   S    
C38   C40   A    
C56   H29   S    
C29   C31   D    
C11   N7    S    
C6    N4    S    
N4    H42   S    
C61   C66   A    
C30   H11   S    
C4    C34   A    
C40   H16   S    
C31   H2    S    
C35   H13   S    
C34   C61   S    
C46   C47   A    
C41   H17   S    
C14   H4    S    
C44   C45   A    
C42   H18   S    
C5    C7    A    
C51   C52   A    
C6    C8    A    
C2    O4    A    
C50   C51   A    
C43   C48   A    
C5    N3    S    
C63   H35   S    
C46   H21   S    
O7    Zn2   S    
C45   C46   A    
C36   H14   S    
C12   N2    A    
C19   H7    S    
C31   C32   S    
O6    Zn2   S    
C56   C57   A    
N2    Zn2   S    
C16   C18   A    
C61   C62   A    
C49   C50   A    
O8    Zn1   S    
C64   H36   S    
C8    N6    S    
C21   C28   A    
O1    Zn1   S    
C22   C27   A    
C13   C15   A    
C14   C16   A    
C49   C54   A    
C21   H9    S    
N4    H41   S    
C22   H10   S    
N7    H47   S    
C7    C9    A    
C21   C25   A    
C53   H27   S    
C1    O1    A    
N6    H46   S    
C12   N8    S    
C55   C60   A    
C8    C10   A    
C17   H5    S    
C12   C14   A    
C11   N1    A    
C18   H6    S    
C26   C49   S    
C50   H24   S    
C25   C27   A    
O3    Zn2   S    
C26   C28   A    
C59   C60   A    
C44   H19   S    
C1    C4    S    
C36   C38   A    
C2    C3    S    
C5    C10   A    
C37   C39   A    
C64   C65   A    
C30   C32   D    
C11   C13   A    
C15   C28   S    
C4    C42   A    
C47   H22   S    
C19   N1    A    
C9    C38   S    
C33   C35   A    
C32   H1    S    
C18   C20   A    
O2    Zn2   S    
C20   N2    A    
C24   C30   S    
C24   O6    A    
C53   C54   A    
C34   C36   A    
N8    H50   S    
C58   C59   A    
C22   C26   A    
C52   H26   S    
C65   H37   S    
C7    N5    S    
N7    H48   S    
