data_mof_unit_36976.cif
_audit_creation_date              2012-12-11T15:52:16-0500
_audit_creation_method            fapswitch 2.2
_symmetry_space_group_name_H-M    P1
_symmetry_Int_Tables_number       1
_space_group_crystal_system       triclinic
_cell_length_a                    11.090883
_cell_length_b                    11.117462
_cell_length_c                    18.856328
_cell_angle_alpha                 90.055965
_cell_angle_beta                  89.880271
_cell_angle_gamma                 119.755248
_cell_volume                      2018.47977736

loop_
_atom_site_label
_atom_site_type_symbol
_atom_type_description
_atom_site_fract_x
_atom_site_fract_y
_atom_site_fract_z
_atom_type_partial_charge
C1    C     C_R   0.524036 0.450189 0.143971 0.548712
C2    C     C_R   0.546212 0.065169 0.146598 0.557879
C3    C     C_R   0.925345 0.476239 0.143797 0.557608
C4    C     C_R   0.458487 0.520365 0.851701 0.558574
C5    C     C_R   0.059410 0.540834 0.851143 0.528645
C6    C     C_R   0.479343 0.937138 0.852167 0.544040
C7    C     C_3   0.716558 0.967840 0.540797 -0.268832
C8    C     C_3   0.038971 0.749078 0.539844 -0.268910
C9    C     C_3   0.253769 0.282047 0.533500 -0.266018
C10   C     C_3   0.023450 0.738985 0.460244 -0.276091
C11   C     C_3   0.719800 0.979232 0.460929 -0.275791
C12   C     C_3   0.258306 0.279040 0.453493 -0.269691
C13   C     C_R   0.519369 0.457055 0.353578 0.548984
C14   C     C_R   0.546167 0.067942 0.355575 0.543075
C15   C     C_R   0.929293 0.476795 0.356195 0.547004
C16   C     C_R   0.454731 0.520731 0.645116 0.548025
C17   C     C_R   0.060422 0.542637 0.646961 0.547142
C18   C     C_R   0.481894 0.939374 0.646843 0.549292
C19   C     C_R   0.495957 0.989029 0.923560 -0.018308
C20   C     C_R   0.986858 0.493306 0.918302 -0.013526
C21   C     C_R   0.507014 0.498284 0.918870 0.033554
C22   C     C_R   0.953465 0.489115 0.067383 0.030515
C23   C     C_R   0.527656 0.022189 0.072767 0.054299
C24   C     C_R   0.513656 0.468387 0.067486 0.017559
C25   C     C_R   0.384254 0.931183 0.970776 -0.015591
C26   C     C_R   0.014888 0.410029 0.962531 0.061395
C27   C     C_R   0.592564 0.608783 0.962456 0.044460
C28   C     C_R   0.994791 0.405272 0.033725 -0.031540
C29   C     C_R   0.399612 0.949167 0.041750 -0.059231
C30   C     C_R   0.596461 0.594221 0.034142 -0.054062
C31   C     C_R   0.645226 0.067708 0.026992 0.143809
C32   C     C_R   0.916803 0.570636 0.023318 0.136965
C33   C     C_R   0.440440 0.351177 0.022610 0.074492
C34   C     C_R   0.916648 0.557415 0.948612 0.071066
C35   C     C_R   0.629362 0.067348 0.952859 0.066121
C36   C     C_R   0.446046 0.366189 0.947901 0.066056
C37   C     C_3   0.229932 0.857019 0.975759 0.021395
C38   C     C_3   0.118435 0.361990 0.968492 0.029570
C39   C     C_3   0.634116 0.757505 0.966920 0.021501
C40   C     C_3   0.094117 0.355125 0.049253 -0.039148
C41   C     C_3   0.248708 0.882372 0.056852 0.005538
C42   C     C_3   0.636999 0.742076 0.047913 -0.010101
C43   C     C_R   0.510848 0.010682 0.579015 0.019284
C44   C     C_R   0.987248 0.500089 0.579595 0.018125
C45   C     C_R   0.478297 0.508808 0.570519 0.022869
C46   C     C_R   0.958055 0.484649 0.431635 0.019665
C47   C     C_R   0.523632 0.035216 0.430644 0.020920
C48   C     C_R   0.497460 0.501678 0.422329 0.016095
C49   C     C_R   0.632032 0.039560 0.542048 0.028074
C50   C     C_R   0.960891 0.593706 0.542451 0.022918
C51   C     C_R   0.360850 0.431619 0.528633 0.046333
C52   C     C_R   0.947479 0.585851 0.470195 0.035960
C53   C     C_R   0.636985 0.050586 0.469672 0.043635
C54   C     C_R   0.368764 0.428770 0.456147 0.019059
C55   C     C_R   0.410971 0.029818 0.467821 -0.166947
C56   C     C_R   0.957273 0.374940 0.469333 -0.152423
C57   C     C_R   0.613329 0.595982 0.462724 -0.164203
C58   C     C_R   0.970407 0.382033 0.543528 -0.153759
C59   C     C_R   0.406206 0.020933 0.542141 -0.170155
C60   C     C_R   0.604028 0.598718 0.536720 -0.172826
Cr1   Cr    Cr6+3 0.769160 0.541570 0.250690 1.014794
Cr2   Cr    Cr6+3 0.458430 0.227590 0.250690 1.019858
Cr3   Cr    Cr6+3 0.772410 0.230840 0.250690 1.013252
Cr4   Cr    Cr6+3 0.541570 0.769160 0.749310 0.990891
Cr5   Cr    Cr6+3 0.227590 0.458430 0.749310 1.008747
Cr6   Cr    Cr6+3 0.230840 0.772410 0.749310 0.995914
H1    H     H_    0.182891 0.748257 0.958263 0.163150
H2    H     H_    0.224848 0.439357 0.950906 0.163020
H3    H     H_    0.554337 0.780876 0.946623 0.161619
H4    H     H_    0.046739 0.250129 0.073189 0.149682
H5    H     H_    0.213650 0.952541 0.078809 0.188023
H6    H     H_    0.740554 0.805420 0.072788 0.180950
H7    H     H_    0.324926 0.026648 0.439530 0.117529
H8    H     H_    0.951377 0.287207 0.441572 0.124475
H9    H     H_    0.713739 0.658080 0.438145 0.137478
H10   H     H_    0.977496 0.301394 0.571782 0.118062
H11   H     H_    0.316015 0.010224 0.569862 0.117054
H12   H     H_    0.695372 0.666852 0.567313 0.121338
H13   H     H_    0.657764 0.859011 0.559036 0.172169
H14   H     H_    0.148306 0.792393 0.556424 0.168987
H15   H     H_    0.153539 0.264780 0.554727 0.137604
H16   H     H_    0.956313 0.778982 0.439736 0.134751
H17   H     H_    0.825421 0.047921 0.439402 0.133128
H18   H     H_    0.295197 0.209312 0.433879 0.164075
H19   H     H_    0.820292 0.031210 0.565603 0.124219
H20   H     H_    0.981255 0.795372 0.565626 0.128358
H21   H     H_    0.294151 0.219391 0.559344 0.137671
H22   H     H_    0.123549 0.776582 0.431582 0.139208
H23   H     H_    0.660581 0.877535 0.433705 0.141997
H24   H     H_    0.161512 0.264113 0.428117 0.127003
O1    O     O_R   0.911480 0.572650 0.170990 -0.483646
O2    O     O_R   0.427350 0.338830 0.170990 -0.484674
O3    O     O_R   0.661170 0.088520 0.170990 -0.497599
O4    O     O_R   0.572650 0.911480 0.829010 -0.545246
O5    O     O_R   0.338830 0.427350 0.829010 -0.506293
O6    O     O_R   0.088520 0.661170 0.829010 -0.545225
O7    O     O_R   0.640340 0.528970 0.175680 -0.529520
O8    O     O_R   0.471030 0.111370 0.175680 -0.497238
O9    O     O_R   0.888630 0.359660 0.175680 -0.531078
O10   O     O_R   0.528970 0.640340 0.824320 -0.520185
O11   O     O_R   0.111370 0.471030 0.824320 -0.504359
O12   O     O_R   0.359660 0.888630 0.824320 -0.499709
O13   O     O_R   0.909980 0.572450 0.331530 -0.518607
O14   O     O_R   0.427550 0.337530 0.331530 -0.526213
O15   O     O_R   0.662470 0.090020 0.331530 -0.519736
O16   O     O_R   0.572450 0.909980 0.668470 -0.525459
O17   O     O_R   0.337530 0.427550 0.668470 -0.516161
O18   O     O_R   0.090020 0.662470 0.668470 -0.526183
O19   O     O_R   0.638950 0.528780 0.324500 -0.509345
O20   O     O_R   0.471220 0.110170 0.324500 -0.510532
O21   O     O_R   0.889830 0.361050 0.324500 -0.507688
O22   O     O_R   0.528780 0.638950 0.675500 -0.510115
O23   O     O_R   0.110170 0.471220 0.675500 -0.505890
O24   O     O_R   0.361050 0.889830 0.675500 -0.507818
O25   O     O_3   0.666667 0.333333 0.250560 -0.267230
O26   O     O_3   0.333333 0.666667 0.749440 -0.256101
N1    N     N_3   0.776653 0.098342 0.055535 -0.590672
H25   H     H_    0.847395 0.113050 0.015847 0.256692
H26   H     H_    0.814736 0.191681 0.081567 0.262105
N2    N     N_3   0.905403 0.683120 0.053559 -0.576604
H27   H     H_    0.893810 0.743194 0.015023 0.259563
H28   H     H_    0.816756 0.641971 0.084358 0.261921
N3    N     N_3   0.358430 0.217655 0.052608 -0.593421
H29   H     H_    0.254700 0.181820 0.039903 0.221918
H30   H     H_    0.390627 0.156831 0.027143 0.243532
N4    N     N_3   0.852764 0.616050 0.905144 -0.615706
H31   H     H_    0.927764 0.711248 0.884760 0.260302
H32   H     H_    0.800594 0.548387 0.863250 0.237928
N5    N     N_3   0.748460 0.150912 0.909178 -0.623416
H33   H     H_    0.776759 0.089028 0.880093 0.266118
H34   H     H_    0.724140 0.208706 0.874232 0.231962
N6    N     N_3   0.389136 0.249392 0.901076 -0.610709
H35   H     H_    0.441813 0.194776 0.908905 0.241488
H36   H     H_    0.284482 0.186240 0.912423 0.260357
N7    N     N_3   0.174654 0.936948 0.941566 -0.683523
H37   H     H_    0.160819 0.911526 0.887751 0.264526
H38   H     H_    0.077260 0.908173 0.962665 0.239138
N8    N     N_3   0.061743 0.225525 0.935634 -0.656326
H39   H     H_    0.100460 0.238104 0.884016 0.268610
H40   H     H_    0.094239 0.166097 0.963690 0.212764
N9    N     N_3   0.771775 0.839695 0.935487 -0.653652
H41   H     H_    0.760314 0.842934 0.880666 0.262772
H42   H     H_    0.815687 0.940696 0.953693 0.243843
N10   N     N_3   0.214665 0.456805 0.088536 -0.693239
H43   H     H_    0.179941 0.479930 0.135413 0.241125
H44   H     H_    0.265800 0.405373 0.105775 0.259397
N11   N     N_3   0.200608 0.756969 0.098961 -0.602477
H45   H     H_    0.234114 0.693805 0.075531 0.244338
H46   H     H_    0.246588 0.785166 0.149059 0.240306
N12   N     N_3   0.527887 0.755205 0.084400 -0.633228
H47   H     H_    0.433040 0.692316 0.059424 0.242424
H48   H     H_    0.520070 0.718773 0.136241 0.243633

loop_
_geom_bond_atom_site_label_1
_geom_bond_atom_site_label_2
_ccdc_geom_bond_type
C45   C60   A    
N4    H31   S    
Cr4   O26   S    
C55   C59   A    
N1    H25   S    
Cr6   O12   S    
C44   C58   A    
N11   H45   S    
C9    C51   S    
Cr5   O11   S    
C10   C52   S    
C59   H11   S    
N1    H26   S    
C58   H10   S    
N3    H29   S    
C21   C36   A    
C48   C54   A    
C6    C19   S    
C10   H22   S    
C7    H13   S    
Cr6   O26   S    
C23   C29   A    
C12   H24   S    
Cr1   O13   S    
N9    H42   S    
N3    H30   S    
C45   C51   A    
C46   C52   A    
C33   C36   A    
C12   H18   S    
C3    O1    A    
C31   N1    S    
C13   O19   A    
C16   O17   A    
C25   C37   S    
Cr2   O8    S    
N7    H38   S    
C14   O15   A    
C39   N9    S    
C27   C39   S    
N6    H35   S    
C6    O4    A    
Cr2   O2    S    
Cr1   O25   S    
Cr3   O9    S    
C37   N7    S    
Cr3   O15   S    
C35   N5    S    
C8    H20   S    
C11   C53   S    
C43   C59   A    
C47   C53   A    
Cr3   O25   S    
N7    H37   S    
C21   C27   A    
Cr1   O19   S    
C22   C28   A    
C27   C30   A    
C37   C41   S    
C18   O24   A    
C32   N2    S    
C42   N12   S    
N2    H28   S    
C39   C42   S    
Cr2   O14   S    
C25   C29   A    
C5    O11   A    
C56   H8    S    
Cr6   O6    S    
C17   O23   A    
C15   O21   A    
C48   C57   A    
C7    C49   S    
N10   H44   S    
C17   O18   A    
C1    O7    A    
C5    C20   S    
C26   C38   S    
C57   C60   A    
C11   H17   S    
C32   C34   A    
C10   H16   S    
C23   C31   A    
C7    C11   S    
C18   O16   A    
C4    O5    A    
C11   H23   S    
C50   C52   A    
C41   N11   S    
Cr5   O5    S    
C34   N4    S    
C60   H12   S    
C42   H6    S    
C39   H3    S    
Cr1   O7    S    
C13   O14   A    
C22   C32   A    
C8    C10   S    
C38   H2    S    
C1    O2    A    
C40   N10   S    
Cr5   O26   S    
N12   H48   S    
C8    C50   S    
C5    O6    A    
C33   N3    S    
N2    H27   S    
C16   O22   A    
C47   C55   A    
N5    H33   S    
C44   C50   A    
C14   O20   A    
N4    H32   S    
Cr6   O24   S    
N11   H46   S    
N12   H47   S    
Cr5   O23   S    
C2    O3    A    
C43   C49   A    
Cr6   O18   S    
N10   H43   S    
C16   C45   S    
C13   C48   S    
Cr4   O16   S    
C14   C47   S    
N8    H40   S    
Cr3   O3    S    
C40   H4    S    
C26   C28   A    
C24   C33   A    
C4    O10   A    
C41   H5    S    
C51   C54   A    
C57   H9    S    
C36   N6    S    
C17   C44   S    
C20   C34   A    
Cr2   O25   S    
C19   C35   A    
C18   C43   S    
C9    H21   S    
C38   C40   S    
C4    C21   S    
C7    H19   S    
C20   C26   A    
Cr2   O20   S    
C49   C53   A    
C37   H1    S    
C56   C58   A    
C31   C35   A    
C6    O12   A    
Cr3   O21   S    
C19   C25   A    
C9    C12   S    
C24   C30   A    
Cr4   O22   S    
N8    H39   S    
Cr4   O4    S    
C55   H7    S    
C3    O9    A    
Cr4   O10   S    
C2    O8    A    
C1    C24   S    
N6    H36   S    
C46   C56   A    
C2    C23   S    
C8    H14   S    
C28   C40   S    
C29   C41   S    
C30   C42   S    
C3    C22   S    
C38   N8    S    
C15   C46   S    
C15   O13   A    
N9    H41   S    
Cr5   O17   S    
C12   C54   S    
Cr1   O1    S    
C9    H15   S    
N5    H34   S    
