data_mof_unit_30828.cif
_audit_creation_date              2012-12-10T18:07:31-0500
_audit_creation_method            fapswitch 2.2
_symmetry_space_group_name_H-M    P1
_symmetry_Int_Tables_number       1
_space_group_crystal_system       triclinic
_cell_length_a                    11.543473
_cell_length_b                    12.618842
_cell_length_c                    13.08287
_cell_angle_alpha                 84.114099
_cell_angle_beta                  89.968044
_cell_angle_gamma                 101.92996
_cell_volume                      1854.2648314

loop_
_atom_site_label
_atom_site_type_symbol
_atom_type_description
_atom_site_fract_x
_atom_site_fract_y
_atom_site_fract_z
_atom_type_partial_charge
C1    C     C_R   0.473668 0.440925 0.690247 0.851426
C2    C     C_R   0.487889 0.592494 0.200711 -0.042689
C3    C     C_R   0.412839 0.295599 0.833170 -0.197437
C4    C     C_R   0.380566 0.261796 0.935332 -0.128621
C5    C     C_R   0.378652 0.338695 0.003860 -0.188796
C6    C     C_R   0.402273 0.450771 0.968762 0.082778
C7    C     C_R   0.407144 0.482114 0.862478 0.078145
C8    C     C_R   0.424624 0.533145 0.035487 0.077009
C9    C     C_R   0.422697 0.642203 0.998412 0.187756
C10   C     C_R   0.396740 0.666772 0.895710 -0.289216
C11   C     C_R   0.390373 0.587803 0.827773 -0.222231
C12   C     C_R   0.717798 0.500414 0.500213 0.917815
C13   C     C_R   0.460433 0.510776 0.135406 -0.266910
C14   C     C_R   0.481687 0.699940 0.165147 -0.210107
C15   C     C_R   0.429780 0.406320 0.796083 -0.123415
C16   C     C_R   0.376256 0.096187 0.322226 0.415069
C17   C     C_R   0.636107 0.800755 0.632435 0.636039
C18   C     C_R   0.663976 0.907275 0.660316 -0.358986
C19   C     C_R   0.609313 0.986534 0.612483 -0.272325
C20   C     C_R   0.528117 0.961648 0.533830 0.059368
C21   C     C_R   0.504404 0.853585 0.505798 0.143917
C22   C     C_R   0.474580 0.041118 0.478371 -0.045917
C23   C     C_R   0.508304 0.559597 0.308410 0.854344
C24   C     C_R   0.409001 0.013675 0.389787 0.048325
C25   C     C_R   0.378709 0.905158 0.369557 -0.273593
C26   C     C_R   0.425504 0.826531 0.426893 -0.191376
C27   C     C_R   0.486081 0.148051 0.505160 -0.084068
C28   C     C_R   0.388326 0.199581 0.354317 -0.093894
C29   C     C_R   0.282187 0.499581 0.499909 0.878056
C30   C     C_1   0.838581 0.501120 0.500490 -0.181662
C31   C     C_1   0.940746 0.500644 0.500429 0.005754
C32   C     C_1   0.059302 0.499522 0.500130 0.004474
C33   C     C_1   0.161439 0.498946 0.499901 -0.178087
C34   C     C_R   0.449313 0.724748 0.064098 -0.211326
H1    H     H_    0.500665 0.764209 0.215313 0.155139
H2    H     H_    0.320052 0.880826 0.307641 0.180457
H3    H     H_    0.530847 0.174759 0.573071 0.141862
H4    H     H_    0.635667 0.067293 0.636000 0.163411
H5    H     H_    0.728920 0.929338 0.718165 0.163337
H6    H     H_    0.401104 0.745850 0.405232 0.211708
H7    H     H_    0.388703 0.748431 0.866586 0.150884
H8    H     H_    0.446613 0.808284 0.037009 0.128985
H9    H     H_    0.471229 0.429669 0.162338 0.150779
H10   H     H_    0.423597 0.234821 0.783193 0.157087
H11   H     H_    0.355684 0.309607 0.083359 0.146556
H12   H     H_    0.361544 0.176091 0.961907 0.146196
H13   H     H_    0.371230 0.610640 0.748753 0.188693
H14   H     H_    0.361585 0.263779 0.304618 0.152949
N1    N     N_R   0.440320 0.222190 0.444690 -0.125835
N2    N     N_R   0.559060 0.776980 0.554780 -0.167408
O1    O     O_R   0.471500 0.366730 0.627160 -0.617610
O2    O     O_R   0.509620 0.544830 0.662520 -0.602244
O3    O     O_R   0.646490 0.410960 0.482310 -0.610709
O4    O     O_R   0.684610 0.589050 0.517670 -0.551310
O5    O     O_R   0.490380 0.455170 0.337480 -0.624532
O6    O     O_R   0.528500 0.633270 0.372840 -0.638226
O7    O     O_R   0.315390 0.410950 0.482330 -0.599201
O8    O     O_R   0.353510 0.589040 0.517690 -0.646662
Zn1   Zn    Zn3+2 0.474550 0.381080 0.476390 0.942792
Zn2   Zn    Zn3+2 0.525450 0.618920 0.523610 0.961885
O9    O     O_3   0.338416 0.080363 0.223246 -0.655003
C35   C     C_3   0.431027 0.059099 0.161475 0.061582
H15   H     H_    0.394681 0.045907 0.084363 0.161790
H16   H     H_    0.458163 0.982030 0.189152 0.135834
C36   C     C_3   0.541331 0.152562 0.150590 -0.385696
H17   H     H_    0.515002 0.231907 0.133819 0.226463
H18   H     H_    0.589916 0.154225 0.223927 0.215890
C37   C     C_3   0.625172 0.138081 0.065304 -0.927137
H19   H     H_    0.654066 0.059458 0.081579 0.261284
H20   H     H_    0.704544 0.205439 0.060658 0.270596
H21   H     H_    0.580781 0.139702 0.990027 0.259091
O10   O     O_3   0.694045 0.721432 0.675314 -0.610190
C38   C     C_3   0.686317 0.709330 0.784314 0.081444
H22   H     H_    0.646802 0.622743 0.809760 0.186049
H23   H     H_    0.628567 0.758482 0.817609 0.121270
C39   C     C_3   0.810157 0.735433 0.828822 -0.370380
H24   H     H_    0.864637 0.680949 0.800527 0.238275
H25   H     H_    0.853761 0.820968 0.802995 0.219055
C40   C     C_3   0.804388 0.719603 0.946155 -0.931378
H26   H     H_    0.752172 0.774915 0.976187 0.267211
H27   H     H_    0.895347 0.738414 0.976473 0.268022
H28   H     H_    0.762659 0.633979 0.973819 0.267326

loop_
_geom_bond_atom_site_label_1
_geom_bond_atom_site_label_2
_ccdc_geom_bond_type
C16   C28   A    
C21   C26   A    
C8    C13   A    
O5    Zn1   S    
C38   H22   S    
C11   H13   S    
C19   C20   A    
C34   H8    S    
C39   C40   S    
O3    Zn1   S    
C23   O6    A    
O4    Zn2   S    
C7    C11   A    
C39   H25   S    
C5    C6    A    
C4    H12   S    
O7    Zn1   S    
O8    Zn2   S    
C29   C33   S    
C18   C19   A    
C2    C13   A    
C35   H16   S    
O2    Zn2   S    
C37   H19   S    
C8    C9    A    
C36   H18   S    
C1    C15   S    
C9    C10   A    
C12   O3    A    
C7    C15   A    
C16   C24   A    
C10   H7    S    
C38   H23   S    
C21   N2    A    
C3    H10   S    
C39   H24   S    
C14   H1    S    
C40   H27   S    
O10   C38   S    
C6    C8    A    
C25   C26   A    
C5    H11   S    
O6    Zn2   S    
C18   H5    S    
C35   H15   S    
C19   H4    S    
C28   N1    A    
C31   C32   S    
C36   C37   S    
C17   C18   A    
C24   C25   A    
C1    O1    A    
C20   C22   A    
C22   C27   A    
C9    C34   A    
C38   C39   S    
C22   C24   A    
O1    Zn1   S    
C16   O9    S    
C3    C4    A    
C13   H9    S    
C3    C15   A    
C29   O8    A    
C28   H14   S    
C35   C36   S    
C12   C30   S    
C29   O7    A    
C4    C5    A    
C17   N2    A    
C14   C34   A    
C40   H28   S    
C23   O5    A    
C6    C7    A    
N1    Zn1   S    
N2    Zn2   S    
C32   C33   T    
C26   H6    S    
C30   C31   T    
C27   H3    S    
C37   H21   S    
O9    C35   S    
C2    C14   A    
C1    O2    A    
C10   C11   A    
C25   H2    S    
C40   H26   S    
C20   C21   A    
C17   O10   S    
C37   H20   S    
C36   H17   S    
C2    C23   S    
C12   O4    A    
C27   N1    A    
