data_mof_unit_49265.cif
_audit_creation_date              2012-10-26T19:53:27-0400
_audit_creation_method            fapswitch 2.2
_symmetry_space_group_name_H-M    P1
_symmetry_Int_Tables_number       1
_space_group_crystal_system       triclinic
_cell_length_a                    9.085753
_cell_length_b                    7.792155
_cell_length_c                    10.667233
_cell_angle_alpha                 89.855458
_cell_angle_beta                  89.996484
_cell_angle_gamma                 90.036161
_cell_volume                      755.21189376

loop_
_atom_site_label
_atom_site_type_symbol
_atom_type_description
_atom_site_fract_x
_atom_site_fract_y
_atom_site_fract_z
_atom_type_partial_charge
C1    C     C_R   0.220057 0.499948 0.499629 0.544235
C2    C     C_3   0.614644 0.413075 0.040778 0.266006
C3    C     C_3   0.499313 0.498635 0.877233 0.007877
C4    C     C_3   0.499607 0.500565 0.122749 0.014614
C5    C     C_1   0.065393 0.499835 0.499125 -0.061880
C6    C     C_1   0.934607 0.499932 0.499089 -0.057765
C7    C     C_3   0.152175 0.579323 0.869093 0.001567
C8    C     C_3   0.036215 0.689879 0.805379 -0.353782
C9    C     C_3   0.716794 0.156805 0.108292 -0.006531
C10   C     C_3   0.840793 0.082396 0.187193 -0.352056
C11   C     C_R   0.779944 0.500013 0.499557 0.554122
C12   C     C_R   0.500536 0.500206 0.258877 0.570840
C13   C     C_R   0.499768 0.499699 0.741107 0.550142
C14   C     C_3   0.505919 0.663127 0.040597 -0.110509
C15   C     C_3   0.492105 0.334809 0.958813 -0.171007
C16   C     C_3   0.623727 0.574605 0.957763 -0.129282
C17   C     C_3   0.374453 0.423504 0.043141 -0.177295
C18   C     C_3   0.383421 0.584526 0.959274 0.271531
Cu1   Cu    Cu3+1 0.500000 0.669080 0.500000 1.020049
Cu2   Cu    Cu3+1 0.500000 0.330920 0.500000 1.008556
H1    H     H_    0.509491 0.797333 0.075253 0.119050
H2    H     H_    0.715049 0.088907 0.016671 0.127065
H3    H     H_    0.611239 0.132881 0.158581 0.152707
H4    H     H_    0.844516 0.147168 0.279798 0.178335
H5    H     H_    0.822133 0.942911 0.202013 0.111229
H6    H     H_    0.947878 0.100862 0.138734 0.157932
H7    H     H_    0.486202 0.201569 0.922513 0.127744
H8    H     H_    0.726086 0.634377 0.921419 0.109805
H9    H     H_    0.273543 0.362665 0.081622 0.112805
H10   H     H_    0.098583 0.510054 0.948189 0.145892
H11   H     H_    0.193860 0.484846 0.799433 0.130967
H12   H     H_    0.085638 0.759872 0.724886 0.175600
H13   H     H_    0.945279 0.607533 0.770576 0.095782
H14   H     H_    0.990715 0.784153 0.873007 0.154668
N1    N     N_1   0.500000 0.076820 0.500000 -0.088007
N2    N     N_1   0.500000 0.923180 0.500000 -0.085492
O1    O     O_R   0.288390 0.642760 0.500000 -0.495617
O2    O     O_3   0.742442 0.333518 0.089060 -0.556427
O3    O     O_R   0.711610 0.357240 0.500000 -0.499487
O4    O     O_R   0.711610 0.642760 0.500000 -0.502541
O5    O     O_R   0.288390 0.357240 0.500000 -0.499271
O6    O     O_R   0.499960 0.642760 0.316850 -0.512209
O7    O     O_R   0.500040 0.357240 0.683150 -0.512988
O8    O     O_R   0.500040 0.642760 0.683150 -0.484402
O9    O     O_R   0.499960 0.357240 0.316850 -0.506195
O10   O     O_3   0.266053 0.685845 0.913905 -0.546377

loop_
_geom_bond_atom_site_label_1
_geom_bond_atom_site_label_2
_ccdc_geom_bond_type
C16   H8    S    
C2    C4    S    
C4    C12   S    
C2    C16   S    
C9    C10   S    
C2    O2    S    
C15   H7    S    
N1    N2    T    
C3    C13   S    
Cu1   O6    S    
C1    O1    A    
Cu1   N2    S    
C10   H6    S    
Cu1   Cu2   S    
C17   C18   S    
C3    C15   S    
C7    C8    S    
C7    H10   S    
C8    H14   S    
C11   O3    A    
C2    C15   S    
C5    C6    T    
C1    C5    S    
C4    C17   S    
C18   O10   S    
C10   H5    S    
C1    O5    A    
C9    O2    S    
Cu2   O5    S    
C8    H13   S    
C4    C14   S    
C11   O4    A    
C14   C16   S    
C9    H2    S    
C7    H11   S    
Cu1   O4    S    
C8    H12   S    
C7    O10   S    
C13   O7    A    
Cu2   O7    S    
C17   H9    S    
Cu1   O8    S    
C14   H1    S    
C3    C18   S    
C6    C11   S    
C15   C17   S    
Cu2   O3    S    
C14   C18   S    
C9    H3    S    
C12   O6    A    
Cu1   O1    S    
C10   H4    S    
Cu2   N1    S    
C13   O8    A    
C3    C16   S    
Cu2   O9    S    
C12   O9    A    
