data_mof_unit_62623.cif
_audit_creation_date              2012-12-11T17:47:36-0500
_audit_creation_method            fapswitch 2.2
_symmetry_space_group_name_H-M    P1
_symmetry_Int_Tables_number       1
_space_group_crystal_system       triclinic
_cell_length_a                    7.356324
_cell_length_b                    23.054123
_cell_length_c                    25.15374
_cell_angle_alpha                 90.198234
_cell_angle_beta                  91.082276
_cell_angle_gamma                 89.701963
_cell_volume                      4265.0704406

loop_
_atom_site_label
_atom_site_type_symbol
_atom_type_description
_atom_site_fract_x
_atom_site_fract_y
_atom_site_fract_z
_atom_type_partial_charge
O1    O     O_R   0.690340 0.802800 0.195640 -0.535593
O2    O     O_R   0.309660 0.197200 0.804360 -0.535144
O3    O     O_R   0.309660 0.197200 0.695640 -0.536932
O4    O     O_R   0.690340 0.802800 0.304360 -0.535400
O5    O     O_R   0.190340 0.697200 0.304360 -0.534806
O6    O     O_R   0.809660 0.302800 0.695640 -0.536284
O7    O     O_R   0.809660 0.302800 0.804360 -0.535141
O8    O     O_R   0.190340 0.697200 0.195640 -0.535627
O9    O     O_R   0.360590 0.809740 0.303990 -0.522945
O10   O     O_R   0.639410 0.190260 0.696010 -0.523881
O11   O     O_R   0.639410 0.190260 0.803990 -0.523665
O12   O     O_R   0.360590 0.809740 0.196010 -0.524817
O13   O     O_R   0.860590 0.690260 0.196010 -0.524129
O14   O     O_R   0.139410 0.309740 0.803990 -0.524161
O15   O     O_R   0.139410 0.309740 0.696010 -0.523168
O16   O     O_R   0.860590 0.690260 0.303990 -0.522902
C1    C     C_R   0.529420 0.824645 0.320680 0.725346
C2    C     C_R   0.469669 0.176382 0.678703 0.722577
C3    C     C_R   0.472698 0.176072 0.820956 0.728927
C4    C     C_R   0.527353 0.823937 0.179109 0.724407
C5    C     C_R   0.029140 0.676547 0.178536 0.725010
C6    C     C_R   0.971802 0.324532 0.820742 0.727906
C7    C     C_R   0.969366 0.323693 0.678635 0.720475
C8    C     C_R   0.029592 0.675371 0.320707 0.724864
O17   O     O_3   0.523810 0.713070 0.250000 -0.363332
O18   O     O_3   0.476190 0.286930 0.750000 -0.363990
O19   O     O_3   0.023810 0.786930 0.250000 -0.361714
O20   O     O_3   0.976190 0.213070 0.750000 -0.363710
V1    V     V_3+5 0.248970 0.756850 0.250000 1.542978
V2    V     V_3+5 0.751030 0.243150 0.750000 1.542794
V3    V     V_3+5 0.748970 0.743150 0.250000 1.542096
V4    V     V_3+5 0.251030 0.256850 0.750000 1.539106
C9    C     C_R   0.035121 0.630217 0.363697 -0.127979
C10   C     C_R   0.953987 0.366962 0.634298 -0.123085
C11   C     C_R   0.967422 0.369752 0.863580 -0.132446
C12   C     C_R   0.042631 0.634071 0.133693 -0.123186
C13   C     C_R   0.532832 0.867585 0.135590 -0.126697
C14   C     C_R   0.467628 0.132817 0.864900 -0.126836
C15   C     C_R   0.454265 0.133059 0.634694 -0.122796
C16   C     C_R   0.535070 0.870071 0.363449 -0.130533
C17   C     C_R   0.881281 0.593768 0.372802 0.132666
C18   C     C_R   0.086232 0.411642 0.627270 0.127600
C19   C     C_R   0.121876 0.405255 0.874644 0.132795
C20   C     C_R   0.915013 0.588620 0.125762 0.126668
C21   C     C_R   0.388505 0.907467 0.124924 0.137656
C22   C     C_R   0.612821 0.093442 0.876238 0.138091
C23   C     C_R   0.580738 0.086508 0.628957 0.126169
C24   C     C_R   0.379342 0.905345 0.373577 0.130204
C25   C     C_R   0.881196 0.556144 0.415740 -0.162675
C26   C     C_R   0.069031 0.449735 0.584562 -0.163432
C27   C     C_R   0.121424 0.442725 0.917694 -0.160188
C28   C     C_R   0.935208 0.550297 0.083085 -0.162769
C29   C     C_R   0.399582 0.945641 0.081941 -0.163482
C30   C     C_R   0.601890 0.055275 0.919117 -0.158950
C31   C     C_R   0.562582 0.047825 0.586506 -0.165391
C32   C     C_R   0.379567 0.943004 0.416586 -0.164073
C33   C     C_R   0.031741 0.553396 0.451447 0.354957
C34   C     C_R   0.920763 0.445885 0.547603 0.360239
C35   C     C_R   0.968361 0.448676 0.949429 0.352095
C36   C     C_R   0.076476 0.556686 0.046123 0.363331
C37   C     C_R   0.553445 0.946182 0.049100 0.356058
C38   C     C_R   0.448862 0.055179 0.952085 0.356535
C39   C     C_R   0.419178 0.053175 0.548840 0.360527
C40   C     C_R   0.531927 0.948401 0.449865 0.352125
C41   C     C_R   0.190458 0.584879 0.440476 0.168083
C42   C     C_R   0.789563 0.401991 0.554215 0.169376
C43   C     C_R   0.808020 0.419355 0.935281 0.172125
C44   C     C_R   0.200606 0.601581 0.053113 0.167915
C45   C     C_R   0.697438 0.907273 0.060224 0.171741
C46   C     C_R   0.305502 0.094357 0.941279 0.168765
C47   C     C_R   0.292910 0.098521 0.554853 0.170987
C48   C     C_R   0.692406 0.918865 0.437042 0.170599
C49   C     C_R   0.192910 0.623338 0.397360 -0.226600
C50   C     C_R   0.805406 0.362831 0.596827 -0.225144
C51   C     C_R   0.807104 0.379087 0.893570 -0.223173
C52   C     C_R   0.188290 0.638972 0.097287 -0.229242
C53   C     C_R   0.685780 0.868026 0.102279 -0.221738
C54   C     C_R   0.314994 0.132411 0.898426 -0.225231
C55   C     C_R   0.309504 0.138364 0.596976 -0.230858
C56   C     C_R   0.694905 0.879312 0.394960 -0.226872
N1    N     N_2   0.036060 0.516011 0.496634 -0.241127
N2    N     N_2   0.902864 0.483343 0.502361 -0.226279
N3    N     N_2   0.962013 0.487277 0.993625 -0.244877
N4    N     N_2   0.098461 0.518481 0.001813 -0.227500
N5    N     N_2   0.568569 0.984104 0.004541 -0.236917
N6    N     N_2   0.434452 0.017436 0.996686 -0.237475
N7    N     N_2   0.397836 0.014521 0.504305 -0.225927
N8    N     N_2   0.538336 0.986915 0.494479 -0.240488
H1    H     H_    0.175508 0.481896 0.580328 0.200174
H2    H     H_    0.768562 0.526980 0.420080 0.206952
H3    H     H_    0.835417 0.516075 0.078351 0.198621
H4    H     H_    0.232854 0.472043 0.923755 0.210525
H5    H     H_    0.714978 0.025641 0.926655 0.203699
H6    H     H_    0.286867 0.973450 0.073307 0.203784
H7    H     H_    0.266301 0.971524 0.421844 0.208985
H8    H     H_    0.662974 0.013467 0.583299 0.197060
H9    H     H_    0.317802 0.647325 0.390255 0.178930
H10   H     H_    0.704035 0.328219 0.599705 0.165441
H11   H     H_    0.681482 0.355987 0.884045 0.182179
H12   H     H_    0.289407 0.672586 0.102157 0.167385
H13   H     H_    0.794267 0.836480 0.107576 0.175346
H14   H     H_    0.203807 0.162986 0.892649 0.176494
H15   H     H_    0.211803 0.173892 0.599590 0.164435
H16   H     H_    0.821133 0.856450 0.386786 0.181281
I1    I     I_    0.319003 0.427758 0.678166 -0.260307
I2    I     I_    0.640900 0.587624 0.324573 -0.270615
I3    I     I_    0.692044 0.569816 0.176905 -0.261396
I4    I     I_    0.355023 0.413056 0.826767 -0.274235
I5    I     I_    0.857903 0.085231 0.832960 -0.271271
I6    I     I_    0.148542 0.915270 0.169340 -0.269668
I7    I     I_    0.140527 0.912525 0.324991 -0.273828
I8    I     I_    0.801781 0.067782 0.682567 -0.262322
I9    I     I_    0.420174 0.561696 0.485153 -0.295391
I10   I     I_    0.575801 0.393519 0.495873 -0.247123
I11   I     I_    0.572487 0.446396 0.976669 -0.296272
I12   I     I_    0.390074 0.613868 0.992376 -0.240973
I13   I     I_    0.921879 0.903116 0.010384 -0.279466
I14   I     I_    0.071885 0.098284 0.991630 -0.281954
I15   I     I_    0.089220 0.108783 0.494817 -0.241537
I16   I     I_    0.928555 0.943470 0.480343 -0.297417

loop_
_geom_bond_atom_site_label_1
_geom_bond_atom_site_label_2
_ccdc_geom_bond_type
O17   V3    S    
C32   H7    S    
N7    N8    D    
O18   V4    S    
O12   V1    S    
C46   C54   A    
C45   C53   A    
C53   H13   S    
C10   C18   A    
C25   H2    S    
C47   C55   A    
N1    N2    D    
C25   C33   A    
O15   V4    S    
C50   H10   S    
C5    C12   S    
N5    N6    D    
O16   V3    S    
C49   H9    S    
C6    C11   S    
C38   N6    S    
O11   C3    A    
O12   C4    A    
C56   H16   S    
O8    V1    S    
C23   C31   A    
C35   N3    S    
C34   N2    S    
O19   V1    S    
C37   C45   A    
C23   I8    S    
C42   C50   A    
O1    V3    S    
C41   C49   A    
C38   C46   A    
O3    C2    A    
O2    V4    S    
C10   C50   A    
C43   I11   S    
C30   H5    S    
C12   C52   A    
C35   C43   A    
C29   C37   A    
C34   C42   A    
O11   V2    S    
C31   C39   A    
C16   C56   A    
C11   C19   A    
O9    V1    S    
C20   C28   A    
O15   C7    A    
C29   H6    S    
C21   C29   A    
O16   C8    A    
O7    V2    S    
C55   H15   S    
C17   C25   A    
O5    V1    S    
C44   I12   S    
C17   I2    S    
C26   C34   A    
C52   H12   S    
O14   V4    S    
C21   I6    S    
C30   C38   A    
C13   C53   A    
C1    C16   S    
C15   C55   A    
C2    C15   S    
C3    C14   S    
C27   H4    S    
O10   V2    S    
C26   H1    S    
N3    N4    D    
C7    C10   S    
C11   C51   A    
C22   C30   A    
C51   H11   S    
O8    C5    A    
O13   C5    A    
C37   N5    S    
C18   C26   A    
O4    C1    A    
C9    C49   A    
O6    V2    S    
C39   C47   A    
C48   I16   S    
C33   N1    S    
C12   C20   A    
C43   C51   A    
C13   C21   A    
C15   C23   A    
C20   I3    S    
O9    C1    A    
C24   C32   A    
C16   C24   A    
O1    C4    A    
C42   I10   S    
C39   N7    S    
O2    C3    A    
C41   I9    S    
O13   V3    S    
C33   C41   A    
C31   H8    S    
C44   C52   A    
O7    C6    A    
C14   C54   A    
C8    C9    S    
C47   I15   S    
C9    C17   A    
O14   C6    A    
O20   V2    S    
C48   C56   A    
C4    C13   S    
C36   N4    S    
C19   C27   A    
C32   C40   A    
O5    C8    A    
O10   C2    A    
O6    C7    A    
C45   I13   S    
C19   I4    S    
C40   C48   A    
O3    V4    S    
C18   I1    S    
C14   C22   A    
O4    V3    S    
C46   I14   S    
C24   I7    S    
C27   C35   A    
C36   C44   A    
C28   C36   A    
C22   I5    S    
C28   H3    S    
C54   H14   S    
C40   N8    S    
