data_mof_unit_16827.cif
_audit_creation_date              2012-12-11T16:05:11-0500
_audit_creation_method            fapswitch 2.2
_symmetry_space_group_name_H-M    P1
_symmetry_Int_Tables_number       1
_space_group_crystal_system       triclinic
_cell_length_a                    10.666237
_cell_length_b                    10.674579
_cell_length_c                    16.961208
_cell_angle_alpha                 98.613889
_cell_angle_beta                  98.578348
_cell_angle_gamma                 61.586234
_cell_volume                      1672.61369597

loop_
_atom_site_label
_atom_site_type_symbol
_atom_type_description
_atom_site_fract_x
_atom_site_fract_y
_atom_site_fract_z
_atom_type_partial_charge
C1    C     C_R   0.355756 0.773086 0.398140 0.544014
C2    C     C_3   0.291326 0.737676 0.248378 -0.099468
C3    C     C_3   0.348253 0.810592 0.318934 0.059267
C4    C     C_R   0.371080 0.347139 0.358705 0.558485
C5    C     C_3   0.474683 0.782145 0.273353 -0.122853
C6    C     C_3   0.382010 0.930081 0.240771 -0.135701
C7    C     C_3   0.257155 0.956708 0.288230 -0.104150
C8    C     C_3   0.198973 0.884935 0.217094 -0.048839
C9    C     C_3   0.324322 0.857052 0.170684 0.034820
C10   C     C_3   0.458189 0.273522 0.777079 -0.118621
C11   C     C_3   0.382148 0.411249 0.734420 0.402284
C12   C     C_3   0.693383 0.405149 0.254623 -0.203756
C13   C     C_3   0.336202 0.332002 0.662389 0.014135
C14   C     C_3   0.411331 0.193761 0.704639 -0.170920
C15   C     C_3   0.269172 0.239347 0.740488 -0.175662
C16   C     C_R   0.778349 0.375986 0.402446 0.580334
C17   C     C_3   0.194095 0.378388 0.697008 -0.152712
C18   C     C_3   0.241518 0.456607 0.769918 0.260835
C19   C     C_3   0.316759 0.319561 0.812153 0.015210
C20   C     C_1   0.817332 0.341929 0.709611 0.006460
C21   C     C_1   0.844231 0.314848 0.778022 -0.003701
C22   C     C_1   0.337103 0.814427 0.709347 0.032150
C23   C     C_3   0.816640 0.348755 0.321301 0.080849
C24   C     C_1   0.312316 0.841540 0.778096 0.045775
C25   C     C_R   0.889992 0.311191 0.089986 0.543655
C26   C     C_R   0.319055 0.299328 0.120254 0.536232
C27   C     C_R   0.294043 0.892451 0.088969 0.552180
C28   C     C_R   0.356144 0.772405 0.626965 0.572225
C29   C     C_R   0.885554 0.299190 0.860780 0.545327
C30   C     C_R   0.307687 0.293360 0.891499 0.564287
C31   C     C_R   0.279616 0.885722 0.858740 0.580456
C32   C     C_R   0.366992 0.345481 0.585011 0.576190
C33   C     C_R   0.773579 0.379865 0.629691 0.565767
C34   C     C_3   0.889862 0.207504 0.271013 0.340968
C35   C     C_1   0.344316 0.336616 0.275001 -0.018970
C36   C     C_1   0.332090 0.326491 0.203851 -0.042777
C37   C     C_3   0.768816 0.261577 0.203146 -0.114551
C38   C     C_3   0.974118 0.267633 0.236377 -0.097053
C39   C     C_3   0.896769 0.410818 0.286543 0.205578
C40   C     C_3   0.775098 0.468462 0.219728 -0.122004
C41   C     C_3   0.850260 0.325383 0.169901 -0.025594
C42   C     C_3   0.416021 0.710869 0.201335 -0.166888
Cl1   Cl    Cl    0.130430 0.629557 0.814807 -0.538067
Cl2   Cl    Cl    0.981284 0.509667 0.341936 -0.584388
Cr1   Cr    Cr6+3 0.608340 0.611040 0.520430 1.072371
Cr2   Cr    Cr6+3 0.287650 0.601120 0.489350 1.130920
Cr3   Cr    Cr6+3 0.604040 0.287870 0.490280 1.086753
Cr4   Cr    Cr6+3 0.054020 0.052700 0.970850 1.071020
Cr5   Cr    Cr6+3 0.059230 0.375120 0.993390 1.081435
Cr6   Cr    Cr6+3 0.374950 0.061200 0.992340 1.039996
F1    F     F_    0.441601 0.499791 0.729693 -0.631706
F2    F     F_    0.942277 0.077822 0.302386 -0.640226
H1    H     H_    0.579037 0.457651 0.266384 0.116648
H2    H     H_    0.088808 0.214450 0.225225 0.109776
H3    H     H_    0.730204 0.574159 0.195896 0.151127
H4    H     H_    0.253384 0.658686 0.252837 0.151351
H5    H     H_    0.476053 0.614192 0.161183 0.115989
H6    H     H_    0.586852 0.742124 0.300252 0.166054
H7    H     H_    0.419687 0.008719 0.235092 0.145348
H8    H     H_    0.197587 0.053912 0.328163 0.161023
H9    H     H_    0.086108 0.924190 0.191558 0.197927
H10   H     H_    0.565316 0.233786 0.811040 0.142159
H11   H     H_    0.478930 0.085465 0.676175 0.151522
H12   H     H_    0.222246 0.167854 0.745308 0.118130
H13   H     H_    0.087209 0.419611 0.662766 0.152213
H14   H     H_    0.716043 0.201100 0.167110 0.147201
O1    O     O_R   0.751220 0.499230 0.435170 -0.488525
O2    O     O_R   0.412990 0.180750 0.091610 -0.518732
O3    O     O_R   0.366620 0.943130 0.065760 -0.499692
O4    O     O_R   0.477220 0.727600 0.436870 -0.519000
O5    O     O_R   0.160510 0.906330 0.879210 -0.446441
O6    O     O_R   0.930190 0.179050 0.889450 -0.503328
O7    O     O_R   0.909140 0.398170 0.896710 -0.490189
O8    O     O_R   0.186190 0.363460 0.918830 -0.466719
O9    O     O_R   0.401670 0.173200 0.913310 -0.519714
O10   O     O_R   0.356120 0.936130 0.900470 -0.511641
O11   O     O_3   0.162740 0.163010 0.985530 -0.285550
O12   O     O_R   0.297880 0.469080 0.560050 -0.462061
O13   O     O_R   0.258650 0.745120 0.411470 -0.482582
O14   O     O_R   0.297070 0.467240 0.395960 -0.458927
O15   O     O_R   0.488830 0.252610 0.387790 -0.514494
O16   O     O_R   0.724400 0.302390 0.420980 -0.477262
O17   O     O_R   0.752100 0.501210 0.612190 -0.495449
O18   O     O_R   0.478040 0.729440 0.600970 -0.493870
O19   O     O_R   0.259530 0.747110 0.588490 -0.482976
O20   O     O_R   0.489720 0.254590 0.564810 -0.512116
O21   O     O_R   0.725220 0.304230 0.585080 -0.487789
O22   O     O_3   0.500010 0.500010 0.500020 -0.285795
O23   O     O_R   0.171830 0.913880 0.057510 -0.514266
O24   O     O_R   0.940690 0.186050 0.054730 -0.506173
O25   O     O_R   0.920470 0.405720 0.075010 -0.499418
O26   O     O_R   0.196690 0.370460 0.084120 -0.485131

loop_
_geom_bond_atom_site_label_1
_geom_bond_atom_site_label_2
_ccdc_geom_bond_type
C5    C42   S    
C11   C18   S    
C28   O18   A    
C34   C37   S    
C13   C32   S    
C35   C36   T    
C6    C9    S    
C7    C8    S    
C10   H10   S    
C15   C19   S    
C12   C23   S    
C25   O24   A    
C5    H6    S    
C5    C6    S    
Cr6   O3    S    
Cr5   O25   S    
C4    O14   A    
C3    C7    S    
Cr2   O13   S    
C30   O8    A    
C29   O7    A    
C26   O26   A    
C18   C19   S    
Cr3   O16   S    
C12   C37   S    
C4    O15   A    
C8    C9    S    
Cr1   O1    S    
C15   H12   S    
C12   H1    S    
C27   O3    A    
C8    H9    S    
C29   O6    A    
C40   H3    S    
C31   O5    A    
C4    C35   S    
Cr4   O24   S    
C13   C14   S    
Cr1   O17   S    
Cr4   O6    S    
C42   H5    S    
Cr2   O22   S    
C25   O25   A    
Cr3   O20   S    
Cr1   O22   S    
C38   C41   S    
C10   C14   S    
C25   C41   S    
C39   C40   S    
Cr2   O12   S    
C21   C29   S    
C1    C3    S    
Cr3   O21   S    
Cr4   O11   S    
C12   C40   S    
Cr6   O10   S    
C38   H2    S    
C10   C19   S    
C23   C34   S    
C32   O20   A    
C37   H14   S    
C16   O16   A    
C17   C18   S    
C9    C42   S    
C16   O1    A    
C33   O17   A    
C39   Cl2   S    
C20   C33   S    
C26   C36   S    
C40   C41   S    
C16   C23   S    
Cr4   O23   S    
C1    O13   A    
Cr5   O7    S    
Cr1   O18   S    
Cr5   O26   S    
Cr6   O11   S    
C7    H8    S    
C9    C27   S    
C15   C17   S    
Cr1   O4    S    
C34   C38   S    
C34   F2    S    
C6    H7    S    
C2    C8    S    
C14   C15   S    
C3    C5    S    
C6    C7    S    
C17   H13   S    
C1    O4    A    
C13   C17   S    
C26   O2    A    
Cr3   O22   S    
Cr2   O19   S    
C2    C3    S    
C33   O21   A    
C24   C31   S    
C2    H4    S    
Cr6   O9    S    
Cr2   O14   S    
C30   O9    A    
C11   C13   S    
C31   O10   A    
C38   C39   S    
C2    C42   S    
C23   C39   S    
C14   H11   S    
Cr5   O11   S    
C27   O23   A    
C22   C24   T    
Cr3   O15   S    
C37   C41   S    
C11   F1    S    
C10   C11   S    
C32   O12   A    
C20   C21   T    
C28   O19   A    
Cr5   O8    S    
C22   C28   S    
Cr4   O5    S    
C18   Cl1   S    
C19   C30   S    
Cr6   O2    S    
