data_mof_unit_32115.cif
_audit_creation_date              2012-12-10T20:31:54-0500
_audit_creation_method            fapswitch 2.2
_symmetry_space_group_name_H-M    P1
_symmetry_Int_Tables_number       1
_space_group_crystal_system       triclinic
_cell_length_a                    9.892255
_cell_length_b                    10.664262
_cell_length_c                    15.486288
_cell_angle_alpha                 90.041752
_cell_angle_beta                  67.182341
_cell_angle_gamma                 90.207247
_cell_volume                      1505.84630859

loop_
_atom_site_label
_atom_site_type_symbol
_atom_type_description
_atom_site_fract_x
_atom_site_fract_y
_atom_site_fract_z
_atom_type_partial_charge
C1    C     C_R   0.503290 0.739778 0.495075 0.914360
C2    C     C_R   0.397972 0.456214 0.917369 0.096296
C3    C     C_R   0.260076 0.510250 0.971678 0.161127
C4    C     C_R   0.498822 0.427236 0.959341 0.070302
C5    C     C_R   0.465865 0.465803 0.052966 0.076069
C6    C     C_R   0.323356 0.511020 0.106776 -0.191473
C7    C     C_R   0.222031 0.531655 0.066721 -0.183914
C8    C     C_R   0.632747 0.363953 0.910495 -0.229019
C9    C     C_R   0.734172 0.345092 0.950798 -0.210752
C10   C     C_R   0.707175 0.390168 0.040209 0.118422
C11   C     C_R   0.575196 0.454571 0.090619 0.104923
C12   C     C_R   0.407544 0.498287 0.676140 0.855026
C13   C     C_R   0.808851 0.368105 0.081093 -0.233823
C14   C     C_R   0.778193 0.404451 0.173355 0.255641
C15   C     C_R   0.556591 0.505619 0.177566 -0.297169
C16   C     C_R   0.378420 0.935407 0.504268 0.121233
C17   C     C_R   0.510427 0.871504 0.480469 -0.200098
C18   C     C_R   0.644656 0.937521 0.440145 0.259144
C19   C     C_R   0.641462 0.067577 0.443289 -0.220133
C20   C     C_R   0.506552 0.128896 0.484288 -0.176064
C21   C     C_R   0.376465 0.062897 0.505764 0.157304
C22   C     C_3   0.237817 0.067690 0.591464 -0.473234
C23   C     C_R   0.501039 0.260184 0.497734 0.906964
C24   C     C_3   0.239731 0.925491 0.589808 -0.471323
C25   C     C_R   0.879790 0.483250 0.581241 0.211200
C26   C     C_R   0.977331 0.512429 0.418887 -0.050619
C27   C     C_R   0.120728 0.511948 0.418808 -0.099900
C28   C     C_R   0.022428 0.482208 0.581056 0.202587
C29   C     C_3   0.979238 0.563588 0.665428 -0.519397
C30   C     C_3   0.826747 0.567622 0.664778 -0.478377
C31   C     C_R   0.592461 0.495888 0.323677 0.915469
C32   C     C_R   0.347002 0.491961 0.778133 -0.052213
C33   C     C_R   0.649861 0.474018 0.222320 -0.120509
C34   C     C_R   0.163976 0.546786 0.929388 -0.192889
C35   C     C_R   0.208817 0.540360 0.832436 -0.209349
C36   C     C_R   0.435258 0.442813 0.821064 -0.264524
H1    H     H_    0.115395 0.569414 0.109659 0.176280
H2    H     H_    0.908236 0.315989 0.043235 0.177088
H3    H     H_    0.743596 0.119824 0.417503 0.219876
H4    H     H_    0.253979 0.108383 0.652943 0.194876
H5    H     H_    0.145558 0.108262 0.576773 0.216162
H6    H     H_    0.256782 0.883102 0.650405 0.194053
H7    H     H_    0.148596 0.883881 0.574091 0.219319
H8    H     H_    0.963218 0.525656 0.353785 0.190442
H9    H     H_    0.213108 0.523705 0.353171 0.151336
H10   H     H_    0.983022 0.512022 0.726713 0.198797
H11   H     H_    0.466016 0.567114 0.214015 0.158790
H12   H     H_    0.036425 0.655865 0.650992 0.214389
H13   H     H_    0.744230 0.522130 0.727390 0.201119
H14   H     H_    0.795375 0.662003 0.648424 0.225468
H15   H     H_    0.834401 0.294763 0.911636 0.149369
H16   H     H_    0.058010 0.587104 0.970614 0.150836
H17   H     H_    0.138841 0.578173 0.799915 0.149958
H18   H     H_    0.536987 0.401222 0.776202 0.141590
H19   H     H_    0.285740 0.529519 0.180785 0.147144
H20   H     H_    0.661229 0.323956 0.841858 0.142132
N1    N     N_R   0.856900 0.500860 0.500610 -0.103852
N2    N     N_R   0.142540 0.500820 0.500610 -0.107631
O1    O     O_R   0.385310 0.683210 0.499990 -0.615543
O2    O     O_R   0.614650 0.683240 0.500000 -0.572252
O3    O     O_R   0.319830 0.499970 0.632240 -0.618746
O4    O     O_R   0.549170 0.500000 0.632250 -0.618543
O5    O     O_R   0.385350 0.316760 0.500000 -0.608763
O6    O     O_R   0.614690 0.316790 0.500010 -0.608688
O7    O     O_R   0.450830 0.500000 0.367750 -0.630311
O8    O     O_R   0.680170 0.500030 0.367760 -0.572707
Zn1   Zn    Zn3+2 0.346870 0.499980 0.499990 0.951770
Zn2   Zn    Zn3+2 0.653130 0.500020 0.500010 0.993813
Br1   Br    Br    0.833718 0.859229 0.383363 -0.504446
Br2   Br    Br    0.907847 0.343770 0.229278 -0.554413

loop_
_geom_bond_atom_site_label_1
_geom_bond_atom_site_label_2
_ccdc_geom_bond_type
C8    C9    A    
C31   O8    A    
C2    C4    A    
C31   C33   S    
C16   C21   A    
C29   C30   S    
C28   N2    A    
C35   H17   S    
C12   O4    A    
C9    C10   A    
O3    Zn1   S    
C1    C17   S    
C19   C20   A    
C9    H15   S    
C20   C23   S    
O4    Zn2   S    
C6    H19   S    
C4    C8    A    
C22   H4    S    
C27   H9    S    
C14   C33   A    
C23   O5    A    
C17   C18   A    
C13   H2    S    
C26   H8    S    
C16   C24   S    
C13   C14   A    
C12   C32   S    
C25   C28   A    
C18   C19   A    
C12   O3    A    
C14   Br2   S    
C8    H20   S    
C26   C27   A    
C6    C7    A    
C19   H3    S    
C18   Br1   S    
C34   C35   A    
C32   C36   A    
C22   C24   S    
C28   C29   S    
C30   H13   S    
C5    C11   A    
C3    C7    A    
C2    C3    A    
C1    O1    A    
C7    H1    S    
C5    C6    A    
C30   H14   S    
C26   N1    A    
O5    Zn1   S    
C22   H5    S    
C36   H18   S    
O8    Zn2   S    
N1    Zn2   S    
C25   N1    A    
C32   C35   A    
O6    Zn2   S    
N2    Zn1   S    
C24   H6    S    
C20   C21   A    
O2    Zn2   S    
C11   C15   A    
C29   H10   S    
C10   C11   A    
C1    O2    A    
C2    C36   A    
C25   C30   S    
C31   O7    A    
C24   H7    S    
C15   H11   S    
C23   O6    A    
C27   N2    A    
C29   H12   S    
C3    C34   A    
O1    Zn1   S    
C21   C22   S    
C34   H16   S    
C15   C33   A    
C16   C17   A    
C4    C5    A    
O7    Zn1   S    
C10   C13   A    
