data_mof_unit_39185.cif
_audit_creation_date              2012-12-11T15:34:20-0500
_audit_creation_method            fapswitch 2.2
_symmetry_space_group_name_H-M    P1
_symmetry_Int_Tables_number       1
_space_group_crystal_system       triclinic
_cell_length_a                    15.02941
_cell_length_b                    15.041026
_cell_length_c                    34.961026
_cell_angle_alpha                 90.574538
_cell_angle_beta                  89.953761
_cell_angle_gamma                 60.007157
_cell_volume                      6844.37617226

loop_
_atom_site_label
_atom_site_type_symbol
_atom_type_description
_atom_site_fract_x
_atom_site_fract_y
_atom_site_fract_z
_atom_type_partial_charge
C1    C     C_R   0.301754 0.608620 0.555707 0.569680
C2    C     C_R   0.198960 0.726870 0.392176 0.257764
C3    C     C_R   0.739570 0.085098 0.270253 0.240478
C4    C     C_R   0.744605 0.078375 0.230463 -0.071114
C5    C     C_R   0.685350 0.165690 0.208427 -0.020647
C6    C     C_R   0.737986 0.193513 0.351756 -0.081242
C7    C     C_R   0.720234 0.220746 0.390413 0.218171
C8    C     C_R   0.555068 0.228227 0.385792 -0.111989
C9    C     C_R   0.748453 0.587967 0.645629 -0.112961
C10   C     C_R   0.573877 0.199880 0.347349 0.305204
C11   C     C_R   0.663299 0.187794 0.329858 0.060965
C12   C     C_R   0.624747 0.244904 0.407245 -0.014591
C13   C     C_R   0.171928 0.734339 0.353593 -0.101619
C14   C     C_R   0.087075 0.707038 0.094004 -0.014099
C15   C     C_R   0.105554 0.613651 0.110780 0.199208
C16   C     C_R   0.135770 0.593605 0.149106 0.275783
C17   C     C_R   0.148613 0.665736 0.170620 -0.059232
C18   C     C_R   0.143628 0.750593 0.152827 -0.162077
C19   C     C_R   0.115217 0.770899 0.114601 0.223141
C20   C     C_R   0.243339 0.658465 0.229644 -0.102675
C21   C     C_3   0.872477 0.514946 0.569248 -0.067443
C22   C     C_3   0.918639 0.057216 0.650306 -0.096556
C23   C     C_3   0.500919 0.094306 0.654982 -0.080664
C24   C     C_R   0.183647 0.648361 0.333384 0.022465
C25   C     C_3   0.025049 0.577773 0.659155 -0.086193
C26   C     C_3   0.287783 0.757397 0.835379 -0.097924
C27   C     C_3   0.804195 0.469085 0.923185 -0.074633
C28   C     C_3   0.465117 0.922998 0.081347 -0.058010
C29   C     C_3   0.890658 0.467680 0.108543 -0.053965
C30   C     C_3   0.201189 0.840985 0.086560 -0.108101
C31   C     C_3   0.935461 0.500119 0.826035 -0.056085
C32   C     C_3   0.348854 0.735077 0.276850 -0.102758
C33   C     C_3   0.247257 0.431153 0.167616 -0.009957
C34   C     C_3   0.091138 0.878853 0.421280 -0.076195
C35   C     C_R   0.578673 0.737145 0.647598 -0.105365
C36   C     C_3   0.479360 0.866706 0.918095 -0.102994
C37   C     C_R   0.242582 0.630371 0.410074 -0.013064
C38   C     C_R   0.736316 0.024910 0.943131 0.545418
C39   C     C_R   0.745583 0.722590 0.945008 0.556990
C40   C     C_R   0.038373 0.733892 0.948291 0.539860
C41   C     C_R   0.722859 0.038995 0.052975 0.573130
C42   C     C_R   0.732909 0.734654 0.054841 0.568181
C43   C     C_R   0.669603 0.669282 0.666347 -0.060146
C44   C     C_R   0.028804 0.744005 0.057800 0.579889
C45   C     C_R   0.561451 0.717880 0.609977 0.178159
C46   C     C_R   0.688485 0.678756 0.785579 0.363412
C47   C     C_R   0.678883 0.677272 0.708036 0.338008
C48   C     C_R   0.771798 0.597954 0.848422 0.269259
C49   C     C_R   0.777578 0.606041 0.888375 0.219550
C50   C     C_R   0.631832 0.780152 0.887094 0.204968
C51   C     C_R   0.622936 0.769529 0.847836 -0.173404
C52   C     C_R   0.694328 0.680987 0.827834 -0.055540
C53   C     C_R   0.611425 0.589533 0.554998 0.570387
C54   C     C_R   0.250750 0.657929 0.269658 0.324174
C55   C     C_R   0.714772 0.701133 0.907237 -0.024427
C56   C     C_R   0.725041 0.070030 0.904904 -0.023687
C57   C     C_R   0.635831 0.098270 0.883588 -0.122937
C58   C     C_R   0.633622 0.118143 0.844677 -0.157554
C59   C     C_R   0.720060 0.110918 0.826400 0.026159
C60   C     C_R   0.807724 0.088608 0.847967 0.238532
C61   C     C_R   0.809592 0.068773 0.887034 -0.093943
C62   C     C_R   0.723484 0.202245 0.767796 -0.058765
C63   C     C_R   0.715164 0.214456 0.728217 -0.042478
C64   C     C_R   0.702408 0.144883 0.705019 0.081744
C65   C     C_R   0.174874 0.653169 0.291747 0.075930
C66   C     C_R   0.590315 0.300372 0.553607 0.549305
C67   C     C_R   0.700936 0.061321 0.721788 -0.084687
C68   C     C_R   0.708580 0.049508 0.761373 -0.103491
C69   C     C_R   0.718888 0.120457 0.784569 0.055129
C70   C     C_R   0.590564 0.179177 0.647894 0.253155
C71   C     C_R   0.563235 0.218808 0.610857 -0.108721
C72   C     C_R   0.724289 0.217264 0.603922 -0.107637
C73   C     C_R   0.752700 0.178004 0.640768 0.226116
C74   C     C_R   0.683098 0.164677 0.663726 0.029469
C75   C     C_R   0.628205 0.241005 0.589154 -0.073996
C76   C     C_R   0.091822 0.651998 0.274252 -0.095858
C77   C     C_R   0.093157 0.696493 0.911405 -0.028126
C78   C     C_R   0.299334 0.610588 0.446259 0.561383
C79   C     C_R   0.126875 0.755629 0.891910 -0.095193
C80   C     C_R   0.154957 0.736413 0.853308 0.289379
C81   C     C_R   0.147108 0.658444 0.833581 0.026098
C82   C     C_R   0.123112 0.593177 0.853860 -0.174018
C83   C     C_R   0.096166 0.612064 0.892518 -0.141787
C84   C     C_R   0.224657 0.558840 0.773229 -0.102135
C85   C     C_R   0.234124 0.553808 0.733348 0.283304
C86   C     C_R   0.171276 0.641566 0.711480 0.047704
C87   C     C_R   0.084187 0.654575 0.234625 -0.062161
C88   C     C_R   0.099359 0.732691 0.729957 -0.173078
C89   C     C_R   0.090936 0.737353 0.769657 -0.075588
C90   C     C_R   0.608239 0.590006 0.445421 0.536467
C91   C     C_R   0.154635 0.651037 0.791549 -0.005278
C92   C     C_R   0.221487 0.706906 0.656026 -0.181214
C93   C     C_R   0.250822 0.700327 0.617988 -0.171944
C94   C     C_R   0.204108 0.569400 0.606031 0.245261
C95   C     C_R   0.171689 0.578357 0.644393 0.347089
C96   C     C_R   0.186661 0.642862 0.669912 0.011760
C97   C     C_R   0.247572 0.628336 0.592937 -0.020166
C98   C     C_R   0.159927 0.657667 0.212238 -0.001057
C99   C     C_R   0.690130 0.720531 0.091178 0.034407
C100  C     C_R   0.610789 0.806942 0.110827 0.216817
C101  C     C_R   0.589259 0.798587 0.149038 -0.118637
C102  C     C_R   0.589008 0.301147 0.444079 0.567398
C103  C     C_R   0.641195 0.704683 0.167742 -0.059867
C104  C     C_R   0.709969 0.616496 0.147001 -0.121239
C105  C     C_R   0.736793 0.623316 0.108875 0.234203
C106  C     C_R   0.627080 0.617656 0.226203 -0.129287
C107  C     C_R   0.627942 0.608862 0.265825 -0.150973
C108  C     C_R   0.631533 0.682815 0.289554 0.007469
C109  C     C_R   0.216096 0.555452 0.352302 0.254808
C110  C     C_R   0.632183 0.767514 0.273153 0.249108
C111  C     C_R   0.632043 0.775585 0.233399 -0.065795
C112  C     C_R   0.630606 0.700324 0.209608 -0.014649
C113  C     C_R   0.554644 0.739905 0.354556 -0.059840
C114  C     C_R   0.636326 0.628035 0.590458 0.026267
C115  C     C_R   0.550002 0.718024 0.392933 -0.101081
C116  C     C_R   0.710104 0.557026 0.385409 -0.100394
C117  C     C_R   0.714267 0.578754 0.347031 -0.092244
C118  C     C_R   0.635103 0.668809 0.331174 0.060870
C119  C     C_R   0.625792 0.624578 0.408340 0.015365
C120  C     C_R   0.244807 0.547073 0.390490 -0.127335
C121  C     C_R   0.702009 0.097027 0.089433 -0.012386
C122  C     C_R   0.786138 0.092646 0.108785 -0.174343
C123  C     C_R   0.777995 0.121203 0.147001 -0.179720
C124  C     C_R   0.685690 0.155147 0.166738 -0.009455
C125  C     C_R   0.597965 0.168660 0.147185 0.276943
C126  C     C_R   0.733737 0.568189 0.607807 0.229864
C127  C     C_R   0.605192 0.142104 0.108173 0.274592
C128  C     C_R   0.623611 0.260982 0.226203 -0.044505
C129  C     C_R   0.617781 0.268723 0.265954 0.237584
C130  C     C_R   0.674458 0.180140 0.288164 0.065056
Cl1   Cl    Cl    0.919829 0.075117 0.826382 -0.581829
Cl2   Cl    Cl    0.819035 0.226556 0.415466 -0.587278
Cl3   Cl    Cl    0.481728 0.208563 0.172325 -0.554428
Cl4   Cl    Cl    0.092780 0.518528 0.085285 -0.568401
Cl5   Cl    Cl    0.232898 0.444943 0.327928 -0.480099
Cl6   Cl    Cl    0.442874 0.808067 0.589926 -0.602094
Cl7   Cl    Cl    0.330597 0.438930 0.712132 -0.514655
Cl8   Cl    Cl    0.188078 0.484432 0.575407 -0.553812
Cl9   Cl    Cl    0.639593 0.861349 0.301307 -0.490420
Cl10  Cl    Cl    0.492550 0.164759 0.083953 -0.505089
Cl11  Cl    Cl    0.480937 0.186672 0.321173 -0.397976
Cl12  Cl    Cl    0.537948 0.390412 0.287060 -0.547544
Cl13  Cl    Cl    0.813113 0.972785 0.296799 -0.557991
Cr1   Cr    Cr6+3 0.421670 0.426920 0.499620 1.094793
Cr2   Cr    Cr6+3 0.427030 0.651190 0.500980 1.110416
Cr3   Cr    Cr6+3 0.651280 0.421870 0.499380 1.108687
Cr4   Cr    Cr6+3 0.910810 0.908010 0.001130 1.034271
Cr5   Cr    Cr6+3 0.682800 0.909890 0.998370 1.093877
Cr6   Cr    Cr6+3 0.908370 0.682300 0.002180 1.111007
H1    H     H_    0.879589 0.046268 0.902794 0.163677
H2    H     H_    0.070779 0.564977 0.906790 0.160804
H3    H     H_    0.274219 0.491989 0.790012 0.140083
H4    H     H_    0.050956 0.800806 0.713569 0.113317
H5    H     H_    0.035179 0.808700 0.783385 0.182607
H6    H     H_    0.231062 0.758534 0.675200 0.153133
H7    H     H_    0.282542 0.747423 0.608914 0.208554
H8    H     H_    0.118600 0.531848 0.839163 0.110676
H9    H     H_    0.777032 0.523308 0.329250 0.134989
H10   H     H_    0.625989 0.543991 0.278094 0.180293
H11   H     H_    0.624604 0.559364 0.208551 0.129714
H12   H     H_    0.715337 0.280036 0.715771 0.159163
H13   H     H_    0.533622 0.866914 0.164439 0.155450
H14   H     H_    0.820729 0.536136 0.659144 0.159184
H15   H     H_    0.636977 0.838827 0.221108 0.163936
H16   H     H_    0.492663 0.809562 0.342618 0.151094
H17   H     H_    0.484038 0.771492 0.409878 0.155731
H18   H     H_    0.746299 0.543238 0.161192 0.116793
H19   H     H_    0.769550 0.484345 0.396384 0.175672
H20   H     H_    0.860936 0.060396 0.095221 0.181101
H21   H     H_    0.578835 0.328718 0.209129 0.161721
H22   H     H_    0.518395 0.803010 0.662734 0.175480
H23   H     H_    0.730656 0.257946 0.785424 0.153193
H24   H     H_    0.845564 0.111426 0.161829 0.142390
H25   H     H_    0.792713 0.004577 0.216637 0.156064
H26   H     H_    0.808241 0.181357 0.338274 0.163809
H27   H     H_    0.482552 0.243427 0.398101 0.179457
H28   H     H_    0.146834 0.806016 0.338853 0.140009
H29   H     H_    0.302741 0.658112 0.211994 0.105983
H30   H     H_    0.033080 0.649286 0.291345 0.163604
H31   H     H_    0.018634 0.655401 0.221383 0.162683
H32   H     H_    0.276250 0.472751 0.403847 0.177132
H33   H     H_    0.155914 0.805005 0.169251 0.139965
H34   H     H_    0.565471 0.135781 0.828434 0.139792
H35   H     H_    0.561970 0.833673 0.832813 0.168702
H36   H     H_    0.569576 0.099642 0.896460 0.169322
H37   H     H_    0.908364 0.546513 0.588870 0.118377
H38   H     H_    0.826423 0.572257 0.547087 0.114526
H39   H     H_    0.935418 0.447167 0.554335 0.183496
H40   H     H_    0.930166 0.034940 0.619453 0.118962
H41   H     H_    0.897311 0.007140 0.666484 0.103732
H42   H     H_    0.993163 0.043987 0.661636 0.169375
H43   H     H_    0.572885 0.022629 0.646745 0.089734
H44   H     H_    0.448675 0.125119 0.630095 0.152278
H45   H     H_    0.692064 0.006448 0.704311 0.115264
H46   H     H_    0.461398 0.073417 0.676921 0.170331
H47   H     H_    0.992046 0.613910 0.631179 0.107351
H48   H     H_    0.999744 0.637640 0.681994 0.102100
H49   H     H_    0.993654 0.527105 0.666330 0.164550
H50   H     H_    0.327744 0.681142 0.820657 0.125021
H51   H     H_    0.315286 0.750805 0.865348 0.095672
H52   H     H_    0.308657 0.808701 0.820066 0.165279
H53   H     H_    0.774004 0.440362 0.899980 0.143384
H54   H     H_    0.741800 0.517808 0.943855 0.101223
H55   H     H_    0.862911 0.401433 0.938902 0.155786
H56   H     H_    0.705328 0.985718 0.774024 0.121441
H57   H     H_    0.414337 0.928534 0.105538 0.106703
H58   H     H_    0.472543 0.863743 0.060191 0.077486
H59   H     H_    0.427582 0.997999 0.066667 0.190477
H60   H     H_    0.873730 0.415748 0.125478 0.102481
H61   H     H_    0.919841 0.507762 0.127290 0.172327
H62   H     H_    0.953134 0.418855 0.088113 0.193409
H63   H     H_    0.234536 0.778197 0.064663 0.117507
H64   H     H_    0.254998 0.822669 0.110935 0.103209
H65   H     H_    0.191980 0.911423 0.072983 0.139896
H66   H     H_    0.975701 0.484381 0.853897 0.156020
H67   H     H_    0.488016 0.238758 0.600157 0.179309
H68   H     H_    0.929080 0.570669 0.813264 0.106727
H69   H     H_    0.983927 0.434982 0.806478 0.162721
H70   H     H_    0.274941 0.809402 0.276659 0.105822
H71   H     H_    0.388029 0.719536 0.248607 0.123784
H72   H     H_    0.399281 0.743047 0.298056 0.156477
H73   H     H_    0.252482 0.361578 0.180448 0.213963
H74   H     H_    0.292477 0.454962 0.185891 0.146365
H75   H     H_    0.281577 0.409809 0.138390 0.187226
H76   H     H_    0.060296 0.840862 0.439987 0.119784
H77   H     H_    0.041729 0.911568 0.395692 0.145322
H78   H     H_    0.775976 0.233137 0.587598 0.177436
H79   H     H_    0.087923 0.943696 0.437847 0.178425
H80   H     H_    0.502939 0.804754 0.939546 0.099697
H81   H     H_    0.437287 0.855016 0.894156 0.108716
H82   H     H_    0.425450 0.940428 0.932526 0.145876
H83   H     H_    0.126040 0.820680 0.905865 0.152286
N1    N     N_R   0.767824 0.606203 0.764482 -0.167769
N2    N     N_R   0.763047 0.605162 0.726550 -0.234403
N3    N     N_R   0.599735 0.750666 0.729032 -0.229762
N4    N     N_R   0.604690 0.751681 0.767014 -0.245155
O1    O     O_R   0.502070 0.323090 0.541280 -0.490868
O2    O     O_R   0.831550 0.656950 0.958960 -0.471406
O3    O     O_R   0.998590 0.685540 0.963930 -0.490948
O4    O     O_R   0.338340 0.520690 0.539540 -0.441627
O5    O     O_R   0.008220 0.831200 0.045060 -0.468057
O6    O     O_R   0.813270 0.997930 0.038810 -0.515000
O7    O     O_R   0.657500 0.016560 0.039940 -0.425695
O8    O     O_R   0.685680 0.820940 0.038120 -0.474408
O9    O     O_R   0.822130 0.666070 0.043610 -0.445952
O10   O     O_R   0.989860 0.694000 0.042400 -0.448243
O11   O     O_3   0.833990 0.833400 0.000560 -0.279143
O12   O     O_R   0.520720 0.641670 0.461580 -0.500542
O13   O     O_R   0.324760 0.674070 0.543580 -0.494281
O14   O     O_R   0.522400 0.640310 0.540110 -0.448128
O15   O     O_R   0.675940 0.500630 0.542210 -0.467168
O16   O     O_R   0.641790 0.337020 0.538150 -0.494478
O17   O     O_R   0.500260 0.324550 0.456580 -0.525115
O18   O     O_R   0.336660 0.522040 0.461020 -0.513627
O19   O     O_R   0.322940 0.675540 0.458880 -0.449891
O20   O     O_3   0.812461 0.483167 0.589624 -0.531524
O21   O     O_3   0.844951 0.161891 0.655360 -0.546884
O22   O     O_3   0.520949 0.169138 0.670870 -0.516284
O23   O     O_R   0.674120 0.502090 0.457500 -0.492525
O24   O     O_3   0.133093 0.517664 0.657375 -0.477500
O25   O     O_3   0.180245 0.800764 0.834187 -0.534964
O26   O     O_3   0.851047 0.522367 0.908160 -0.540254
O27   O     O_3   0.562032 0.902975 0.094464 -0.500528
O28   O     O_3   0.803549 0.536635 0.087415 -0.550083
O29   O     O_3   0.103936 0.860121 0.099109 -0.538192
O30   O     O_3   0.838766 0.506665 0.829908 -0.519440
O31   O     O_3   0.335567 0.652341 0.287765 -0.514159
O32   O     O_3   0.142918 0.507942 0.166370 -0.547707
O33   O     O_3   0.194148 0.810712 0.410775 -0.541269
O34   O     O_R   0.640110 0.338380 0.459630 -0.434778
O35   O     O_3   0.564503 0.872735 0.904536 -0.532778
O36   O     O_3   0.499990 0.499990 0.499990 -0.283149
O37   O     O_R   0.017640 0.822070 0.960410 -0.525572
O38   O     O_R   0.822000 0.989470 0.960340 -0.509774
O39   O     O_R   0.666920 0.007430 0.955290 -0.486620
O40   O     O_R   0.694410 0.812480 0.959650 -0.464447

loop_
_geom_bond_atom_site_label_1
_geom_bond_atom_site_label_2
_ccdc_geom_bond_type
C39   O40   A    
Cr2   O19   S    
C79   C80   A    
C42   O9    A    
C128  H21   S    
Cr6   O10   S    
C93   C97   A    
C109  Cl5   S    
C3    C130  A    
C35   H22   S    
C73   C74   A    
C92   C93   A    
C95   C96   A    
C76   H30   S    
C128  C129  A    
C32   H72   S    
C57   C58   A    
C21   H37   S    
C15   Cl4   S    
C106  C112  A    
C85   C86   A    
C116  C117  A    
Cr1   O17   S    
C5    C124  S    
C65   C76   A    
C124  C125  A    
C41   O7    A    
Cr2   O36   S    
C27   H54   S    
C78   O19   A    
Cr2   O13   S    
C110  Cl9   S    
C34   H77   S    
C22   O21   S    
C121  C127  A    
C40   O3    A    
C36   H82   S    
C113  H16   S    
C114  C126  A    
C1    O13   A    
C38   O39   A    
C31   H66   S    
C106  C107  A    
C18   H33   S    
Cr5   O8    S    
C15   C16   A    
C27   H53   S    
C46   C52   S    
C92   C96   A    
C29   O28   S    
C28   H57   S    
C56   C57   A    
Cr1   O4    S    
C32   O31   S    
C18   C19   A    
C53   O15   A    
C41   C121  S    
C101  C103  A    
C9    H14   S    
C2    C13   A    
C64   C74   S    
C110  C111  A    
C23   H43   S    
C25   H49   S    
Cr6   O2    S    
C87   H31   S    
C68   C69   A    
C25   O24   S    
C45   C114  A    
C36   O35   S    
C39   C55   S    
C111  C112  A    
C23   O22   S    
C16   C17   A    
C72   H78   S    
C90   O12   A    
C70   C74   A    
Cr5   O7    S    
N3    N4    A    
Cr5   O40   S    
C34   O33   S    
C21   H38   S    
C70   C71   A    
C84   C91   A    
C61   H1    S    
C22   H41   S    
C67   H45   S    
C26   H51   S    
C17   C98   S    
C57   H36   S    
C58   H34   S    
C44   O10   A    
C19   O29   S    
C47   N2    A    
C26   O25   S    
C33   H73   S    
Cr4   O37   S    
Cr4   O11   S    
C59   C60   A    
Cr6   O11   S    
C4    H25   S    
C31   O30   S    
C9    C126  A    
Cr3   O23   S    
C7    C12   A    
C72   C75   A    
C90   O23   A    
C60   Cl1   S    
C104  C105  A    
C123  H24   S    
C44   O5    A    
C29   H62   S    
C83   H2    S    
C77   C79   A    
C1    O4    A    
C95   O24   S    
C99   C105  A    
C87   C98   A    
C66   O16   A    
C9    C43   A    
C80   O25   S    
C33   O32   S    
C27   H55   S    
C78   O18   A    
C46   N1    A    
C108  C118  S    
Cr2   O14   S    
Cr3   O34   S    
C34   H76   S    
C3    Cl13  S    
C84   C85   A    
C20   C54   A    
C51   H35   S    
C1    C97   S    
C6    C11   A    
C54   C65   A    
C82   H8    S    
C32   H70   S    
C72   C73   A    
C21   O20   S    
C20   H29   S    
C129  Cl12  S    
Cr4   O6    S    
C50   C51   A    
C58   C59   A    
C63   C64   A    
C27   O26   S    
Cr1   O18   S    
Cr5   O11   S    
C81   C82   A    
C67   C68   A    
C13   C24   A    
Cr3   O16   S    
C60   C61   A    
C115  H17   S    
C10   Cl11  S    
C46   N4    A    
C34   H79   S    
C64   C67   A    
C12   C102  S    
C62   C63   A    
C30   H65   S    
C99   C100  A    
C100  O27   S    
C48   O30   S    
C8    C12   A    
C122  H20   S    
C23   H44   S    
C26   H52   S    
C17   C18   A    
C121  C122  A    
Cr5   O39   S    
C20   C98   A    
C30   O29   S    
C32   H71   S    
C50   O35   S    
C22   H40   S    
C26   H50   S    
C76   C87   A    
C7    Cl2   S    
C16   O32   S    
C25   H47   S    
C86   C96   S    
C24   C65   S    
C59   C69   S    
C84   H3    S    
C36   H81   S    
C48   C49   A    
C29   H61   S    
C24   C109  A    
C123  C124  A    
C66   O1    A    
C94   Cl8   S    
C80   C81   A    
C89   C91   A    
C127  Cl10  S    
C107  C108  A    
C3    C4    A    
C35   C45   A    
C11   C130  S    
C85   Cl7   S    
C103  C104  A    
C120  H32   S    
C35   C43   A    
C53   C114  S    
C21   H39   S    
C14   C44   S    
C129  C130  A    
N1    N2    A    
C125  Cl3   S    
C63   H12   S    
C2    O33   S    
C101  H13   S    
C45   Cl6   S    
Cr6   O9    S    
C102  O34   A    
Cr2   O12   S    
Cr1   O36   S    
C117  H9    S    
C56   C61   A    
C14   C19   A    
C93   H7    S    
C116  H19   S    
C111  H15   S    
C54   O31   S    
C77   C83   A    
C4    C5    A    
C107  H10   S    
C49   O26   S    
C8    H27   S    
C29   H60   S    
C6    C7    A    
C28   O27   S    
C62   H23   S    
C37   C78   S    
C41   O6    A    
C115  C119  A    
C50   C55   A    
C94   C97   A    
C116  C119  A    
Cr3   O15   S    
C102  O17   A    
C88   H4    S    
C33   H74   S    
Cr3   O36   S    
C22   H42   S    
C86   C88   A    
C51   C52   A    
C106  H11   S    
C31   H69   S    
C49   C55   A    
C117  C118  A    
C90   C119  S    
C30   H64   S    
C71   C75   A    
C113  C115  A    
C2    C37   A    
C89   H5    S    
C36   H80   S    
C37   C120  A    
C40   O37   A    
C105  O28   S    
C28   H59   S    
C66   C75   S    
C5    C128  A    
C42   O8    A    
C100  C101  A    
Cr6   O3    S    
C13   H28   S    
C108  C110  A    
Cr1   O1    S    
C92   H6    S    
C73   O21   S    
C53   O14   A    
C38   O38   A    
C94   C95   A    
C30   H63   S    
C79   H83   S    
Cr4   O38   S    
C25   H48   S    
C10   C11   A    
C113  C118  A    
C81   C91   S    
C33   H75   S    
C48   C52   A    
C38   C56   S    
C88   C89   A    
C62   C69   A    
C8    C10   A    
C82   C83   A    
C6    H26   S    
C70   O22   S    
C23   H46   S    
C68   H56   S    
C125  C127  A    
C28   H58   S    
Cr4   O5    S    
C14   C15   A    
C103  C112  S    
C126  O20   S    
C31   H68   S    
C122  C123  A    
C42   C99   S    
C43   C47   S    
C39   O2    A    
C71   H67   S    
C109  C120  A    
C47   N3    A    
C40   C77   S    
C104  H18   S    
