data_mof_unit_31166.cif
_audit_creation_date              2012-12-10T18:13:29-0500
_audit_creation_method            fapswitch 2.2
_symmetry_space_group_name_H-M    P1
_symmetry_Int_Tables_number       1
_space_group_crystal_system       triclinic
_cell_length_a                    12.567262
_cell_length_b                    13.10847
_cell_length_c                    16.499709
_cell_angle_alpha                 91.11758
_cell_angle_beta                  97.634113
_cell_angle_gamma                 97.18959
_cell_volume                      2671.04362289

loop_
_atom_site_label
_atom_site_type_symbol
_atom_type_description
_atom_site_fract_x
_atom_site_fract_y
_atom_site_fract_z
_atom_type_partial_charge
C1    C     C_R   0.559939 0.692241 0.515235 0.868185
C2    C     C_R   0.619954 0.501715 0.231620 -0.138346
C3    C     C_R   0.587906 0.536492 0.875972 -0.171850
C4    C     C_R   0.570251 0.486809 0.798569 0.137851
C5    C     C_R   0.397567 0.555776 0.771872 0.145493
C6    C     C_R   0.418065 0.605037 0.849023 -0.200908
C7    C     C_R   0.514125 0.598699 0.900247 0.101012
C8    C     C_2   0.608226 0.651821 0.040922 0.118362
C9    C     C_2   0.517825 0.629558 0.986629 -0.257088
C10   C     C_R   0.481044 0.508282 0.741747 -0.163415
C11   C     C_R   0.273276 0.041887 0.476553 0.252968
C12   C     C_R   0.515642 0.502957 0.349102 0.858615
C13   C     C_R   0.403778 0.197374 0.494511 -0.149506
C14   C     C_R   0.708114 0.846605 0.540949 0.142040
C15   C     C_R   0.734532 0.953418 0.554523 -0.095153
C16   C     C_R   0.654919 0.016743 0.557945 -0.223354
C17   C     C_R   0.545384 0.975270 0.554128 0.105297
C18   C     C_R   0.519098 0.867893 0.554931 0.066691
C19   C     C_R   0.459446 0.035927 0.539936 0.049682
C20   C     C_R   0.351747 0.988135 0.520348 0.067605
C21   C     C_R   0.327980 0.886659 0.543143 -0.188878
C22   C     C_R   0.412258 0.829817 0.566604 -0.196555
C23   C     C_R   0.439877 0.307850 0.490559 0.873338
C24   C     C_R   0.478453 0.141718 0.537942 -0.295357
C25   C     C_R   0.302507 0.145642 0.456927 0.085148
C26   C     C_R   0.597253 0.802675 0.539221 -0.194465
C27   C     C_R   0.894787 0.334320 0.600728 0.171388
C28   C     C_R   0.211295 0.628950 0.405122 -0.051122
C29   C     C_R   0.107567 0.648095 0.375868 -0.226741
C30   C     C_R   0.018905 0.592080 0.404031 0.244917
C31   C     C_R   0.036353 0.522498 0.468795 -0.045296
C32   C     C_R   0.143653 0.500900 0.491532 0.194744
C33   C     C_R   0.954332 0.471257 0.510609 -0.027751
C34   C     C_R   0.485108 0.499200 0.652217 0.836008
C35   C     C_R   0.977569 0.389816 0.563744 0.124083
C36   C     C_R   0.083159 0.367432 0.580432 -0.267267
C37   C     C_R   0.164625 0.423368 0.545785 -0.218973
C38   C     C_R   0.851408 0.501562 0.506253 -0.035659
C39   C     C_R   0.792035 0.363077 0.586693 -0.052031
C40   C     C_R   0.536668 0.537337 0.268557 -0.049989
C41   C     C_R   0.485787 0.619153 0.234962 -0.184458
C42   C     C_R   0.516480 0.663586 0.164509 -0.187475
C43   C     C_R   0.596935 0.625425 0.125799 0.164132
C44   C     C_R   0.649568 0.545225 0.160280 -0.118430
H1    H     H_    0.423961 0.650355 0.264130 0.152739
H2    H     H_    0.354561 0.641391 0.872115 0.145583
H3    H     H_    0.245593 0.850072 0.541579 0.192393
H4    H     H_    0.553361 0.181536 0.569180 0.170992
H5    H     H_    0.681747 0.098260 0.559792 0.167283
H6    H     H_    0.816626 0.990882 0.557594 0.191630
H7    H     H_    0.392277 0.754276 0.588890 0.178327
H8    H     H_    0.725931 0.320527 0.612469 0.149142
H9    H     H_    0.104732 0.307843 0.621608 0.203811
H10   H     H_    0.830947 0.570599 0.478029 0.179962
H11   H     H_    0.279791 0.669623 0.380906 0.162124
H12   H     H_    0.096105 0.702184 0.327678 0.203150
H13   H     H_    0.244084 0.403740 0.562442 0.217368
H14   H     H_    0.440418 0.613338 0.009690 0.144267
H15   H     H_    0.709976 0.513154 0.130140 0.136175
H16   H     H_    0.655565 0.520738 0.919380 0.145474
H17   H     H_    0.661701 0.440106 0.257811 0.169944
H18   H     H_    0.474512 0.724946 0.138087 0.139763
N1    N     N_R   0.774070 0.445420 0.541180 -0.126579
N2    N     N_R   0.226730 0.554050 0.459240 -0.132454
O1    O     O_R   0.631480 0.627510 0.519670 -0.620546
O2    O     O_R   0.455770 0.662400 0.493360 -0.614815
O3    O     O_R   0.598240 0.480510 0.398910 -0.579168
O4    O     O_R   0.422540 0.515400 0.372600 -0.615615
O5    O     O_R   0.544230 0.337600 0.506640 -0.613572
O6    O     O_R   0.368520 0.372490 0.480330 -0.623256
O7    O     O_R   0.577460 0.484600 0.627400 -0.617163
O8    O     O_R   0.401760 0.519490 0.601090 -0.624143
Zn1   Zn    Zn3+2 0.617320 0.476700 0.517570 0.942750
Zn2   Zn    Zn3+2 0.382680 0.523300 0.482430 0.917418
C45   C     C_3   0.232086 0.194435 0.390247 -0.366353
C46   C     C_3   0.126102 0.219762 0.417115 -0.710777
H19   H     H_    0.056803 0.165087 0.387143 0.270887
H20   H     H_    0.128002 0.214833 0.484271 0.270207
H21   H     H_    0.111329 0.298283 0.398588 0.239961
H22   H     H_    0.276040 0.264565 0.367819 0.204297
H23   H     H_    0.213512 0.141012 0.335631 0.222695
Br1   Br    Br    0.134210 0.968321 0.431979 -0.611774
C47   C     C_3   0.796444 0.780897 0.526017 -0.412801
C48   C     C_3   0.910345 0.837271 0.524654 -0.803645
H24   H     H_    0.909536 0.894212 0.475707 0.297902
H25   H     H_    0.942590 0.875825 0.585024 0.263348
H26   H     H_    0.965325 0.780810 0.511429 0.269905
H27   H     H_    0.803202 0.723924 0.574817 0.227365
H28   H     H_    0.772506 0.740186 0.465412 0.249064
C49   C     C_3   0.642932 0.406560 0.781013 -0.380378
C50   C     C_3   0.648503 0.325009 0.846081 -0.862760
H29   H     H_    0.694742 0.357622 0.904774 0.252482
H30   H     H_    0.565656 0.292150 0.856234 0.264619
H31   H     H_    0.690626 0.261818 0.825047 0.270363
H32   H     H_    0.611808 0.362604 0.722929 0.221806
H33   H     H_    0.725793 0.445198 0.776762 0.219113
Br2   Br    Br    0.915315 0.219064 0.668788 -0.597719
Br3   Br    Br    0.883976 0.599375 0.335042 -0.587708
C51   C     C_3   0.280093 0.534746 0.734434 -0.361844
C52   C     C_3   0.238198 0.627092 0.691916 -0.827631
H34   H     H_    0.260289 0.697955 0.731656 0.249477
H35   H     H_    0.270789 0.638856 0.633426 0.269935
H36   H     H_    0.148601 0.612339 0.677783 0.247334
H37   H     H_    0.267047 0.466216 0.692962 0.208964
H38   H     H_    0.229727 0.513155 0.783556 0.199699
C53   C     C_3   0.718843 0.688308 0.017125 -0.410933
C54   C     C_3   0.771121 0.785553 0.066562 -0.798390
H39   H     H_    0.718189 0.847341 0.057335 0.257470
H40   H     H_    0.785553 0.769722 0.132751 0.277620
H41   H     H_    0.850171 0.812693 0.046087 0.248834
H42   H     H_    0.772316 0.627241 0.028058 0.196823
H43   H     H_    0.712779 0.706601 0.951343 0.222063

loop_
_geom_bond_atom_site_label_1
_geom_bond_atom_site_label_2
_ccdc_geom_bond_type
C41   C42   A    
C23   O5    A    
C19   C20   A    
C18   C26   A    
C8    C43   S    
C45   C46   S    
C49   H32   S    
C53   H43   S    
C12   O4    A    
C28   C29   A    
C47   C48   S    
C36   C37   A    
C48   H25   S    
C3    C7    A    
C5    C6    A    
C53   C54   S    
C11   C25   A    
C44   H15   S    
O4    Zn2   S    
C15   C16   A    
O2    Zn2   S    
O1    Zn1   S    
C13   C23   S    
C9    H14   S    
C15   H6    S    
C36   H9    S    
C33   C35   A    
C35   C36   A    
C2    C44   A    
C16   C17   A    
O6    Zn2   S    
C1    O1    A    
C54   H39   S    
C48   H26   S    
O5    Zn1   S    
O3    Zn1   S    
C45   H22   S    
C42   H18   S    
C2    H17   S    
C3    H16   S    
C47   H27   S    
C21   C22   A    
C54   H40   S    
C23   O6    A    
C13   C25   A    
C14   C47   S    
C51   H38   S    
C52   H35   S    
C28   H11   S    
C17   C18   A    
C4    C49   S    
C53   H42   S    
C11   Br1   S    
C47   H28   S    
C12   O3    A    
C11   C20   A    
C24   H4    S    
C5    C51   S    
C46   H19   S    
C32   N2    A    
O8    Zn2   S    
C27   C39   A    
C50   H29   S    
O7    Zn1   S    
C8    C9    D    
N1    Zn1   S    
C27   C35   A    
C52   H36   S    
C14   C26   A    
C13   C24   A    
C39   H8    S    
C25   C45   S    
C12   C40   S    
C43   C44   A    
C29   C30   A    
C50   H30   S    
C51   C52   S    
C38   H10   S    
C31   C33   A    
C1    O2    A    
C10   C34   S    
C32   C37   A    
C48   H24   S    
C28   N2    A    
C40   C41   A    
C1    C26   S    
C54   H41   S    
C42   C43   A    
C4    C10   A    
C3    C4    A    
C34   O8    A    
C16   H5    S    
C38   N1    A    
C7    C9    S    
C27   Br2   S    
N2    Zn2   S    
C6    H2    S    
C18   C22   A    
C31   C32   A    
C45   H23   S    
C46   H20   S    
C8    C53   S    
C49   H33   S    
C6    C7    A    
C29   H12   S    
C39   N1    A    
C30   Br3   S    
C33   C38   A    
C19   C24   A    
C5    C10   A    
C50   H31   S    
C49   C50   S    
C30   C31   A    
C52   H34   S    
C17   C19   A    
C51   H37   S    
C2    C40   A    
C46   H21   S    
C20   C21   A    
C41   H1    S    
C14   C15   A    
C34   O7    A    
C37   H13   S    
C22   H7    S    
C21   H3    S    
