data_mof_unit_32591.cif
_audit_creation_date              2012-12-10T17:48:19-0500
_audit_creation_method            fapswitch 2.2
_symmetry_space_group_name_H-M    P1
_symmetry_Int_Tables_number       1
_space_group_crystal_system       triclinic
_cell_length_a                    13.866979
_cell_length_b                    14.762262
_cell_length_c                    14.732069
_cell_angle_alpha                 114.723202
_cell_angle_beta                  107.145991
_cell_angle_gamma                 71.677965
_cell_volume                      2553.39424759

loop_
_atom_site_label
_atom_site_type_symbol
_atom_type_description
_atom_site_fract_x
_atom_site_fract_y
_atom_site_fract_z
_atom_type_partial_charge
C1    C     C_R   0.519427 0.118026 0.688660 0.820337
C2    C     C_R   0.480546 0.881973 0.311339 0.820331
C3    C     C_R   0.517740 0.358883 0.923305 0.054132
C4    C     C_R   0.481505 0.641115 0.076704 0.054031
C5    C     C_R   0.561446 0.318183 0.001752 -0.005774
C6    C     C_R   0.437959 0.681832 0.998265 -0.005610
C7    C     C_R   0.492236 0.466984 0.948030 0.004977
C8    C     C_R   0.506810 0.533022 0.051973 0.004610
C9    C     C_R   0.543853 0.489001 0.127980 -0.288436
C10   C     C_R   0.455080 0.511016 0.872022 -0.288745
C11   C     C_R   0.570816 0.383731 0.103807 0.488186
C12   C     C_R   0.428314 0.616302 0.896216 0.488162
C13   C     C_R   0.317351 0.305630 0.335928 -0.214243
C14   C     C_R   0.682615 0.694408 0.664125 -0.214293
C15   C     C_R   0.347712 0.219432 0.365282 0.667480
C16   C     C_R   0.652246 0.780602 0.634768 0.667379
C17   C     C_R   0.489605 0.283618 0.486892 -0.109229
C18   C     C_R   0.510464 0.716331 0.513037 -0.109234
C19   C     C_R   0.460645 0.374751 0.464241 -0.043064
C20   C     C_R   0.539473 0.625168 0.535645 -0.043036
C21   C     C_R   0.371780 0.385134 0.388253 0.040732
C22   C     C_R   0.628285 0.614830 0.611701 0.041052
C23   C     C_R   0.687222 0.986057 0.503887 0.816846
C24   C     C_R   0.312774 0.013937 0.496098 0.816775
C25   C     C_R   0.517199 0.454982 0.513175 0.109595
C26   C     C_R   0.482987 0.544884 0.486631 0.110072
C27   C     C_R   0.393049 0.551801 0.412306 -0.255031
C28   C     C_R   0.607186 0.448030 0.587439 -0.256759
C29   C     C_R   0.339493 0.474104 0.364362 -0.211143
C30   C     C_R   0.660638 0.525814 0.635518 -0.210867
C31   C     C_1   0.206957 0.023430 0.494144 -0.191397
C32   C     C_1   0.793022 0.976529 0.505757 -0.191405
C33   C     C_2   0.012163 0.036673 0.491654 -0.025409
C34   C     C_2   0.987770 0.963236 0.508055 -0.025458
C35   C     C_1   0.881972 0.969179 0.507093 -0.055087
C36   C     C_1   0.117985 0.030757 0.492714 -0.055139
C37   C     C_R   0.535324 0.183799 0.797734 -0.148741
C38   C     C_R   0.464501 0.816204 0.202267 -0.148750
C39   C     C_R   0.594812 0.212161 0.977527 -0.294067
C40   C     C_R   0.405079 0.787878 0.022481 -0.293568
C41   C     C_R   0.588257 0.144220 0.875723 0.486242
C42   C     C_R   0.411798 0.855834 0.124277 0.486057
C43   C     C_R   0.500046 0.289672 0.822605 -0.311175
C44   C     C_R   0.499378 0.710293 0.177394 -0.311166
Cu1   Cu    Cu3+1 0.526370 0.916390 0.524860 0.989137
Cu2   Cu    Cu3+1 0.473630 0.083610 0.475140 0.989158
H1    H     H_    0.361401 0.616585 0.388415 0.144736
H2    H     H_    0.638890 0.383193 0.611245 0.145084
H3    H     H_    0.541919 0.683769 0.238699 0.174524
H4    H     H_    0.457349 0.316118 0.761277 0.174438
H5    H     H_    0.627777 0.182087 0.038216 0.184541
H6    H     H_    0.372387 0.817974 0.961792 0.184934
H7    H     H_    0.551846 0.533598 0.208074 0.160080
H8    H     H_    0.446869 0.466430 0.791907 0.159611
H9    H     H_    0.272133 0.484938 0.306870 0.164751
H10   H     H_    0.727975 0.514997 0.693033 0.164879
H11   H     H_    0.444570 0.729943 0.455980 0.158052
H12   H     H_    0.555520 0.269994 0.543927 0.158078
N1    N     N_R   0.433980 0.209250 0.437830 -0.219026
N2    N     N_R   0.566020 0.790750 0.562170 -0.219067
O1    O     O_R   0.534760 0.019630 0.662610 -0.490121
O2    O     O_R   0.465240 0.980370 0.337390 -0.490062
O3    O     O_R   0.490220 0.160840 0.620610 -0.610344
O4    O     O_R   0.509780 0.839160 0.379390 -0.610348
O5    O     O_R   0.663260 0.919400 0.523940 -0.550686
O6    O     O_R   0.336740 0.080600 0.476060 -0.550644
O7    O     O_R   0.618720 0.060610 0.481950 -0.582835
O8    O     O_R   0.381280 0.939390 0.518050 -0.582845
C45   C     C_R   0.066838 0.875998 0.529930 0.139904
C46   C     C_R   0.058035 0.775043 0.468551 -0.158067
C47   C     C_R   0.131898 0.692737 0.488969 -0.156017
C48   C     C_R   0.214434 0.710515 0.571272 -0.086442
C49   C     C_R   0.223138 0.810634 0.633447 -0.125791
C50   C     C_R   0.149499 0.893123 0.613322 -0.143500
H13   H     H_    0.994546 0.760137 0.404434 0.125346
H14   H     H_    0.125152 0.615150 0.440972 0.129709
H15   H     H_    0.271410 0.646715 0.587003 0.159762
H16   H     H_    0.286668 0.824485 0.697550 0.141709
H17   H     H_    0.156632 0.970268 0.662950 0.124880
C51   C     C_R   0.933089 0.123901 0.469748 0.139869
C52   C     C_R   0.941959 0.224860 0.531019 -0.158121
C53   C     C_R   0.868088 0.307158 0.510585 -0.156082
C54   C     C_R   0.785475 0.289368 0.428372 -0.086305
C55   C     C_R   0.776699 0.189247 0.366300 -0.125913
C56   C     C_R   0.850349 0.106766 0.386438 -0.143551
H18   H     H_    0.005502 0.239781 0.595070 0.125361
H19   H     H_    0.874885 0.384747 0.558504 0.129690
H20   H     H_    0.728490 0.353158 0.412628 0.160098
H21   H     H_    0.713099 0.175398 0.302272 0.141795
H22   H     H_    0.843160 0.029618 0.336879 0.124901
C57   C     C_R   0.234044 0.308391 0.246219 0.139456
C58   C     C_R   0.254216 0.249360 0.147828 -0.135324
C59   C     C_R   0.176319 0.252476 0.062894 -0.169942
C60   C     C_R   0.078183 0.314914 0.075773 -0.107142
C61   C     C_R   0.057826 0.374511 0.173631 -0.137300
C62   C     C_R   0.135491 0.371567 0.258770 -0.197614
H23   H     H_    0.330064 0.200904 0.137061 0.138197
H24   H     H_    0.192044 0.206494 0.987105 0.128747
H25   H     H_    0.017969 0.317227 0.009934 0.125056
H26   H     H_    0.981887 0.422963 0.183501 0.133618
H27   H     H_    0.119080 0.417900 0.334315 0.123792
C63   C     C_R   0.765825 0.691753 0.753931 0.139336
C64   C     C_R   0.864386 0.628525 0.741546 -0.197666
C65   C     C_R   0.941983 0.625763 0.826774 -0.137194
C66   C     C_R   0.921558 0.685615 0.924560 -0.107199
C67   C     C_R   0.823423 0.748130 0.937277 -0.170100
C68   C     C_R   0.745593 0.751061 0.852252 -0.134562
H28   H     H_    0.880860 0.582012 0.666057 0.123814
H29   H     H_    0.017924 0.577257 0.817029 0.133637
H30   H     H_    0.981721 0.683443 0.990468 0.125081
H31   H     H_    0.807649 0.794318 0.013010 0.128751
H32   H     H_    0.669747 0.799569 0.862888 0.138497
O9    O     O_3   0.610554 0.345611 0.181834 -0.594632
C69   C     C_3   0.527270 0.335715 0.210827 -0.351032
H33   H     H_    0.489718 0.274603 0.149545 0.163245
H34   H     H_    0.469033 0.409017 0.231073 0.186045
H35   H     H_    0.557242 0.313945 0.279133 0.193027
O10   O     O_3   0.388516 0.654552 0.818279 -0.594767
C70   C     C_3   0.471902 0.662733 0.788037 -0.351220
H36   H     H_    0.528044 0.588251 0.765617 0.186713
H37   H     H_    0.511949 0.721904 0.849421 0.163413
H38   H     H_    0.441588 0.686205 0.720790 0.192476
O11   O     O_3   0.372414 0.960693 0.149201 -0.538875
C71   C     C_3   0.275055 0.982446 0.087222 -0.278116
H39   H     H_    0.232563 0.059985 0.127135 0.220495
H40   H     H_    0.225324 0.929124 0.071385 0.142091
H41   H     H_    0.285276 0.982831 0.015412 0.142855
O12   O     O_3   0.628010 0.039404 0.850775 -0.538754
C72   C     C_3   0.725395 0.017901 0.912804 -0.278270
H42   H     H_    0.774886 0.071463 0.928714 0.141999
H43   H     H_    0.768101 0.940459 0.872895 0.220426
H44   H     H_    0.715230 0.017389 0.984577 0.142925
O13   O     O_3   0.704154 0.859666 0.683590 -0.531996
C73   C     C_3   0.805992 0.826877 0.663994 -0.297412
H45   H     H_    0.828258 0.892477 0.663494 0.190712
H46   H     H_    0.814499 0.763632 0.589284 0.138220
H47   H     H_    0.861758 0.805252 0.726788 0.163949
O14   O     O_3   0.295790 0.140374 0.316481 -0.532207
C74   C     C_3   0.193920 0.173184 0.336000 -0.297635
H48   H     H_    0.138195 0.194602 0.273070 0.164057
H49   H     H_    0.185320 0.236577 0.410605 0.138111
H50   H     H_    0.171680 0.107652 0.336669 0.190788

loop_
_geom_bond_atom_site_label_1
_geom_bond_atom_site_label_2
_ccdc_geom_bond_type
C44   H3    S    
C7    C10   A    
C39   H5    S    
C66   H30   S    
Cu1   N2    S    
C59   C60   A    
Cu2   N1    S    
C27   C29   A    
C49   C50   A    
C61   C62   A    
C4    C8    A    
O12   C72   S    
C73   H47   S    
C69   H33   S    
C7    C8    A    
C39   C41   A    
Cu1   Cu2   S    
C25   C28   A    
C3    C43   A    
C26   C27   A    
C48   H15   S    
C20   C26   A    
Cu2   O2    S    
C19   C21   A    
Cu2   O6    S    
C3    C7    A    
C6    C12   A    
C65   H29   S    
C74   H50   S    
C14   C63   S    
C67   C68   A    
C53   H19   S    
C33   C36   S    
C34   C35   S    
C16   N2    A    
C23   O7    A    
O10   C70   S    
C57   C62   A    
C8    C9    A    
C42   O11   S    
C49   H16   S    
C64   H28   S    
C18   C20   A    
C52   H18   S    
C24   O6    A    
C17   H12   S    
C15   O14   S    
Cu1   O1    S    
C40   C42   A    
C54   H20   S    
C62   H27   S    
C13   C57   S    
C41   O12   S    
C63   C64   A    
C11   O9    S    
C16   O13   S    
C1    O3    A    
C65   C66   A    
C2    O4    A    
C58   H23   S    
C52   C53   A    
C67   H31   S    
C70   H37   S    
C23   O5    A    
C56   H22   S    
C32   C35   T    
O11   C71   S    
C55   C56   A    
C4    C6    A    
C57   C58   A    
C61   H26   S    
C51   C52   A    
C73   H46   S    
C4    C44   A    
C25   C26   A    
C40   H6    S    
C30   H10   S    
C37   C43   A    
C38   C44   A    
C51   C56   A    
C2    C38   S    
C18   H11   S    
C54   C55   A    
C70   H36   S    
Cu1   O8    S    
C33   C34   D    
C13   C21   A    
C45   C50   A    
C33   C51   S    
C68   H32   S    
C9    C11   A    
C34   C45   S    
C46   C47   A    
C10   C12   A    
C17   N1    A    
C71   H41   S    
C12   O10   S    
C18   N2    A    
C20   C22   A    
C60   C61   A    
C50   H17   S    
C13   C15   A    
Cu1   O5    S    
O13   C73   S    
C14   C16   A    
C9    H7    S    
C55   H21   S    
C63   C68   A    
C46   H13   S    
C71   H40   S    
O9    C69   S    
C70   H38   S    
C27   H1    S    
C28   H2    S    
C22   C30   A    
C15   N1    A    
C48   C49   A    
C3    C5    A    
C1    O1    A    
C69   H34   S    
C74   H48   S    
C43   H4    S    
C5    C11   A    
C73   H45   S    
C1    C37   S    
C29   H9    S    
C66   C67   A    
Cu1   O4    S    
Cu2   O3    S    
C23   C32   S    
C72   H44   S    
C5    C39   A    
C72   H42   S    
C24   C31   S    
C47   C48   A    
C74   H49   S    
C14   C22   A    
C47   H14   S    
C21   C29   A    
C60   H25   S    
C28   C30   A    
C58   C59   A    
C17   C19   A    
C6    C40   A    
C37   C41   A    
C45   C46   A    
C10   H8    S    
C69   H35   S    
O14   C74   S    
C24   O8    A    
C19   C25   A    
C38   C42   A    
Cu2   O7    S    
C53   C54   A    
C64   C65   A    
C31   C36   T    
C59   H24   S    
C2    O2    A    
C71   H39   S    
C72   H43   S    
