data_mof_unit_27413.cif
_audit_creation_date              2013-03-05T16:48:11-0500
_audit_creation_method            fapswitch 2.2
_symmetry_space_group_name_H-M    P1
_symmetry_Int_Tables_number       1
_space_group_crystal_system       triclinic
_cell_length_a                    10.916835
_cell_length_b                    12.427154
_cell_length_c                    13.813877
_cell_angle_alpha                 118.391178
_cell_angle_beta                  77.956016
_cell_angle_gamma                 100.021607
_cell_volume                      1606.25706815

loop_
_atom_site_label
_atom_site_type_symbol
_atom_site_description
_atom_site_fract_x
_atom_site_fract_y
_atom_site_fract_z
_atom_type_partial_charge
O1    O     O_R   0.536940 0.972510 0.318130 -0.581208
O2    O     O_R   0.487330 0.806530 0.359650 -0.587059
C1    C     C_R   0.524849 0.853926 0.288585 0.818893
O3    O     O_R   0.705160 0.082990 0.479250 -0.557289
O4    O     O_R   0.655550 0.917010 0.520760 -0.617424
C2    C     C_R   0.735800 0.000137 0.502605 0.775517
Cu1   Cu    Cu3+1 0.529370 0.098270 0.475420 0.995576
Cu2   Cu    Cu3+1 0.470630 0.901730 0.524580 1.026669
O5    O     O_R   0.512670 0.193470 0.640350 -0.552074
O6    O     O_R   0.463060 0.027490 0.681870 -0.537157
O7    O     O_R   0.344450 0.082990 0.479240 -0.590877
O8    O     O_R   0.294840 0.917010 0.520750 -0.523321
C3    C     C_R   0.488116 0.145505 0.711417 0.848052
C4    C     C_R   0.262930 0.003266 0.501932 0.831795
H1    H     H_    0.662383 0.718587 0.794989 0.171769
C5    C     C_R   0.707163 0.886198 0.780860 -0.103065
H2    H     H_    0.661922 0.941807 0.864015 0.165883
C6    C     C_R   0.768041 0.941059 0.713822 -0.074274
H3    H     H_    0.769589 0.039526 0.746017 0.128569
C7    C     C_R   0.831731 0.869696 0.607695 0.103258
C8    C     C_R   0.832438 0.743074 0.568995 -0.083594
H4    H     H_    0.883387 0.687288 0.488264 0.179627
C9    C     C_R   0.770464 0.688648 0.635913 -0.041697
H5    H     H_    0.773248 0.591416 0.605873 0.200981
C10   C     C_R   0.708228 0.760126 0.742008 -0.105715
C11   C     C_R   0.042297 0.929740 0.537224 -0.131644
H6    H     H_    0.074817 0.871976 0.563330 0.237137
C12   C     C_R   0.128215 0.007203 0.503122 -0.089417
C13   C     C_R   0.080883 0.085501 0.473696 0.058470
C14   C     C_R   0.953929 0.072719 0.467037 -0.129723
H7    H     H_    0.921314 0.126288 0.435765 0.200413
C15   C     C_R   0.868658 0.999576 0.505404 -0.081039
C16   C     C_R   0.913308 0.930599 0.545429 -0.021382
C17   C     C_R   0.118937 0.303493 0.502041 0.077075
C18   C     C_R   0.172262 0.385143 0.457058 0.312583
C19   C     C_R   0.278420 0.352645 0.375613 -0.138516
H8    H     H_    0.328857 0.418729 0.348590 0.225889
C20   C     C_R   0.318535 0.234988 0.327892 -0.087407
H9    H     H_    0.401188 0.208093 0.266769 0.215082
C21   C     C_R   0.248732 0.147100 0.354917 -0.091863
H10   H     H_    0.273048 0.053276 0.307755 0.182976
C22   C     C_R   0.155199 0.181531 0.447189 0.003720
C23   C     C_R   0.349021 0.297100 0.011305 0.349155
C24   C     C_R   0.475534 0.230122 0.831136 -0.183329
C25   C     C_R   0.686816 0.792764 0.119710 0.120949
C26   C     C_R   0.734155 0.708078 0.013820 -0.139651
C27   C     C_R   0.668721 0.595192 0.960622 -0.182242
C28   C     C_R   0.549806 0.566061 0.010263 0.100774
C29   C     C_R   0.491711 0.659371 0.110695 -0.032969
C30   C     C_R   0.489721 0.445301 0.966802 0.042267
C31   C     C_R   0.379380 0.418910 0.028591 -0.100419
C32   C     C_R   0.311067 0.514892 0.114169 0.171759
C33   C     C_R   0.363943 0.636382 0.148949 0.107819
C34   C     C_R   0.537638 0.347279 0.867162 -0.217314
C35   C     C_R   0.397708 0.200709 0.911342 0.152838
C36   C     C_R   0.564108 0.770809 0.169744 -0.114370
H11   H     H_    0.621179 0.358080 0.814640 0.187069
H12   H     H_    0.716789 0.531097 0.882980 0.177608
H13   H     H_    0.827515 0.725734 0.975608 0.194848
C37   C     C_R   0.662198 0.317272 0.301725 -0.222913
H14   H     H_    0.662094 0.133937 0.275995 0.180490
H15   H     H_    0.706605 0.517969 0.269097 0.173855
H16   H     H_    0.716076 0.298831 0.220926 0.176765
N1    N     N_R   0.573890 0.246290 0.438210 -0.198956
C38   C     C_R   0.323928 0.754022 0.639362 0.577225
C39   C     C_R   0.302296 0.661645 0.672438 -0.207005
C40   C     C_R   0.374202 0.563504 0.619887 -0.242519
C41   C     C_R   0.473647 0.556910 0.535466 -0.004554
C42   C     C_R   0.498035 0.654027 0.505367 0.234157
C43   C     C_R   0.540962 0.450215 0.473662 -0.069366
C44   C     C_R   0.615180 0.431522 0.371927 0.135938
C45   C     C_R   0.642797 0.528108 0.343881 -0.213657
C46   C     C_R   0.590600 0.639944 0.413105 -0.165252
C47   C     C_R   0.539159 0.362402 0.511223 0.284792
C48   C     C_R   0.633762 0.223794 0.334136 0.038384
N2    N     N_R   0.426890 0.754320 0.561170 -0.263354
H17   H     H_    0.343541 0.487680 0.639560 0.195824
H18   H     H_    0.221872 0.660373 0.733107 0.207956
H19   H     H_    0.622295 0.711434 0.389599 0.202549
I1    I     I_    0.400399 0.026516 0.907452 -0.213079
I2    I     I_    0.122094 0.475802 0.180051 -0.182051
N3    N     N_R   0.326234 0.279922 0.107669 0.123939
O9    O     O_R   0.422322 0.306455 0.159236 -0.437274
O10   O     O_R   0.229589 0.209770 0.124180 -0.307512
I3    I     I_    0.820635 0.938214 0.201116 -0.345496
I4    I     I_    0.241005 0.779975 0.228700 -0.307698
I5    I     I_    0.569383 0.444670 0.678353 -0.412478
N4    N     N_R   0.222480 0.830759 0.673857 0.125863
O11   O     O_R   0.107208 0.782407 0.681226 -0.342714
O12   O     O_R   0.240813 0.949497 0.722157 -0.338796
I6    I     I_    0.996469 0.366186 0.657952 -0.314318
N5    N     N_R   0.118225 0.497332 0.489013 0.148843
O13   O     O_R   0.999498 0.508011 0.528325 -0.329909
O14   O     O_R   0.178317 0.576085 0.454990 -0.356660

loop_
_geom_bond_atom_site_label_1
_geom_bond_atom_site_label_2
_geom_bond_distance
_ccdc_geom_bond_type
C2    C15   1.460260 S    
C21   H10   1.080532 S    
C13   C22   1.473445 S    
C18   C19   1.399515 A    
C17   C22   1.421105 A    
Cu1   Cu2   2.772784 S    
C25   C26   1.387141 A    
H14   C48   1.072990 S    
Cu1   O7    1.986408 S    
C11   H6    1.076895 S    
C30   C34   1.406718 A    
C38   N2    1.387729 A    
C37   H16   1.083481 S    
O4    C2    1.318046 A    
C12   C13   1.420493 A    
C20   C21   1.375607 A    
C6    H3    1.083429 S    
C14   H7    1.084769 S    
C26   H13   1.083192 S    
O7    C4    1.320553 A    
H1    C10   1.081249 S    
Cu2   N2    2.077179 S    
C42   N2    1.387172 A    
C17   C18   1.413371 A    
O5    C3    1.334893 A    
C17   I6    2.144337 S    
C25   C36   1.418583 A    
C5    H2    1.080798 S    
C40   H17   1.081465 S    
C43   C47   1.409678 A    
C9    H5    1.078810 S    
C42   C46   1.409992 A    
C33   I4    2.132166 S    
C47   I5    2.107159 S    
C18   N5    1.441852 S    
C21   C22   1.393067 A    
C39   C40   1.372616 A    
C8    H4    1.083409 S    
O3    Cu1   1.974954 S    
C39   H18   1.083585 S    
C31   C32   1.406109 A    
O3    C2    1.325486 A    
C41   C42   1.421090 A    
C37   C44   1.398683 A    
C40   C41   1.398938 A    
O1    C1    1.318520 A    
C25   I3    2.121201 S    
C13   C14   1.384623 A    
C1    C36   1.481058 S    
C11   C16   1.390442 A    
C27   C28   1.409808 A    
Cu2   O8    1.974953 S    
N5    O14   1.301686 A    
C30   C31   1.409514 A    
C46   H19   1.065316 S    
H15   C45   1.083868 S    
C5    C6    1.396404 A    
C7    C8    1.401591 A    
C43   C44   1.401894 A    
C7    C16   1.473280 S    
C23   C35   1.402315 A    
C28   C29   1.424949 A    
O8    C4    1.330665 A    
C38   C39   1.393502 A    
N3    O10   1.301437 A    
C8    C9    1.394279 A    
C32   C33   1.402176 A    
C38   N4    1.441588 S    
C5    C10   1.395302 A    
Cu1   O5    1.990499 S    
C26   C27   1.381389 A    
C19   H8    1.079500 S    
O1    Cu1   1.977639 S    
Cu2   O6    1.977638 S    
O2    Cu2   1.990500 S    
N4    O12   1.295853 A    
C45   C46   1.398238 A    
O6    C3    1.315305 A    
O4    Cu2   1.986409 S    
C29   C36   1.421858 A    
C37   C48   1.399068 A    
C11   C12   1.400335 A    
C15   C16   1.409498 A    
C19   C20   1.396415 A    
O2    C1    1.332844 A    
C44   C45   1.396144 A    
C27   H12   1.076255 S    
C14   C15   1.389744 A    
C35   I1    2.144908 S    
C24   C35   1.402574 A    
C23   C31   1.404624 A    
C20   H9    1.075845 S    
C29   C33   1.415506 A    
C28   C30   1.416944 A    
N5    O13   1.300009 A    
N1    C48   1.364355 A    
C6    C7    1.404270 A    
C9    C10   1.398231 A    
C32   I2    2.146683 S    
Cu1   N1    2.089931 S    
C24   C34   1.391139 A    
N4    O11   1.302512 A    
C41   C43   1.423993 A    
N3    O9    1.297928 A    
C23   N3    1.411732 S    
N1    C47   1.374743 A    
C4    C12   1.476380 S    
C3    C24   1.470141 S    
C34   H11   1.072403 S    
