data_mof_unit_47268.cif
_audit_creation_date              2012-12-11T15:34:55-0500
_audit_creation_method            fapswitch 2.2
_symmetry_space_group_name_H-M    P1
_symmetry_Int_Tables_number       1
_space_group_crystal_system       triclinic
_cell_length_a                    30.279679
_cell_length_b                    7.298159
_cell_length_c                    26.161351
_cell_angle_alpha                 89.911969
_cell_angle_beta                  111.920415
_cell_angle_gamma                 89.878511
_cell_volume                      5363.29284942

loop_
_atom_site_label
_atom_site_type_symbol
_atom_type_description
_atom_site_fract_x
_atom_site_fract_y
_atom_site_fract_z
_atom_type_partial_charge
O1    O     O_R   0.295360 0.592990 0.320420 -0.538241
O2    O     O_R   0.704640 0.407010 0.679580 -0.537297
O3    O     O_R   0.204640 0.092990 0.179580 -0.538880
O4    O     O_R   0.795360 0.907010 0.820420 -0.537559
O5    O     O_R   0.294060 0.265620 0.213230 -0.548265
O6    O     O_R   0.705940 0.734380 0.786770 -0.547837
O7    O     O_R   0.205940 0.765620 0.286770 -0.543541
O8    O     O_R   0.794060 0.234380 0.713230 -0.547821
C1    C     C_R   0.304006 0.432083 0.199149 0.732109
C2    C     C_R   0.694855 0.567142 0.799016 0.750128
C3    C     C_R   0.195975 0.932443 0.300916 0.729785
C4    C     C_R   0.805316 0.066972 0.701225 0.749457
O9    O     O_R   0.300850 0.263360 0.322080 -0.536782
O10   O     O_R   0.699150 0.736640 0.677920 -0.541462
O11   O     O_R   0.199150 0.763360 0.177920 -0.539673
O12   O     O_R   0.800850 0.236640 0.822080 -0.541068
O13   O     O_R   0.211480 0.091820 0.289210 -0.517279
O14   O     O_R   0.788520 0.908180 0.710790 -0.506127
O15   O     O_R   0.288520 0.591820 0.210790 -0.516378
O16   O     O_R   0.711480 0.408180 0.789210 -0.506123
C5    C     C_R   0.312775 0.431257 0.343307 0.704085
C6    C     C_R   0.687171 0.568373 0.656786 0.697225
C7    C     C_R   0.187543 0.931541 0.156363 0.700753
C8    C     C_R   0.812994 0.067759 0.843088 0.696759
O17   O     O_3   0.220670 0.426670 0.239090 -0.377117
O18   O     O_3   0.779330 0.573330 0.760910 -0.369792
O19   O     O_3   0.279330 0.926670 0.260910 -0.377161
O20   O     O_3   0.720670 0.073330 0.739090 -0.370021
V1    V     V_3+5 0.255440 0.152290 0.252020 1.402363
V2    V     V_3+5 0.744560 0.847710 0.747980 1.434013
V3    V     V_3+5 0.244560 0.652290 0.247980 1.397942
V4    V     V_3+5 0.755440 0.347710 0.752020 1.434049
C9    C     C_R   0.849188 0.051912 0.899658 -0.159770
C10   C     C_R   0.151300 0.938188 0.099228 -0.157862
C11   C     C_R   0.651376 0.554731 0.599966 -0.159773
C12   C     C_R   0.349512 0.437661 0.399877 -0.159445
C13   C     C_R   0.869030 0.945903 0.993831 0.210711
C14   C     C_R   0.131280 0.926322 0.999898 0.210116
C15   C     C_R   0.632196 0.456086 0.505322 0.210827
C16   C     C_R   0.370397 0.422877 0.499191 0.210383
C17   C     C_R   0.834908 0.987308 0.941803 0.119083
C18   C     C_R   0.165245 0.912914 0.054042 0.104977
C19   C     C_R   0.666024 0.492001 0.557921 0.118344
C20   C     C_R   0.336260 0.408226 0.445370 0.102235
C21   C     C_R   0.898175 0.079117 0.910367 0.090403
C22   C     C_R   0.102722 0.969081 0.089670 0.102824
C23   C     C_R   0.602385 0.584743 0.588657 0.091190
C24   C     C_R   0.397648 0.474641 0.408537 0.105561
C25   C     C_R   0.933498 0.012054 0.960475 0.031843
C26   C     C_R   0.067339 0.958943 0.035513 0.036036
C27   C     C_R   0.567326 0.521336 0.538035 0.032759
C28   C     C_R   0.433545 0.466308 0.462626 0.034998
C29   C     C_R   0.917950 0.954389 0.003031 0.033460
C30   C     C_R   0.082586 0.952757 0.990577 0.038864
C31   C     C_R   0.583167 0.467042 0.495489 0.033579
C32   C     C_R   0.418701 0.454800 0.507918 0.038755
C33   C     C_R   0.983570 0.998192 0.970247 0.090839
C34   C     C_R   0.017197 0.960281 0.024476 0.095475
C35   C     C_R   0.517275 0.506837 0.527964 0.091524
C36   C     C_R   0.483703 0.471990 0.473490 0.094427
C37   C     C_R   0.999687 0.904750 0.064818 -0.166188
C38   C     C_R   0.000771 0.000247 0.927036 -0.185103
C39   C     C_R   0.501510 0.422663 0.432874 -0.162857
C40   C     C_R   0.500260 0.504004 0.571272 -0.184388
C41   C     C_R   0.951430 0.901069 0.054283 -0.170411
C42   C     C_R   0.048812 0.973029 0.936857 -0.170021
C43   C     C_R   0.549855 0.419127 0.443685 -0.169220
C44   C     C_R   0.452479 0.474170 0.561568 -0.168589
H1    H     H_    0.940523 0.852788 0.086935 0.171344
H2    H     H_    0.059332 0.968609 0.901595 0.172833
H3    H     H_    0.560974 0.374432 0.410866 0.171569
H4    H     H_    0.442206 0.465888 0.596966 0.172107
H5    H     H_    0.022652 0.848546 0.103919 0.163484
H6    H     H_    0.977293 0.005774 0.884405 0.163652
H7    H     H_    0.478886 0.369772 0.393372 0.163858
H8    H     H_    0.523792 0.507077 0.613900 0.162987
C45   C     C_R   0.105483 0.994009 0.494645 0.638381
C46   C     C_R   0.920845 0.931851 0.539697 0.603963
C47   C     C_R   0.401591 0.486875 0.015071 0.664481
C48   C     C_R   0.584019 0.429760 0.965329 0.595113
N1    N     N_R   0.086437 0.933713 0.441250 -0.527367
N2    N     N_R   0.938965 0.998226 0.592518 -0.513788
N3    N     N_R   0.420967 0.420414 0.067869 -0.508404
N4    N     N_R   0.564956 0.497600 0.912615 -0.512822
C49   C     C_R   0.040472 0.873193 0.418915 0.523931
C50   C     C_R   0.986741 0.032651 0.618082 0.614558
C51   C     C_R   0.466646 0.354959 0.089002 0.593973
C52   C     C_R   0.517108 0.532994 0.888211 0.614892
C53   C     C_R   0.011061 0.876936 0.449509 -0.052333
C54   C     C_R   0.017338 0.017989 0.588849 -0.080942
C55   C     C_R   0.495786 0.364392 0.057933 -0.079138
C56   C     C_R   0.487412 0.517355 0.918493 -0.081868
C57   C     C_R   0.029436 0.940941 0.504085 -0.061208
C58   C     C_R   0.999184 0.953612 0.534303 -0.072313
C59   C     C_R   0.476871 0.434316 0.003842 -0.067297
C60   C     C_R   0.506410 0.449884 0.972808 -0.065098
C61   C     C_R   0.077640 0.995785 0.527938 -0.133912
C62   C     C_R   0.950753 0.902926 0.509829 -0.151490
C63   C     C_R   0.428699 0.490957 0.981090 -0.138529
C64   C     C_R   0.554916 0.398665 0.996134 -0.148447
C65   C     C_R   0.963447 0.821096 0.426068 -0.242551
C66   C     C_R   0.065590 0.066097 0.613096 -0.237584
C67   C     C_R   0.543532 0.308110 0.080219 -0.234817
C68   C     C_R   0.439173 0.567063 0.895398 -0.236551
C69   C     C_R   0.933713 0.827852 0.456005 0.428655
C70   C     C_R   0.095947 0.052550 0.583821 0.435131
C71   C     C_R   0.572781 0.320232 0.049663 0.427519
C72   C     C_R   0.409597 0.551760 0.925517 0.439063
O21   O     O_2   0.150797 0.054151 0.514902 -0.499165
O22   O     O_2   0.874012 0.893231 0.516414 -0.513345
O23   O     O_2   0.356496 0.550617 0.996012 -0.500128
O24   O     O_2   0.630994 0.391819 0.987592 -0.515528
O25   O     O_2   0.022545 0.817437 0.366057 -0.573499
O26   O     O_2   0.004709 0.080891 0.671699 -0.537029
O27   O     O_2   0.484142 0.284317 0.140390 -0.558465
O28   O     O_2   0.498174 0.582848 0.834681 -0.537191
H9    H     H_    0.948800 0.771456 0.384058 0.174073
H10   H     H_    0.080067 0.116823 0.654977 0.170161
H11   H     H_    0.558696 0.254611 0.121848 0.175093
H12   H     H_    0.424082 0.620360 0.853758 0.170038
C73   C     C_R   0.910122 0.903720 0.665521 0.328578
C74   C     C_R   0.112669 0.092278 0.373773 0.387403
C75   C     C_R   0.591852 0.404450 0.837936 0.328213
C76   C     C_R   0.392850 0.581065 0.133227 0.310258
C77   C     C_R   0.876885 0.916228 0.691597 0.270685
C78   C     C_R   0.138268 0.094572 0.338305 0.334517
C79   C     C_R   0.624137 0.417250 0.810598 0.270484
C80   C     C_R   0.362411 0.591555 0.163126 0.304189
C81   C     C_R   0.841308 0.053896 0.675251 -0.195743
C82   C     C_R   0.165967 0.938885 0.335477 -0.293992
C83   C     C_R   0.659585 0.554563 0.825992 -0.196087
C84   C     C_R   0.335196 0.436128 0.166175 -0.223255
C85   C     C_R   0.839396 0.175299 0.632840 -0.331977
C86   C     C_R   0.166655 0.785732 0.368661 -0.224863
C87   C     C_R   0.662348 0.675276 0.868756 -0.332671
C88   C     C_R   0.336966 0.279021 0.135767 -0.328949
H13   H     H_    0.811917 0.279413 0.619427 0.167473
H14   H     H_    0.187704 0.666084 0.368084 0.193093
H15   H     H_    0.689738 0.779152 0.881442 0.167253
H16   H     H_    0.315589 0.160192 0.135790 0.186960
C89   C     C_R   0.870874 0.156929 0.604985 0.167975
C90   C     C_R   0.141436 0.784127 0.403890 0.171975
C91   C     C_R   0.631934 0.656299 0.897938 0.168865
C92   C     C_R   0.364457 0.274177 0.102967 0.170247
C93   C     C_R   0.907328 0.023740 0.622158 0.231152
C94   C     C_R   0.114411 0.937890 0.406895 0.181224
C95   C     C_R   0.595600 0.523417 0.881753 0.232318
C96   C     C_R   0.393084 0.423774 0.102253 0.272146
N5    N     N_3   0.864622 0.268429 0.557650 -0.654104
H17   H     H_    0.862472 0.405200 0.568009 0.206957
H18   H     H_    0.831728 0.235135 0.527292 0.265535
N6    N     N_3   0.144199 0.624972 0.437024 -0.585899
H19   H     H_    0.158382 0.664117 0.478412 0.243970
H20   H     H_    0.109670 0.577262 0.428440 0.268521
N7    N     N_3   0.639160 0.766954 0.945555 -0.657101
H21   H     H_    0.640882 0.903911 0.935033 0.206548
H22   H     H_    0.672476 0.733183 0.975140 0.265232
N8    N     N_3   0.362395 0.118495 0.069034 -0.607290
H23   H     H_    0.327361 0.106201 0.040881 0.246579
H24   H     H_    0.369855 0.002590 0.094204 0.298350
N9    N     N_3   0.090200 0.039477 0.133319 -0.699488
H25   H     H_    0.105436 0.169359 0.142377 0.231613
H26   H     H_    0.104224 0.953247 0.167564 0.195418
N10   N     N_3   0.911430 0.193143 0.873746 -0.686917
H27   H     H_    0.896923 0.323303 0.873625 0.250592
H28   H     H_    0.896625 0.141205 0.833778 0.196170
N11   N     N_3   0.408900 0.545427 0.363805 -0.692040
H29   H     H_    0.391381 0.670949 0.352692 0.232677
H30   H     H_    0.396269 0.455280 0.330456 0.200438
N12   N     N_3   0.588901 0.697984 0.625247 -0.685457
H31   H     H_    0.603729 0.827639 0.626005 0.250548
H32   H     H_    0.603210 0.643926 0.665073 0.196261
N13   N     N_3   0.214231 0.880908 0.062281 -0.658532
H33   H     H_    0.234471 0.990508 0.084625 0.228980
H34   H     H_    0.225614 0.761393 0.085650 0.246356
N14   N     N_3   0.785445 0.965973 0.932859 -0.680374
H35   H     H_    0.771056 0.865109 0.903025 0.234470
H36   H     H_    0.767839 0.089880 0.918173 0.230792
N15   N     N_3   0.287681 0.370709 0.437762 -0.647024
H37   H     H_    0.266390 0.478826 0.415531 0.234299
H38   H     H_    0.277100 0.250864 0.414591 0.244371
N16   N     N_3   0.715555 0.467721 0.567505 -0.679794
H39   H     H_    0.729338 0.364659 0.596958 0.234622
H40   H     H_    0.733483 0.589975 0.582956 0.230707
N17   N     N_3   0.853908 0.887853 0.037202 -0.671555
H41   H     H_    0.833073 0.770217 0.024241 0.254796
H42   H     H_    0.832765 0.991348 0.043906 0.257393
N18   N     N_3   0.146205 0.911589 0.954037 -0.665245
H43   H     H_    0.162892 0.784591 0.956316 0.260181
H44   H     H_    0.171175 0.014364 0.957563 0.257090
N19   N     N_3   0.647691 0.400764 0.462027 -0.670744
H45   H     H_    0.668073 0.281328 0.474460 0.255242
H46   H     H_    0.669376 0.503865 0.456383 0.257523
N20   N     N_3   0.356060 0.403428 0.545395 -0.664281
H47   H     H_    0.340502 0.274482 0.543286 0.261742
H48   H     H_    0.330320 0.503169 0.542206 0.260911
O29   O     O_3   0.887109 0.770505 0.430374 -0.547761
C97   C     C_3   0.883136 0.585771 0.444754 0.164028
H49   H     H_    0.846100 0.565714 0.442539 0.167525
H50   H     H_    0.906866 0.550956 0.487937 0.101422
C98   C     C_3   0.892182 0.454402 0.404002 -0.420393
H51   H     H_    0.869973 0.495400 0.361116 0.219915
H52   H     H_    0.930234 0.460223 0.409037 0.194070
C99   C     C_3   0.880357 0.257818 0.413751 -0.709699
H53   H     H_    0.901530 0.217007 0.456839 0.242750
H54   H     H_    0.889114 0.164562 0.385363 0.238087
H55   H     H_    0.841881 0.244734 0.406152 0.240604
O30   O     O_3   0.142866 0.106014 0.609746 -0.549899
C100  C     C_3   0.171569 0.951599 0.633963 0.144604
H56   H     H_    0.206510 0.971824 0.629995 0.171736
H57   H     H_    0.157172 0.819429 0.612824 0.098915
C101  C     C_3   0.179861 0.938095 0.695326 -0.357063
H58   H     H_    0.192547 0.072230 0.715460 0.215144
H59   H     H_    0.145912 0.903760 0.700138 0.196256
C102  C     C_3   0.216678 0.790797 0.724107 -0.809245
H60   H     H_    0.204586 0.654903 0.704996 0.241586
H61   H     H_    0.221566 0.783299 0.768291 0.241580
H62   H     H_    0.251484 0.824331 0.721337 0.231070
O31   O     O_3   0.619740 0.264985 0.074508 -0.549599
C103  C     C_3   0.624843 0.083861 0.058090 0.170394
H63   H     H_    0.662194 0.068068 0.060925 0.167519
H64   H     H_    0.601764 0.054357 0.014346 0.103510
C104  C     C_3   0.615599 0.944169 0.096630 -0.433552
H65   H     H_    0.636419 0.981726 0.140163 0.219329
H66   H     H_    0.577131 0.944780 0.089822 0.194701
C105  C     C_3   0.629538 0.751538 0.085979 -0.706867
H67   H     H_    0.609629 0.714144 0.042370 0.248982
H68   H     H_    0.620741 0.652529 0.112999 0.244048
H69   H     H_    0.668336 0.743812 0.094834 0.238513
O32   O     O_3   0.362609 0.606862 0.900673 -0.549489
C106  C     C_3   0.333629 0.453947 0.876371 0.145650
H70   H     H_    0.298852 0.475112 0.880732 0.171167
H71   H     H_    0.347983 0.320863 0.897235 0.106701
C107  C     C_3   0.324902 0.442203 0.814871 -0.360567
H72   H     H_    0.312529 0.577497 0.795071 0.215587
H73   H     H_    0.358614 0.405978 0.809661 0.196672
C108  C     C_3   0.287561 0.297636 0.786032 -0.808188
H74   H     H_    0.299313 0.160664 0.804858 0.241612
H75   H     H_    0.282426 0.291207 0.741765 0.242154
H76   H     H_    0.252953 0.333237 0.789125 0.230938
O33   O     O_3   0.945633 0.772652 0.682512 -0.540191
C109  C     C_3   0.929708 0.615729 0.649522 0.080336
H77   H     H_    0.913913 0.649308 0.604808 0.115837
H78   H     H_    0.902445 0.543632 0.661129 0.119368
C110  C     C_3   0.971240 0.485113 0.658627 -0.276734
H79   H     H_    0.986371 0.440182 0.702383 0.210636
H80   H     H_    0.957035 0.364693 0.632220 0.188409
C111  C     C_3   0.010366 0.568919 0.642559 -0.653489
H81   H     H_    0.995662 0.613275 0.598777 0.195771
H82   H     H_    0.038512 0.464891 0.647657 0.212561
H83   H     H_    0.026769 0.687478 0.669397 0.259208
O34   O     O_3   0.088719 0.248431 0.378967 -0.547149
C112  C     C_3   0.040916 0.240872 0.341547 0.076805
H84   H     H_    0.019793 0.152302 0.357834 0.161973
H85   H     H_    0.037568 0.189426 0.300220 0.111278
C113  C     C_3   0.018992 0.430975 0.335996 -0.265632
H86   H     H_    0.019499 0.473609 0.376985 0.213832
H87   H     H_    0.040535 0.529075 0.322588 0.240160
C114  C     C_3   0.967631 0.433492 0.294767 -0.823228
H88   H     H_    0.966101 0.392502 0.253269 0.227206
H89   H     H_    0.952777 0.573973 0.292083 0.257564
H90   H     H_    0.945455 0.338484 0.308265 0.229882
O35   O     O_3   0.556306 0.274256 0.821677 -0.539986
C115  C     C_3   0.572796 0.116273 0.854283 0.081461
H91   H     H_    0.589279 0.148483 0.898996 0.113982
H92   H     H_    0.599631 0.044452 0.841780 0.120011
C116  C     C_3   0.531486 0.986114 0.845953 -0.276867
H93   H     H_    0.515632 0.942913 0.802138 0.210598
H94   H     H_    0.546127 0.864686 0.871958 0.188685
C117  C     C_3   0.493023 0.069440 0.863388 -0.651166
H95   H     H_    0.508471 0.111977 0.907244 0.196296
H96   H     H_    0.465022 0.965752 0.858766 0.213087
H97   H     H_    0.476233 0.189169 0.837042 0.258765
O36   O     O_3   0.419795 0.730886 0.130452 -0.559569
C118  C     C_3   0.465680 0.718994 0.172520 0.078985
H98   H     H_    0.476021 0.577775 0.189194 0.134450
H99   H     H_    0.466845 0.807679 0.207301 0.135120
C119  C     C_3   0.502772 0.789996 0.150709 -0.267376
H100  H     H_    0.501520 0.709000 0.114358 0.193578
H101  H     H_    0.494669 0.934614 0.137372 0.239504
C120  C     C_3   0.552747 0.777960 0.194979 -0.816870
H102  H     H_    0.554806 0.858488 0.231796 0.238043
H103  H     H_    0.578970 0.834205 0.178899 0.231243
H104  H     H_    0.562229 0.632881 0.207144 0.244340
O37   O     O_3   0.874476 0.777442 0.726691 -0.559222
C121  C     C_3   0.912882 0.786280 0.778115 0.117755
H105  H     H_    0.899193 0.843002 0.808666 0.110091
H106  H     H_    0.943188 0.873579 0.778291 0.128197
C122  C     C_3   0.931007 0.591736 0.796033 -0.277867
H107  H     H_    0.900845 0.504467 0.795601 0.197034
H108  H     H_    0.945585 0.533037 0.766487 0.207764
C123  C     C_3   0.969761 0.588311 0.853608 -0.818975
H109  H     H_    0.000508 0.672953 0.854648 0.238052
H110  H     H_    0.982312 0.445391 0.864860 0.256105
H111  H     H_    0.955596 0.640881 0.884315 0.233942
O38   O     O_3   0.135990 0.253374 0.308180 -0.531235
C124  C     C_3   0.109339 0.221938 0.251594 0.132783
H112  H     H_    0.086282 0.097497 0.243500 0.041765
H113  H     H_    0.134685 0.205105 0.230731 0.144426
C125  C     C_3   0.076920 0.385342 0.225039 -0.343340
H114  H     H_    0.055471 0.352459 0.181312 0.168187
H115  H     H_    0.051681 0.410165 0.245757 0.193732
C126  C     C_3   0.104751 0.560195 0.226760 -0.653592
H116  H     H_    0.125832 0.596887 0.270048 0.259269
H117  H     H_    0.079608 0.673978 0.207521 0.176671
H118  H     H_    0.128702 0.541814 0.203758 0.223835
O39   O     O_3   0.625924 0.278600 0.775275 -0.559236
C127  C     C_3   0.587071 0.289266 0.724267 0.117538
H119  H     H_    0.600023 0.350089 0.693591 0.107324
H120  H     H_    0.556564 0.373867 0.725079 0.130259
C128  C     C_3   0.569610 0.094965 0.705723 -0.277597
H121  H     H_    0.599967 0.009841 0.705335 0.197640
H122  H     H_    0.555657 0.032775 0.735414 0.205953
C129  C     C_3   0.530466 0.093569 0.648410 -0.819504
H123  H     H_    0.499687 0.177549 0.647937 0.237125
H124  H     H_    0.518123 0.950906 0.636908 0.255885
H125  H     H_    0.544217 0.148066 0.617546 0.234053
O40   O     O_3   0.355596 0.760336 0.183082 -0.554119
C130  C     C_3   0.386066 0.779233 0.238836 0.111860
H126  H     H_    0.418768 0.692218 0.250949 0.078446
H127  H     H_    0.366033 0.740266 0.264820 0.140956
C131  C     C_3   0.400344 0.980547 0.249991 -0.300246
H128  H     H_    0.416163 0.029465 0.220382 0.213526
H129  H     H_    0.368150 0.064087 0.243800 0.214636
C132  C     C_3   0.435922 0.009933 0.308600 -0.841205
H130  H     H_    0.419615 0.974047 0.338888 0.238063
H131  H     H_    0.446466 0.156325 0.314119 0.224070
H132  H     H_    0.468323 0.925161 0.316470 0.241641

loop_
_geom_bond_atom_site_label_1
_geom_bond_atom_site_label_2
_ccdc_geom_bond_type
C131  H129  S    
C85   H13   S    
C51   C55   A    
C9    C21   A    
C90   C94   A    
N20   H48   S    
C104  H65   S    
C10   C18   A    
C88   H16   S    
C11   C23   A    
C104  C105  S    
C126  H117  S    
C120  H104  S    
C87   H15   S    
C47   C63   A    
C70   O30   S    
C59   C63   A    
C131  C132  S    
C113  C114  S    
O36   C118  S    
N16   H39   S    
C1    O15   A    
C13   N17   S    
C2    O16   A    
O2    C6    A    
C109  H78   S    
C51   O27   S    
C127  C128  S    
C89   C93   A    
C74   C78   A    
C34   C37   A    
C69   O29   S    
C35   C36   A    
C110  H79   S    
C82   C86   A    
C107  H73   S    
C20   N15   S    
N9    H26   S    
C111  H82   S    
C78   O38   S    
C77   O37   S    
C109  C110  S    
N19   H45   S    
C50   C54   A    
C129  H123  S    
C107  C108  S    
C102  H60   S    
C15   N19   S    
C46   N2    A    
C126  H116  S    
C44   H4    S    
C48   O24   S    
O9    C5    A    
C71   O31   S    
O38   C124  S    
O6    V2    S    
C17   N14   S    
C81   C85   A    
N8    H23   S    
C117  H96   S    
C12   C20   A    
N2    C93   S    
C125  H114  S    
N4    C95   S    
C121  C122  S    
C53   C65   A    
N4    C52   A    
C55   C67   A    
C114  H89   S    
C123  H110  S    
C65   H9    S    
C121  H106  S    
C42   H2    S    
C14   N18   S    
C106  C107  S    
C27   C31   A    
C74   C94   A    
C79   C83   A    
C56   C68   A    
C74   O34   S    
C37   C41   A    
C24   C28   A    
C101  H58   S    
C110  C111  S    
N7    H21   S    
C78   C82   A    
C97   H50   S    
O34   C112  S    
O17   V3    S    
C47   N3    A    
C130  H127  S    
O18   V4    S    
O19   V1    S    
C122  C123  S    
C98   H52   S    
N11   H30   S    
C72   O32   S    
C73   O33   S    
C63   C72   A    
C40   C44   A    
N5    H18   S    
C112  H84   S    
C116  C117  S    
C25   C29   A    
N17   H42   S    
N12   H31   S    
O1    V3    S    
C25   C33   A    
O2    V4    S    
O33   C109  S    
C132  H131  S    
C54   C66   A    
C28   C36   A    
C2    C83   S    
C91   N7    S    
C115  H91   S    
C113  H87   S    
C45   C61   A    
C10   C22   A    
C29   C41   A    
C125  C126  S    
O8    C4    A    
C13   C29   A    
N14   H36   S    
C108  H74   S    
C124  H113  S    
C132  H130  S    
C103  H63   S    
C127  H120  S    
C122  H107  S    
N13   H34   S    
C38   C42   A    
C118  C119  S    
C102  H62   S    
C32   C44   A    
C22   N9    S    
N15   H37   S    
O5    C1    A    
C77   C81   A    
C75   C79   A    
C101  C102  S    
C84   C88   A    
C7    C10   S    
C100  H56   S    
C45   O21   S    
C80   O40   S    
C128  H122  S    
C57   C61   A    
O16   V4    S    
O31   C103  S    
N6    H20   S    
C112  C113  S    
C67   C71   A    
C116  H93   S    
C104  H66   S    
O11   V3    S    
C30   C42   A    
C120  H103  S    
O10   C6    A    
C49   O25   S    
C33   C34   A    
C24   N11   S    
C39   H7    S    
C115  C116  S    
C60   C64   A    
C124  C125  S    
C12   C24   A    
C119  H101  S    
C13   C17   A    
O29   C97   S    
N16   H40   S    
C55   C59   A    
N3    C96   S    
C16   C20   A    
C99   H53   S    
C105  H67   S    
C108  H76   S    
C119  H100  S    
C103  C104  S    
N1    C49   A    
N3    C51   A    
N7    H22   S    
O13   V1    S    
C118  H98   S    
C48   N4    A    
O15   V3    S    
N9    H25   S    
O35   C115  S    
C76   C96   A    
C26   C30   A    
O9    V1    S    
N10   H27   S    
O4    C8    A    
C58   C62   A    
C129  H124  S    
C100  C101  S    
C98   H51   S    
C90   N6    S    
C15   C31   A    
O30   C100  S    
C16   C32   A    
C119  C120  S    
C76   C80   A    
C129  H125  S    
C131  H128  S    
N8    H24   S    
C117  H97   S    
C125  H115  S    
C54   C58   A    
C126  H118  S    
C4    C81   S    
O39   C127  S    
C26   C34   A    
N11   H29   S    
C49   C53   A    
C23   C27   A    
C37   H5    S    
N2    C50   A    
C91   C95   A    
N19   H46   S    
O37   C121  S    
C86   C90   A    
C14   C30   A    
C99   H55   S    
C45   N1    A    
C79   O39   S    
C109  H77   S    
C106  H71   S    
C61   C70   A    
C101  H59   S    
C110  H80   S    
O12   V4    S    
C107  H72   S    
C3    C82   S    
C68   C72   A    
C111  H81   S    
C1    C84   S    
C3    O13   A    
O6    C2    A    
C85   C89   A    
C8    C9    S    
C9    C17   A    
C75   C95   A    
C88   C92   A    
N5    H17   S    
N20   H47   S    
C116  H94   S    
N17   H41   S    
N12   H32   S    
C41   H1    S    
N10   H28   S    
C43   H3    S    
O32   C106  S    
C130  H126  S    
C115  H92   S    
C117  H95   S    
C38   H6    S    
C68   H12   S    
C128  H121  S    
O1    C5    A    
C57   C58   A    
C124  H112  S    
O3    C7    A    
C59   C60   A    
C56   C60   A    
C92   C96   A    
C114  H90   S    
C103  H64   S    
C89   N5    S    
C33   C38   A    
C5    C12   S    
C16   N20   S    
N13   H33   S    
O7    C3    A    
C6    C11   S    
C35   C40   A    
C62   C69   A    
C36   C39   A    
N18   H44   S    
C123  H109  S    
C118  H99   S    
C21   N10   S    
C14   C18   A    
C83   C87   A    
C102  H61   S    
C121  H105  S    
O3    V1    S    
C100  H57   S    
C73   C77   A    
C76   O36   S    
C52   C56   A    
C75   O35   S    
C46   C62   A    
C97   H49   S    
O14   V2    S    
C21   C25   A    
C66   H10   S    
C111  H83   S    
O11   C7    A    
C130  C131  S    
O12   C8    A    
C48   C64   A    
C53   C57   A    
O10   V2    S    
C80   C84   A    
O5    V1    S    
C65   C69   A    
C39   C43   A    
O7    V3    S    
O8    V4    S    
C112  H85   S    
C15   C19   A    
C120  H102  S    
N18   H43   S    
C52   O28   S    
C132  H132  S    
O40   C130  S    
C113  H86   S    
C97   C98   S    
C40   H8    S    
C46   O22   S    
N6    H19   S    
N14   H35   S    
C99   H54   S    
N1    C94   S    
C105  H68   S    
C108  H75   S    
C98   C99   S    
C73   C93   A    
C27   C35   A    
C92   N8    S    
C114  H88   S    
C23   N12   S    
C11   C19   A    
C127  H119  S    
C64   C71   A    
C123  H111  S    
C67   H11   S    
C18   N13   S    
C86   H14   S    
C31   C43   A    
C105  H69   S    
C22   C26   A    
C19   N16   S    
C47   O23   S    
C50   O26   S    
O20   V2    S    
C87   C91   A    
C122  H108  S    
C66   C70   A    
C128  C129  S    
C4    O14   A    
C106  H70   S    
O4    V2    S    
C28   C32   A    
N15   H38   S    
