data_mof_unit_25342.cif
_audit_creation_date              2012-12-10T20:44:00-0500
_audit_creation_method            fapswitch 2.2
_symmetry_space_group_name_H-M    P1
_symmetry_Int_Tables_number       1
_space_group_crystal_system       triclinic
_cell_length_a                    17.457626
_cell_length_b                    10.680382
_cell_length_c                    9.847802
_cell_angle_alpha                 90.164174
_cell_angle_beta                  90.052735
_cell_angle_gamma                 89.912062
_cell_volume                      1836.15273083

loop_
_atom_site_label
_atom_site_type_symbol
_atom_type_description
_atom_site_fract_x
_atom_site_fract_y
_atom_site_fract_z
_atom_type_partial_charge
C1    C     C_R   0.498159 0.259939 0.500097 0.888629
C2    C     C_R   0.885650 0.433177 0.502149 0.140796
C3    C     C_1   0.966047 0.421289 0.502756 -0.007301
C4    C     C_1   0.034073 0.420256 0.502270 0.081620
C5    C     C_R   0.151464 0.463866 0.620867 -0.226182
C6    C     C_R   0.229258 0.488863 0.620412 -0.161083
C7    C     C_R   0.270662 0.479865 0.499107 -0.110780
C8    C     C_R   0.233578 0.445576 0.378087 -0.288746
C9    C     C_R   0.155392 0.420236 0.377644 0.508167
C10   C     C_R   0.114749 0.430059 0.500323 -0.005842
C11   C     C_R   0.500776 0.064023 0.622948 0.114426
C12   C     C_R   0.353230 0.497523 0.499881 0.899934
C13   C     C_R   0.488108 0.128371 0.502290 -0.101083
C14   C     C_R   0.462117 0.064417 0.386714 -0.216037
C15   C     C_R   0.462122 0.934851 0.386629 -0.212924
C16   C     C_R   0.487714 0.871464 0.502556 -0.105426
C17   C     C_R   0.500408 0.936370 0.623099 0.142189
C18   C     C_3   0.566645 0.928657 0.719007 -0.478783
C19   C     C_3   0.567328 0.070527 0.718514 -0.479615
C20   C     C_R   0.439155 0.452244 0.070988 0.184258
C21   C     C_R   0.556661 0.557419 0.072292 -0.126920
C22   C     C_R   0.556699 0.557344 0.928204 -0.140644
C23   C     C_R   0.498049 0.739995 0.500268 0.882211
C24   C     C_R   0.438909 0.453124 0.928191 0.165458
C25   C     C_3   0.409740 0.322209 0.921049 -0.019777
C26   C     C_3   0.410611 0.320698 0.075740 -0.564918
C27   C     C_R   0.646821 0.497857 0.500059 0.861436
C28   C     C_R   0.847001 0.446960 0.625063 -0.169966
C29   C     C_R   0.768932 0.471066 0.624479 -0.194729
C30   C     C_R   0.729598 0.481650 0.500549 -0.038670
C31   C     C_R   0.769274 0.468122 0.377399 -0.211274
C32   C     C_R   0.847369 0.443993 0.378408 -0.119321
H1    H     H_    0.877339 0.440677 0.720895 0.139638
H2    H     H_    0.446431 0.885190 0.294660 0.173681
H3    H     H_    0.549926 0.888352 0.818624 0.206762
H4    H     H_    0.618456 0.886163 0.671920 0.200349
H5    H     H_    0.551632 0.111862 0.818314 0.197251
H6    H     H_    0.619442 0.110873 0.670788 0.206872
H7    H     H_    0.603092 0.601797 0.126897 0.147257
H8    H     H_    0.603158 0.601652 0.874015 0.146967
H9    H     H_    0.450873 0.256647 0.872122 0.168774
H10   H     H_    0.353123 0.313971 0.123586 0.222225
H11   H     H_    0.739487 0.480696 0.720724 0.154455
H12   H     H_    0.454191 0.255348 0.117137 0.194491
H13   H     H_    0.740068 0.475384 0.280643 0.156154
H14   H     H_    0.878022 0.435363 0.283151 0.162658
H15   H     H_    0.119573 0.473334 0.714773 0.176644
H16   H     H_    0.256817 0.515905 0.714521 0.172833
H17   H     H_    0.265608 0.437576 0.284415 0.192856
H18   H     H_    0.445972 0.113450 0.295205 0.163851
N1    N     N_R   0.499490 0.499140 0.142800 -0.100428
N2    N     N_R   0.499490 0.499180 0.857150 -0.118520
O1    O     O_R   0.500010 0.316790 0.614690 -0.617758
O2    O     O_R   0.500000 0.316760 0.385350 -0.620043
O3    O     O_R   0.389120 0.500020 0.614710 -0.606817
O4    O     O_R   0.389110 0.499990 0.385370 -0.618761
O5    O     O_R   0.500000 0.683240 0.614650 -0.614162
O6    O     O_R   0.499990 0.683210 0.385310 -0.619279
O7    O     O_R   0.610890 0.500010 0.614630 -0.626242
O8    O     O_R   0.610880 0.499980 0.385290 -0.620970
Zn1   Zn    Zn3+2 0.500010 0.500020 0.653130 0.951020
Zn2   Zn    Zn3+2 0.499990 0.499980 0.346870 0.949430
N3    N     N_2   0.333193 0.317489 0.863596 -0.276190
H19   H     H_    0.293890 0.377231 0.907915 0.257990
C33   C     C_3   0.303809 0.192979 0.839719 -0.689320
H20   H     H_    0.247546 0.199348 0.787474 0.248066
H21   H     H_    0.296146 0.143190 0.937676 0.248069
H22   H     H_    0.343627 0.139168 0.773586 0.230367
S1    S     S_3+6 0.109464 0.378889 0.223519 0.000452
O9    O     O_2   0.166523 0.368073 0.109793 -0.334951
O10   O     O_2   0.069301 0.255653 0.241440 -0.302799
O11   O     O_3   0.044450 0.489616 0.185118 -0.567239
H23   H     H_    0.016068 0.455809 0.105996 0.375264

loop_
_geom_bond_atom_site_label_1
_geom_bond_atom_site_label_2
_ccdc_geom_bond_type
N2    Zn1   S    
O6    Zn2   S    
S1    O11   S    
C1    O2    A    
N3    C33   S    
C18   H4    S    
O5    Zn1   S    
C29   C30   A    
C19   H6    S    
C23   O6    A    
C5    H15   S    
C9    C10   A    
C15   H2    S    
C31   C32   A    
C21   H7    S    
C21   N1    A    
C30   C31   A    
C27   O8    A    
C33   H22   S    
C22   H8    S    
C14   C15   A    
C17   C18   S    
C26   H12   S    
C7    C8    A    
C27   O7    A    
C13   C14   A    
C29   H11   S    
C27   C30   S    
C11   C13   A    
O2    Zn2   S    
C11   C19   S    
C6    C7    A    
N1    Zn2   S    
C20   C26   S    
O11   H23   S    
O3    Zn1   S    
O8    Zn2   S    
C28   C29   A    
C12   O4    A    
C9    S1    S    
C28   H1    S    
C2    C3    S    
C16   C23   S    
O4    Zn2   S    
C24   N2    A    
C33   H20   S    
C25   N3    S    
C5    C6    A    
S1    O9    D    
C7    C12   S    
O7    Zn1   S    
C12   O3    A    
C1    C13   S    
C14   H18   S    
N3    H19   S    
C4    C10   S    
C15   C16   A    
C20   C24   A    
S1    O10   D    
C5    C10   A    
C24   C25   S    
C26   H10   S    
O1    Zn1   S    
C2    C32   A    
C18   C19   S    
C18   H3    S    
C25   H9    S    
C23   O5    A    
C1    O1    A    
C20   N1    A    
C16   C17   A    
C2    C28   A    
C19   H5    S    
C22   N2    A    
C25   C26   S    
C21   C22   A    
C32   H14   S    
C8    H17   S    
C11   C17   A    
C3    C4    T    
C31   H13   S    
C8    C9    A    
C33   H21   S    
C6    H16   S    
