data_mof_unit_35654.cif
_audit_creation_date              2012-12-10T19:54:18-0500
_audit_creation_method            fapswitch 2.2
_symmetry_space_group_name_H-M    P1
_symmetry_Int_Tables_number       1
_space_group_crystal_system       triclinic
_cell_length_a                    15.727552
_cell_length_b                    14.986224
_cell_length_c                    14.151569
_cell_angle_alpha                 89.947689
_cell_angle_beta                  90.972833
_cell_angle_gamma                 90.3688
_cell_volume                      3334.92599417

loop_
_atom_site_label
_atom_site_type_symbol
_atom_type_description
_atom_site_fract_x
_atom_site_fract_y
_atom_site_fract_z
_atom_type_partial_charge
C1    C     C_R   0.501033 0.328400 0.500025 1.084108
C2    C     C_R   0.499522 0.672720 0.500159 1.003865
C3    C     C_R   0.431624 0.186651 0.527937 0.463717
C4    C     C_R   0.517794 0.816919 0.418235 0.481713
C5    C     C_R   0.503704 0.233673 0.500094 -0.439310
C6    C     C_R   0.499821 0.769522 0.501388 -0.475748
C7    C     C_R   0.577826 0.190400 0.471912 0.259975
C8    C     C_R   0.483166 0.815728 0.586166 0.292294
C9    C     C_R   0.581033 0.097563 0.477841 0.374616
C10   C     C_R   0.491189 0.908139 0.588416 0.360377
C11   C     C_R   0.507476 0.050340 0.503884 -0.187099
C12   C     C_R   0.507340 0.954229 0.504345 -0.194320
C13   C     C_R   0.426893 0.522370 0.102346 0.256558
C14   C     C_R   0.557004 0.555807 0.895774 0.258866
C15   C     C_R   0.428227 0.522284 0.202063 0.662110
C16   C     C_R   0.555513 0.553996 0.796011 0.653706
C17   C     C_R   0.572086 0.477747 0.205822 -0.272134
C18   C     C_R   0.445429 0.445797 0.794861 -0.273219
C19   C     C_R   0.574168 0.477775 0.106409 0.597630
C20   C     C_R   0.445227 0.444256 0.894197 0.598413
C21   C     C_R   0.500924 0.499618 0.052887 -0.108694
C22   C     C_R   0.501689 0.499284 0.946489 -0.121085
C23   C     C_R   0.337842 0.499704 0.499248 0.894380
C24   C     C_R   0.662138 0.500235 0.500764 0.903308
C25   C     C_3   0.974081 0.457062 0.579269 0.432493
C26   C     C_3   0.025747 0.541241 0.420766 0.432460
C27   C     C_3   0.025905 0.414298 0.500069 0.269987
C28   C     C_3   0.973937 0.584064 0.499972 0.259376
C29   C     C_1   0.249099 0.498647 0.497561 -0.089374
C30   C     C_1   0.750843 0.500656 0.502488 -0.125634
C31   C     C_3   0.030929 0.541077 0.576661 0.249223
C32   C     C_3   0.968913 0.457268 0.423437 0.251044
C33   C     C_3   0.083240 0.498103 0.497608 -0.231892
C34   C     C_3   0.916629 0.500164 0.502400 -0.225401
C35   C     C_1   0.173919 0.497942 0.496878 0.206783
C36   C     C_1   0.825995 0.500727 0.503134 0.195665
C37   C     C_R   0.432903 0.094740 0.528167 0.608737
C38   C     C_R   0.520153 0.908927 0.419647 0.596479
H1    H     H_    0.628614 0.459493 0.245553 0.207680
H2    H     H_    0.402096 0.403012 0.755350 0.232914
N1    N     N_R   0.500000 0.499980 0.252470 -0.188758
N2    N     N_R   0.500000 0.500020 0.747530 -0.205175
O1    O     O_R   0.500010 0.369070 0.579480 -0.602709
O2    O     O_R   0.499990 0.630930 0.420520 -0.545400
O3    O     O_R   0.500010 0.369060 0.420520 -0.630505
O4    O     O_R   0.499990 0.630940 0.579480 -0.548725
O5    O     O_R   0.376780 0.500000 0.579460 -0.630343
O6    O     O_R   0.623220 0.500000 0.420540 -0.636528
O7    O     O_R   0.376780 0.499990 0.420510 -0.541879
O8    O     O_R   0.623220 0.500010 0.579490 -0.560321
Zn1   Zn    Zn3+2 0.500000 0.500010 0.606140 1.046555
Zn2   Zn    Zn3+2 0.500000 0.499990 0.393860 1.051909
O9    O     O_3   0.060176 0.327562 0.497753 -0.568988
C39   C     C_3   0.994786 0.264017 0.510557 0.161194
H3    H     H_    0.938076 0.277574 0.464685 0.155041
H4    H     H_    0.975415 0.262922 0.585720 0.209808
C40   C     C_3   0.027698 0.172048 0.485282 -0.780537
H5    H     H_    0.083877 0.155456 0.530409 0.293599
H6    H     H_    0.977264 0.121160 0.496652 0.196629
H7    H     H_    0.046186 0.170706 0.409888 0.258938
O10   O     O_3   0.938637 0.670369 0.501447 -0.584817
C41   C     C_3   0.003680 0.734777 0.491864 0.165710
H8    H     H_    0.030476 0.732281 0.419742 0.210254
H9    H     H_    0.055655 0.725206 0.545195 0.162210
C42   C     C_3   0.966522 0.827075 0.506515 -0.829814
H10   H     H_    0.939362 0.831950 0.578261 0.256219
H11   H     H_    0.017069 0.878584 0.499207 0.220913
H12   H     H_    0.915647 0.839780 0.452907 0.270189
F1    F     F_    0.646849 0.454133 0.062851 -0.606543
F2    F     F_    0.391217 0.387954 0.938896 -0.591056
F3    F     F_    0.944416 0.414791 0.659221 -0.650840
F4    F     F_    0.055348 0.583303 0.340660 -0.648721
O11   O     O_3   0.928721 0.413165 0.346629 -0.603540
C43   C     C_3   0.989986 0.388288 0.280175 0.175251
H13   H     H_    0.045508 0.354444 0.314041 0.176333
H14   H     H_    0.012392 0.447981 0.240874 0.219138
C44   C     C_3   0.949560 0.323618 0.209671 -0.804763
H15   H     H_    0.894109 0.355242 0.173722 0.281526
H16   H     H_    0.996688 0.304839 0.155755 0.232836
H17   H     H_    0.928083 0.262352 0.246761 0.245267
O12   O     O_3   0.071774 0.584526 0.653482 -0.599063
C45   C     C_3   0.010932 0.610974 0.719691 0.176436
H18   H     H_    0.984834 0.551720 0.756865 0.219255
H19   H     H_    0.957868 0.648774 0.685777 0.170399
C46   C     C_3   0.053716 0.671415 0.792759 -0.828644
H20   H     H_    0.080005 0.731696 0.757733 0.251342
H21   H     H_    0.006680 0.692449 0.845838 0.228329
H22   H     H_    0.106183 0.635298 0.829380 0.266760
F5    F     F_    0.361261 0.048796 0.550635 -0.591784
F6    F     F_    0.533768 0.954168 0.337968 -0.589722
F7    F     F_    0.359768 0.230052 0.552741 -0.600468
F8    F     F_    0.533343 0.774781 0.335403 -0.593207
O13   O     O_3   0.649666 0.239304 0.449238 -0.602645
C47   C     C_3   0.658241 0.240212 0.350072 0.139119
H23   H     H_    0.602511 0.272720 0.315166 0.158346
H24   H     H_    0.664965 0.171531 0.321389 0.203178
C48   C     C_3   0.737789 0.292882 0.325297 -0.754666
H25   H     H_    0.794655 0.261280 0.358336 0.257759
H26   H     H_    0.745308 0.294180 0.247435 0.225476
H27   H     H_    0.732859 0.362464 0.351246 0.265554
O14   O     O_3   0.463526 0.771197 0.668790 -0.551003
C49   C     C_3   0.374204 0.764219 0.674748 0.200623
H28   H     H_    0.346764 0.727063 0.613084 0.118551
H29   H     H_    0.344679 0.831486 0.678258 0.184443
C50   C     C_3   0.351924 0.713483 0.764182 -0.833897
H30   H     H_    0.281753 0.708016 0.769981 0.221216
H31   H     H_    0.379089 0.645335 0.762175 0.254883
H32   H     H_    0.377906 0.749258 0.827128 0.236974
O15   O     O_3   0.653650 0.053129 0.451217 -0.551351
C51   C     C_3   0.708195 0.043720 0.530699 0.130951
H33   H     H_    0.717450 0.107929 0.569469 0.160582
H34   H     H_    0.682411 0.992396 0.579362 0.108836
C52   C     C_3   0.794710 0.012729 0.497967 -0.789037
H35   H     H_    0.822407 0.062979 0.449410 0.254647
H36   H     H_    0.838266 0.004122 0.559847 0.202949
H37   H     H_    0.788068 0.947968 0.460392 0.267959
O16   O     O_3   0.475372 0.953528 0.671364 -0.546142
C53   C     C_3   0.550459 0.956939 0.727513 0.120644
H38   H     H_    0.589073 0.015813 0.706512 0.116646
H39   H     H_    0.590061 0.895612 0.722023 0.152414
C54   C     C_3   0.526653 0.967526 0.830571 -0.732797
H40   H     H_    0.488549 0.908972 0.853584 0.250721
H41   H     H_    0.585168 0.972140 0.875377 0.199330
H42   H     H_    0.488832 0.029148 0.839798 0.273076
O17   O     O_3   0.350978 0.537984 0.054635 -0.509326
C55   C     C_3   0.346275 0.629259 0.030853 0.137899
H43   H     H_    0.393715 0.646189 0.976296 0.086308
H44   H     H_    0.356602 0.672633 0.094057 0.166471
C56   C     C_3   0.258444 0.648562 0.989491 -0.735188
H45   H     H_    0.209047 0.633364 0.042410 0.280709
H46   H     H_    0.254091 0.720043 0.969343 0.198166
H47   H     H_    0.246753 0.606926 0.925630 0.256183
O18   O     O_3   0.615520 0.609812 0.942523 -0.513049
C57   C     C_3   0.579242 0.694701 0.956103 0.105001
H48   H     H_    0.532756 0.691622 0.014309 0.117618
H49   H     H_    0.547200 0.720541 0.890694 0.153690
C58   C     C_3   0.648970 0.760662 0.984314 -0.687846
H50   H     H_    0.696298 0.765963 0.927179 0.256176
H51   H     H_    0.620968 0.827453 0.996359 0.199757
H52   H     H_    0.681397 0.738157 0.050396 0.271656
F9    F     F_    0.356718 0.545401 0.247707 -0.606689
F10   F     F_    0.609733 0.607021 0.747609 -0.604631

loop_
_geom_bond_atom_site_label_1
_geom_bond_atom_site_label_2
_ccdc_geom_bond_type
C25   C31   S    
C26   C32   S    
O13   C47   S    
C26   F4    S    
O11   C43   S    
O1    Zn1   S    
C57   C58   S    
O12   C45   S    
C44   H15   S    
C27   C33   S    
C56   H46   S    
C50   H31   S    
C55   H43   S    
C43   H14   S    
C1    C5    S    
C23   C29   S    
C19   C21   A    
N2    Zn1   S    
C52   H35   S    
C18   N2    A    
C46   H20   S    
C40   H6    S    
C49   C50   S    
C3    F7    S    
C17   H1    S    
C11   C37   A    
C18   H2    S    
C51   H33   S    
C54   H42   S    
C41   H9    S    
C17   C19   A    
C15   F9    S    
C1    O1    A    
C2    O2    A    
C42   H11   S    
C43   C44   S    
C31   C33   S    
C25   F3    S    
C8    O14   S    
N1    Zn2   S    
C18   C20   A    
O10   C41   S    
C25   C34   S    
C47   H24   S    
C56   H47   S    
C13   O17   S    
C28   O10   S    
O7    Zn2   S    
C44   H16   S    
C28   C34   S    
C21   C22   S    
C53   H38   S    
C9    O15   S    
C20   F2    S    
C2    C6    S    
C48   H26   S    
C48   H25   S    
C24   C30   S    
C46   H21   S    
C24   O8    A    
C7    O13   S    
C58   H52   S    
C39   H4    S    
C17   N1    A    
C23   O5    A    
C43   H13   S    
C24   O6    A    
O14   C49   S    
C15   N1    A    
C4    C6    A    
C32   O11   S    
C5    C7    A    
C40   H7    S    
C6    C8    A    
O3    Zn2   S    
O9    C39   S    
O4    Zn1   S    
C14   C22   A    
C2    O4    A    
C53   C54   S    
C32   C34   S    
C16   F10   S    
C57   H49   S    
C41   H8    S    
C58   H51   S    
C26   C33   S    
C42   H12   S    
O8    Zn1   S    
C13   C21   A    
C47   H23   S    
C50   H32   S    
C49   H29   S    
C9    C11   A    
C51   C52   S    
C54   H40   S    
C10   C12   A    
C53   H39   S    
C4    C38   A    
C45   H18   S    
C45   H19   S    
C13   C15   A    
O18   C57   S    
C14   C16   A    
C19   F1    S    
C16   N2    A    
C48   H27   S    
C56   H45   S    
C50   H30   S    
C46   H22   S    
C7    C9    A    
C29   C35   T    
C39   H3    S    
C55   H44   S    
C41   C42   S    
C27   C32   S    
C55   C56   S    
C28   C31   S    
C20   C22   A    
C3    C5    A    
C31   O12   S    
O2    Zn2   S    
O5    Zn1   S    
C11   C12   S    
C27   O9    S    
C57   H48   S    
C14   O18   S    
C37   F5    S    
C25   C27   S    
C45   C46   S    
C58   H50   S    
C38   F6    S    
C26   C28   S    
C47   C48   S    
C30   C36   T    
C52   H37   S    
C10   O16   S    
O15   C51   S    
C44   H17   S    
C1    O3    A    
C40   H5    S    
O17   C55   S    
C33   C35   S    
C34   C36   S    
C12   C38   A    
C49   H28   S    
C51   H34   S    
C54   H41   S    
C23   O7    A    
O6    Zn2   S    
C3    C37   A    
C8    C10   A    
C42   H10   S    
C52   H36   S    
O16   C53   S    
C4    F8    S    
C39   C40   S    
