data_mof_unit_14063.cif
_audit_creation_date              2012-12-10T19:45:00-0500
_audit_creation_method            fapswitch 2.2
_symmetry_space_group_name_H-M    P1
_symmetry_Int_Tables_number       1
_space_group_crystal_system       triclinic
_cell_length_a                    15.050789
_cell_length_b                    10.812987
_cell_length_c                    13.712621
_cell_angle_alpha                 90.182852
_cell_angle_beta                  90.518854
_cell_angle_gamma                 89.967064
_cell_volume                      2231.5433972

loop_
_atom_site_label
_atom_site_type_symbol
_atom_type_description
_atom_site_fract_x
_atom_site_fract_y
_atom_site_fract_z
_atom_type_partial_charge
C1    C     C_R   0.498192 0.262226 0.499628 0.812032
C2    C     C_R   0.586388 0.879423 0.663650 0.049007
C3    C     C_R   0.455230 0.118065 0.246028 -0.119332
C4    C     C_R   0.543320 0.881720 0.754203 -0.119968
C5    C     C_R   0.417593 0.177194 0.164554 0.021653
C6    C     C_R   0.580656 0.822683 0.835884 0.025610
C7    C     C_R   0.337594 0.241635 0.174856 -0.169442
C8    C     C_R   0.660896 0.758684 0.826083 -0.174228
C9    C     C_R   0.462630 0.932891 0.422633 -0.187784
C10   C     C_R   0.536904 0.067136 0.577559 -0.192944
C11   C     C_R   0.502653 0.871643 0.501249 -0.029918
C12   C     C_R   0.501697 0.737786 0.500390 0.814089
C13   C     C_R   0.496993 0.128381 0.498880 -0.028907
C14   C     C_R   0.540939 0.939102 0.579455 0.072604
C15   C     C_R   0.458472 0.060938 0.420821 0.075709
C16   C     C_R   0.328791 0.501326 0.499777 0.808014
C17   C     C_R   0.671277 0.499170 0.500369 0.811424
C18   C     C_R   0.566351 0.441521 0.793376 0.057380
C19   C     C_R   0.432978 0.556889 0.206435 0.060521
C20   C     C_R   0.433687 0.558398 0.792349 0.066005
C21   C     C_R   0.566371 0.441526 0.207633 0.054333
C22   C     C_R   0.431145 0.559900 0.895602 -0.101224
C23   C     C_R   0.049194 0.355786 0.637963 -0.054022
C24   C     C_R   0.568463 0.438669 0.104299 -0.102020
C25   C     C_R   0.500149 0.500091 0.948177 0.042190
C26   C     C_R   0.499414 0.498309 0.051699 0.040835
C27   C     C_R   0.569619 0.441511 0.896763 -0.095978
C28   C     C_R   0.429546 0.556056 0.103039 -0.096399
C29   C     C_R   0.360718 0.617114 0.946927 -0.055888
C30   C     C_R   0.638067 0.379425 0.052829 -0.061171
C31   C     C_R   0.359225 0.613260 0.050311 -0.054984
C32   C     C_R   0.639011 0.381991 0.949339 -0.069798
C33   C     C_R   0.812792 0.569499 0.432528 -0.207356
C34   C     C_R   0.950985 0.660185 0.372471 -0.052183
C35   C     C_R   0.187583 0.432625 0.568224 -0.208172
C36   C     C_R   0.767809 0.499708 0.501128 -0.083190
C37   C     C_R   0.232379 0.503540 0.500307 -0.082336
C38   C     C_R   0.814338 0.432108 0.570946 -0.214090
C39   C     C_R   0.186011 0.579023 0.435769 -0.201297
C40   C     C_R   0.907605 0.428775 0.570851 0.037152
C41   C     C_R   0.092703 0.583573 0.436815 0.036950
C42   C     C_R   0.953496 0.505287 0.503787 0.061303
C43   C     C_R   0.046779 0.506979 0.503872 0.058512
C44   C     C_R   0.905616 0.579091 0.435842 0.001360
C45   C     C_R   0.293892 0.243331 0.264174 -0.159214
C46   C     C_R   0.094614 0.432128 0.571132 0.009217
C47   C     C_R   0.955368 0.352870 0.637278 -0.088884
C48   C     C_R   0.044779 0.664674 0.374474 -0.069725
C49   C     C_2   0.286649 0.678317 0.893226 0.893875
C50   C     C_2   0.711381 0.316147 0.106287 0.884717
C51   C     C_2   0.283401 0.669636 0.102457 0.849745
C52   C     C_2   0.712126 0.319409 0.896688 0.875005
C53   C     C_2   0.907363 0.268551 0.704693 0.476779
C54   C     C_2   0.092142 0.758654 0.314895 0.430007
C55   C     C_2   0.099563 0.274207 0.705801 0.926010
C56   C     C_R   0.705097 0.757297 0.737061 -0.169612
C57   C     C_2   0.901122 0.739239 0.302189 0.914173
C58   C     C_2   0.275344 0.180174 0.435796 0.337286
C59   C     C_2   0.724358 0.820748 0.565605 0.340323
C60   C     C_2   0.460773 0.172345 0.068222 0.442436
C61   C     C_2   0.536881 0.827119 0.931899 0.439601
C62   C     C_R   0.329291 0.181287 0.345570 0.032108
C63   C     C_R   0.669971 0.819242 0.655481 0.016339
C64   C     C_R   0.412681 0.120684 0.336879 0.046573
Cu1   Cu    Cu3+1 0.500010 0.499980 0.597420 0.971339
Cu2   Cu    Cu3+1 0.499990 0.500020 0.402580 0.969264
H1    H     H_    0.773823 0.619490 0.378972 0.181532
H2    H     H_    0.224491 0.634939 0.386598 0.135685
H3    H     H_    0.308149 0.289476 0.113225 0.162509
H4    H     H_    0.690121 0.710924 0.887877 0.154200
H5    H     H_    0.231174 0.292092 0.269283 0.158231
H6    H     H_    0.767969 0.708853 0.732324 0.155603
H7    H     H_    0.518293 0.070443 0.239329 0.196574
H8    H     H_    0.480096 0.929022 0.760504 0.193790
H9    H     H_    0.154908 0.685964 0.865787 0.353163
H10   H     H_    0.843300 0.302116 0.130874 0.357284
H11   H     H_    0.209238 0.822193 0.126287 0.345341
H12   H     H_    0.226753 0.374928 0.616523 0.181031
H13   H     H_    0.778279 0.160533 0.870682 0.355967
H14   H     H_    0.849473 0.217565 0.679488 0.049117
H15   H     H_    0.151847 0.734955 0.276118 0.095806
H16   H     H_    0.129402 0.100128 0.746924 0.360031
H17   H     H_    0.880529 0.787775 0.161928 0.353226
H18   H     H_    0.213458 0.231584 0.437799 0.085842
H19   H     H_    0.786457 0.769817 0.563961 0.094020
H20   H     H_    0.431352 0.220739 0.006641 0.070664
H21   H     H_    0.566184 0.779020 0.993692 0.066112
H22   H     H_    0.432343 0.880766 0.363323 0.150710
H23   H     H_    0.567181 0.119247 0.636884 0.149658
H24   H     H_    0.616091 0.394063 0.751144 0.143676
H25   H     H_    0.382747 0.603826 0.248380 0.144231
H26   H     H_    0.382479 0.602627 0.749391 0.162543
H27   H     H_    0.617863 0.397970 0.250599 0.161983
H28   H     H_    0.776340 0.380910 0.623788 0.149068
N1    N     N_R   0.499960 0.499900 0.743810 -0.197157
N2    N     N_R   0.500040 0.500100 0.256190 -0.196414
O1    O     O_R   0.500000 0.319630 0.582270 -0.583063
O2    O     O_R   0.199553 0.636826 0.905677 -0.707159
O3    O     O_2   0.694937 0.231162 0.161914 -0.554530
O4    O     O_R   0.799287 0.352427 0.091057 -0.716720
O5    O     O_2   0.237373 0.605690 0.155214 -0.618276
O6    O     O_R   0.263533 0.794750 0.088806 -0.715490
O7    O     O_2   0.759680 0.378812 0.842303 -0.591468
O8    O     O_R   0.726979 0.193047 0.910683 -0.713396
O9    O     O_2   0.931500 0.256305 0.789374 -0.481776
O10   O     O_2   0.065322 0.865106 0.310275 -0.507440
O11   O     O_2   0.146358 0.319524 0.769930 -0.551193
O12   O     O_R   0.500000 0.680370 0.417730 -0.582037
O13   O     O_R   0.092243 0.145836 0.696618 -0.723804
O14   O     O_2   0.847236 0.814931 0.331814 -0.538976
O15   O     O_R   0.917837 0.728673 0.202396 -0.718298
O16   O     O_2   0.297140 0.120666 0.507589 -0.530689
O17   O     O_2   0.702651 0.880092 0.493702 -0.503308
O18   O     O_2   0.529536 0.114508 0.056263 -0.485303
O19   O     O_2   0.467732 0.884234 0.943349 -0.485895
O20   O     O_R   0.499990 0.319660 0.417730 -0.580417
O21   O     O_R   0.500010 0.680340 0.582270 -0.581225
O22   O     O_R   0.370260 0.499960 0.582280 -0.579734
O23   O     O_R   0.629740 0.500040 0.417720 -0.584032
O24   O     O_R   0.370250 0.499990 0.417740 -0.594439
O25   O     O_R   0.629750 0.500010 0.582260 -0.594025
O26   O     O_2   0.301775 0.765851 0.839626 -0.562747

loop_
_geom_bond_atom_site_label_1
_geom_bond_atom_site_label_2
_ccdc_geom_bond_type
C58   C62   S    
C40   C47   A    
C38   C40   A    
C52   O7    D    
C22   C29   A    
C45   H5    S    
C39   H2    S    
C60   O18   D    
C8    C56   A    
C39   C41   A    
C29   C49   S    
C3    C64   A    
C51   O6    S    
C48   C54   S    
C20   H26   S    
C50   O3    D    
Cu2   O20   S    
C58   O16   D    
C7    C45   A    
C6    C61   S    
Cu2   N2    S    
C35   C37   A    
C24   C26   A    
C16   O22   A    
C16   O24   A    
C9    H22   S    
C11   C14   A    
C45   C62   A    
C33   C36   A    
C32   C52   S    
C62   C64   A    
C61   H21   S    
C49   O2    S    
C10   H23   S    
C56   H6    S    
C22   C25   A    
C61   O19   D    
C34   C57   S    
C15   C64   S    
C17   C36   S    
Cu1   O25   S    
C4    H8    S    
C16   C37   S    
C47   C53   S    
Cu2   O12   S    
C40   C42   A    
C30   C50   S    
C23   C46   A    
Cu2   O24   S    
C55   O13   S    
C18   N1    A    
C41   C43   A    
H11   O6    S    
C42   C44   A    
C3    H7    S    
C26   C28   A    
C23   C47   A    
C54   O10   D    
C18   H24   S    
H16   O13   S    
C53   H14   S    
C34   C44   A    
C4    C6    A    
C10   C14   A    
C1    O1    A    
C5    C7    A    
C60   H20   S    
C6    C8    A    
C25   C26   A    
H9    O2    S    
C55   O11   D    
C1    C13   S    
C2    C4    A    
C59   H19   S    
C58   H18   S    
C57   O14   D    
C59   O17   D    
C38   H28   S    
C56   C63   A    
C19   C28   A    
C9    C11   A    
C17   O25   A    
C1    O20   A    
C20   N1    A    
C20   C22   A    
Cu1   O22   S    
Cu2   O23   S    
C13   C15   A    
H17   O15   S    
H13   O8    S    
H10   O4    S    
C42   C43   A    
C2    C63   A    
C33   H1    S    
C12   O12   A    
C52   O8    S    
C5    C60   S    
C27   C32   A    
C33   C44   A    
C8    H4    S    
C28   C31   A    
C18   C27   A    
C31   C51   S    
C3    C5    A    
C10   C13   A    
C7    H3    S    
C11   C12   S    
C23   C55   S    
C21   N2    A    
C25   C27   A    
C35   H12   S    
C59   C63   S    
C36   C38   A    
C9    C15   A    
Cu1   O1    S    
C37   C39   A    
C30   C32   A    
C57   O15   S    
C21   H27   S    
C49   O26   D    
C41   C48   A    
C2    C14   S    
C43   C46   A    
C24   C30   A    
C50   O4    S    
C19   H25   S    
C17   O23   A    
C12   O21   A    
C19   N2    A    
C53   O9    D    
Cu1   N1    S    
C34   C48   A    
C29   C31   A    
Cu1   Cu2   S    
C21   C24   A    
Cu1   O21   S    
C35   C46   A    
C54   H15   S    
C51   O5    D    
