data_mof_unit_27227.cif
_audit_creation_date              2012-12-10T19:00:14-0500
_audit_creation_method            fapswitch 2.2
_symmetry_space_group_name_H-M    P1
_symmetry_Int_Tables_number       1
_space_group_crystal_system       triclinic
_cell_length_a                    9.590049
_cell_length_b                    10.839836
_cell_length_c                    13.433173
_cell_angle_alpha                 91.338141
_cell_angle_beta                  72.293797
_cell_angle_gamma                 89.751219
_cell_volume                      1329.82939752

loop_
_atom_site_label
_atom_site_type_symbol
_atom_type_description
_atom_site_fract_x
_atom_site_fract_y
_atom_site_fract_z
_atom_type_partial_charge
C1    C     C_R   0.499239 0.737361 0.501570 0.790524
C2    C     C_R   0.433930 0.525253 0.980218 -0.003971
C3    C     C_R   0.453595 0.475101 0.877222 0.070796
C4    C     C_R   0.532750 0.482481 0.034763 0.074287
C5    C     C_R   0.633801 0.384283 0.989999 0.158947
C6    C     C_R   0.638946 0.330719 0.894068 -0.207755
C7    C     C_R   0.550512 0.374965 0.838759 -0.178304
C8    C     C_R   0.538140 0.533059 0.131173 -0.207979
C9    C     C_R   0.720550 0.383111 0.141397 -0.182024
C10   C     C_R   0.375167 0.524995 0.813533 -0.085230
C11   C     C_R   0.396119 0.935268 0.469239 0.031765
C12   C     C_R   0.421341 0.502392 0.699948 0.780616
C13   C     C_R   0.500679 0.870487 0.500588 -0.058613
C14   C     C_R   0.609327 0.935889 0.529078 -0.206008
C15   C     C_R   0.605673 0.064305 0.533028 -0.207545
C16   C     C_R   0.497262 0.129038 0.504517 -0.040394
C17   C     C_R   0.394084 0.062750 0.470999 0.039877
C18   C     C_3   0.229782 0.066128 0.511254 0.233835
C19   C     C_3   0.233501 0.926360 0.508538 -0.398614
C20   C     C_R   0.966066 0.473434 0.410426 0.195795
C21   C     C_R   0.888565 0.541819 0.584394 -0.052762
C22   C     C_R   0.036642 0.545836 0.583735 0.446037
C23   C     C_R   0.498581 0.262596 0.502975 0.804018
C24   C     C_R   0.112344 0.474243 0.410591 0.264111
C25   C     C_3   0.155331 0.364146 0.339758 -0.487612
C26   C     C_3   0.996791 0.361477 0.338104 -0.246915
C27   C     C_R   0.578492 0.498800 0.300199 0.806472
C28   C     C_R   0.728827 0.338327 0.042183 -0.166400
C29   C     C_R   0.621590 0.477750 0.187298 -0.067464
C30   C     C_R   0.267196 0.614613 0.854264 -0.193543
C31   C     C_R   0.237846 0.657661 0.956021 -0.170360
C32   C     C_R   0.317548 0.615171 0.020116 0.019819
Cu1   Cu    Cu3+1 0.359330 0.500020 0.500010 0.961696
Cu2   Cu    Cu3+1 0.640670 0.499980 0.499990 0.969411
H1    H     H_    0.784773 0.338953 0.184519 0.178228
H2    H     H_    0.684984 0.112594 0.561255 0.209034
H3    H     H_    0.176261 0.104338 0.455922 0.117981
H4    H     H_    0.193855 0.884598 0.586909 0.218374
H5    H     H_    0.187955 0.885032 0.448698 0.153117
H6    H     H_    0.803914 0.576362 0.652630 0.172487
H7    H     H_    0.234687 0.385096 0.262957 0.237626
H8    H     H_    0.190545 0.286304 0.378706 0.186651
H9    H     H_    0.986921 0.382546 0.259901 0.165090
H10   H     H_    0.713079 0.254256 0.860866 0.158020
H11   H     H_    0.804881 0.263386 0.008177 0.152808
H12   H     H_    0.478999 0.614664 0.166820 0.160417
H13   H     H_    0.208009 0.655184 0.806046 0.186358
H14   H     H_    0.150875 0.725788 0.985260 0.171101
H15   H     H_    0.557844 0.328201 0.765245 0.160409
H16   H     H_    0.693022 0.888208 0.552862 0.172107
N1    N     N_R   0.852320 0.499070 0.499340 -0.226916
N2    N     N_R   0.148230 0.499110 0.499340 -0.247321
O1    O     O_R   0.381190 0.680360 0.500000 -0.606583
O2    O     O_R   0.618780 0.680320 0.499990 -0.581439
O3    O     O_R   0.323230 0.500000 0.650990 -0.555101
O4    O     O_R   0.560820 0.499960 0.650980 -0.594202
O5    O     O_R   0.381220 0.319680 0.500010 -0.590097
O6    O     O_R   0.618810 0.319640 0.500000 -0.562091
O7    O     O_R   0.439180 0.500040 0.349020 -0.564029
O8    O     O_R   0.676770 0.500000 0.349010 -0.579679
O9    O     O_3   0.177099 0.114324 0.613876 -0.686596
H17   H     H_    0.143574 0.199870 0.608353 0.352280
O10   O     O_3   0.064173 0.602172 0.668023 -0.739190
H18   H     H_    0.152275 0.652533 0.639724 0.343525
C33   C     C_2   0.921436 0.244819 0.381867 0.904556
O11   O     O_2   0.918773 0.212427 0.469010 -0.630301
O12   O     O_R   0.860829 0.170832 0.319505 -0.781049
H19   H     H_    0.824363 0.089328 0.352349 0.333159
C34   C     C_2   0.261397 0.662732 0.128634 0.787335
O13   O     O_2   0.207019 0.592366 0.199027 -0.636021
O14   O     O_R   0.263411 0.789499 0.149711 -0.756543
H20   H     H_    0.220250 0.811205 0.226893 0.329979

loop_
_geom_bond_atom_site_label_1
_geom_bond_atom_site_label_2
_ccdc_geom_bond_type
C25   H8    S    
C24   N2    A    
C23   O6    A    
C2    C4    A    
C1    O2    A    
C18   O9    S    
Cu1   O3    S    
C6    C7    A    
C19   H4    S    
C13   C14   A    
C27   C29   S    
C5    C28   A    
C10   C30   A    
C3    C7    A    
C31   C32   A    
Cu2   O8    S    
C17   C18   S    
C9    C29   A    
C30   C31   A    
C4    C8    A    
C25   H7    S    
C2    C3    A    
Cu1   O7    S    
O14   H20   S    
C15   H2    S    
C3    C10   A    
C6    H10   S    
C21   C22   A    
Cu1   N2    S    
Cu2   O4    S    
C11   C13   A    
C11   C19   S    
Cu2   N1    S    
O9    H17   S    
C21   H6    S    
C20   C26   S    
C22   O10   S    
O12   H19   S    
C23   O5    A    
C5    C6    A    
C19   H5    S    
C2    C32   A    
C12   O4    A    
C18   H3    S    
Cu1   Cu2   S    
C26   H9    S    
Cu2   O2    S    
C16   C23   S    
C10   C12   S    
C31   H14   S    
C27   O8    A    
Cu1   O1    S    
C34   O13   D    
Cu2   O6    S    
C8    H12   S    
C28   H11   S    
C12   O3    A    
C1    C13   S    
C14   H16   S    
C9    H1    S    
C15   C16   A    
C16   C17   A    
C20   C24   A    
C30   H13   S    
C21   N1    A    
C24   C25   S    
C7    H15   S    
C22   N2    A    
C33   O11   D    
C8    C29   A    
C34   O14   S    
C1    O1    A    
C20   N1    A    
C18   C19   S    
Cu1   O5    S    
C27   O7    A    
C25   C26   S    
C14   C15   A    
C26   C33   S    
C32   C34   S    
C11   C17   A    
O10   H18   S    
C9    C28   A    
C4    C5    A    
C33   O12   S    
