data_mof_unit_67219.cif
_audit_creation_date              2013-03-05T16:01:24-0500
_audit_creation_method            fapswitch 2.2
_symmetry_space_group_name_H-M    P1
_symmetry_Int_Tables_number       1
_space_group_crystal_system       triclinic
_cell_length_a                    20.238477
_cell_length_b                    20.08084
_cell_length_c                    8.432985
_cell_angle_alpha                 90.085725
_cell_angle_beta                  91.965867
_cell_angle_gamma                 89.957449
_cell_volume                      3425.19071274

loop_
_atom_site_label
_atom_site_type_symbol
_atom_site_description
_atom_site_fract_x
_atom_site_fract_y
_atom_site_fract_z
_atom_type_partial_charge
P1    P     P_3+3 0.136530 0.426510 0.931350 0.507812
P2    P     P_3+3 0.136530 0.573490 0.431350 0.505466
P3    P     P_3+3 0.636530 0.926510 0.931350 0.507821
P4    P     P_3+3 0.636530 0.073490 0.431350 0.505473
O1    O     O_2   0.130070 0.404060 0.104920 -0.370681
O2    O     O_2   0.130070 0.595940 0.604920 -0.377021
O3    O     O_2   0.630070 0.904060 0.104920 -0.370671
O4    O     O_2   0.630070 0.095940 0.604920 -0.377028
O5    O     O_3   0.075780 0.466370 0.861070 -0.399404
O6    O     O_3   0.075780 0.533630 0.361070 -0.388528
O7    O     O_3   0.575780 0.966370 0.861070 -0.399414
O8    O     O_3   0.575780 0.033630 0.361070 -0.388531
O9    O     O_3   0.022320 0.344950 0.359800 -0.342741
O10   O     O_3   0.022320 0.655050 0.859800 -0.377500
O11   O     O_3   0.522320 0.844950 0.359800 -0.342775
O12   O     O_3   0.522320 0.155050 0.859800 -0.377490
O13   O     O_2   0.137920 0.303551 0.267636 -0.357728
O14   O     O_2   0.132904 0.705228 0.746491 -0.370786
O15   O     O_2   0.637935 0.803578 0.267707 -0.357675
O16   O     O_2   0.632913 0.205222 0.746508 -0.370845
O17   O     O_3   0.207698 0.475806 0.934017 -0.536362
O18   O     O_3   0.206368 0.522119 0.432823 -0.540285
O19   O     O_3   0.707697 0.975806 0.934014 -0.536341
O20   O     O_3   0.706369 0.022119 0.432824 -0.540278
O21   O     O_3   0.052799 0.209555 0.294620 -0.542109
O22   O     O_3   0.051942 0.796972 0.839756 -0.564921
O23   O     O_3   0.552820 0.709569 0.294520 -0.541977
O24   O     O_3   0.551947 0.296970 0.839747 -0.564919
H1    H     H_    0.017975 0.191309 0.523807 -0.030427
H2    H     H_    0.955633 0.760760 0.825008 0.053232
H3    H     H_    0.517823 0.691343 0.523559 -0.030433
H4    H     H_    0.455637 0.260762 0.825001 0.053230
C1    C     C_3   0.957078 0.143695 0.343306 0.696064
C2    C     C_3   0.954839 0.867142 0.807442 0.756591
C3    C     C_3   0.457081 0.643679 0.342828 0.696425
C4    C     C_3   0.454846 0.367144 0.807442 0.756591
H5    H     H_    0.960647 0.128585 0.217112 0.099933
H6    H     H_    0.955296 0.864945 0.676784 0.021635
H7    H     H_    0.460777 0.628464 0.216731 0.099773
H8    H     H_    0.455303 0.364949 0.676784 0.021623
P5    P     P_3+3 0.863410 0.426100 0.379280 0.536467
P6    P     P_3+3 0.863410 0.573900 0.879280 0.536910
P7    P     P_3+3 0.363410 0.926100 0.379280 0.536474
P8    P     P_3+3 0.363410 0.073900 0.879280 0.536912
P9    P     P_3+3 0.918591 0.282445 0.928163 0.570485
P10   P     P_3+3 0.917867 0.717366 0.431107 0.565704
P11   P     P_3+3 0.418596 0.782444 0.928163 0.570718
P12   P     P_3+3 0.417868 0.217367 0.431110 0.565717
O25   O     O_2   0.869860 0.403670 0.205810 -0.313349
O26   O     O_2   0.869860 0.596330 0.705810 -0.312362
O27   O     O_2   0.369860 0.903670 0.205810 -0.313367
O28   O     O_2   0.369860 0.096330 0.705810 -0.312347
O29   O     O_3   0.977590 0.344880 0.951200 -0.415724
O30   O     O_3   0.977590 0.655120 0.451200 -0.421886
O31   O     O_3   0.477590 0.844880 0.951200 -0.415702
O32   O     O_3   0.477590 0.155120 0.451200 -0.421889
O33   O     O_2   0.869525 0.290891 0.063460 -0.274124
O34   O     O_2   0.876587 0.716272 0.582378 -0.348757
O35   O     O_2   0.369526 0.790893 0.063451 -0.273851
O36   O     O_2   0.376588 0.216273 0.582382 -0.348750
O37   O     O_3   0.793384 0.477206 0.373218 -0.505700
O38   O     O_3   0.794998 0.520598 0.866922 -0.499859
O39   O     O_3   0.293382 0.977204 0.373223 -0.505696
O40   O     O_3   0.294999 0.020597 0.866916 -0.499862
O41   O     O_3   0.959021 0.207365 0.971725 -0.444117
O42   O     O_3   0.959698 0.794140 0.437761 -0.465375
O43   O     O_3   0.459037 0.707374 0.971757 -0.443948
O44   O     O_3   0.459700 0.294140 0.437764 -0.465380
C5    C     C_3   0.022032 0.209598 0.906787 0.355484
C6    C     C_3   0.028235 0.782753 0.458748 0.401147
C7    C     C_3   0.522025 0.709588 0.906697 0.355456
C8    C     C_3   0.528238 0.282751 0.458743 0.401147
H9    H     H_    0.054690 0.244107 0.976597 0.124808
H10   H     H_    0.038551 0.759137 0.574171 0.123703
H11   H     H_    0.554703 0.744123 0.976380 0.124674
H12   H     H_    0.538555 0.259132 0.574162 0.123703
H13   H     H_    0.019216 0.225758 0.780874 0.022416
H14   H     H_    0.047654 0.749161 0.367623 0.105376
H15   H     H_    0.519165 0.725701 0.780749 0.022430
H16   H     H_    0.547654 0.249161 0.367612 0.105373
C9    C     C_3   0.052751 0.140594 0.913667 -0.695868
C10   C     C_3   0.066461 0.847885 0.449378 -0.746175
C11   C     C_3   0.552750 0.640587 0.913663 -0.695952
C12   C     C_3   0.566464 0.347883 0.449378 -0.746188
H17   H     H_    0.056820 0.123119 0.037968 0.270813
H18   H     H_    0.119111 0.839139 0.484841 0.194060
H19   H     H_    0.556889 0.623166 0.038006 0.270659
H20   H     H_    0.619114 0.339135 0.484840 0.194053
H21   H     H_    0.021661 0.105030 0.843267 0.313368
H22   H     H_    0.046069 0.885975 0.529103 0.279684
H23   H     H_    0.521624 0.604990 0.843434 0.313330
H24   H     H_    0.546075 0.385973 0.529107 0.279679
C13   C     C_3   0.813649 0.457656 0.813605 0.371755
C14   C     C_3   0.808336 0.538984 0.308494 0.347258
C15   C     C_3   0.313653 0.957654 0.813609 0.371768
C16   C     C_3   0.308330 0.038981 0.308483 0.347317
H25   H     H_    0.841485 0.461741 0.703327 0.072769
H26   H     H_    0.831485 0.532567 0.192432 0.080949
H27   H     H_    0.341494 0.961737 0.703337 0.072780
H28   H     H_    0.331480 0.032561 0.192424 0.080938
H29   H     H_    0.844188 0.431819 0.906492 0.119442
H30   H     H_    0.841531 0.567383 0.391628 0.108112
H31   H     H_    0.344190 0.931819 0.906505 0.119440
H32   H     H_    0.341523 0.067384 0.391612 0.108096
C17   C     C_3   0.750952 0.417471 0.779791 -0.706153
C18   C     C_3   0.743830 0.577075 0.283647 -0.657379
C19   C     C_3   0.250959 0.917467 0.779787 -0.706152
C20   C     C_3   0.243821 0.077066 0.283622 -0.657418
H33   H     H_    0.724288 0.437168 0.672477 0.252682
H34   H     H_    0.712817 0.552768 0.189032 0.260599
H35   H     H_    0.224297 0.937161 0.672466 0.252684
H36   H     H_    0.212809 0.052752 0.189018 0.260605
H37   H     H_    0.762866 0.364357 0.760499 0.187382
H38   H     H_    0.753119 0.629242 0.248950 0.179099
H39   H     H_    0.262876 0.864352 0.760502 0.187416
H40   H     H_    0.253109 0.129232 0.248904 0.179109
H41   H     H_    0.718035 0.421035 0.882089 0.328485
H42   H     H_    0.716550 0.577278 0.395537 0.334926
H43   H     H_    0.218039 0.921031 0.882077 0.328476
H44   H     H_    0.216541 0.077276 0.395513 0.334916
Ba1   Ba    Ba6+2 0.999980 0.452130 0.155200 1.654139
Ba2   Ba    Ba6+2 0.999980 0.547870 0.655200 1.643251
Ba3   Ba    Ba6+2 0.499980 0.952130 0.155200 1.654157
Ba4   Ba    Ba6+2 0.499980 0.047870 0.655200 1.643247
C21   C     C_3   0.201808 0.531889 0.030605 0.039624
C22   C     C_3   0.201278 0.468741 0.537735 0.037824
C23   C     C_3   0.701808 0.031889 0.030603 0.039696
C24   C     C_3   0.701275 0.968739 0.537730 0.037780
H45   H     H_    0.170047 0.522981 0.132497 0.115236
H46   H     H_    0.169422 0.479842 0.638194 0.117466
H47   H     H_    0.670045 0.022981 0.132491 0.115220
H48   H     H_    0.669420 0.979839 0.638189 0.117467
H49   H     H_    0.181047 0.573483 0.957946 0.080483
H50   H     H_    0.181018 0.424956 0.471818 0.074797
H51   H     H_    0.681050 0.073485 0.957944 0.080445
H52   H     H_    0.681013 0.924957 0.471808 0.074831
C25   C     C_3   0.271316 0.549827 0.091980 1.275218
C26   C     C_3   0.270948 0.453030 0.601456 1.292668
C27   C     C_3   0.771316 0.049824 0.091987 1.275214
C28   C     C_3   0.770945 0.953024 0.601451 1.292679
H53   H     H_    0.305152 0.551568 0.991772 0.115613
H54   H     H_    0.304067 0.444224 0.501698 0.099980
H55   H     H_    0.805151 0.051586 0.991779 0.115600
H56   H     H_    0.804063 0.944217 0.501693 0.099980
O45   O     O_3   0.924190 0.533610 0.949240 -0.430578
O46   O     O_3   0.924190 0.466390 0.449240 -0.431167
O47   O     O_3   0.424190 0.033610 0.949240 -0.430586
O48   O     O_3   0.424190 0.966390 0.449240 -0.431159
P13   P     P_3+3 0.083615 0.716449 0.879594 0.562961
P14   P     P_3+3 0.083159 0.283625 0.380769 0.561206
P15   P     P_3+3 0.583618 0.216447 0.879595 0.562931
P16   P     P_3+3 0.583160 0.783626 0.380771 0.561238
C29   C     C_3   0.025376 0.166769 0.407532 0.468824
C30   C     C_3   0.984840 0.802497 0.878557 0.411554
C31   C     C_3   0.525324 0.666788 0.407340 0.468496
C32   C     C_3   0.484846 0.302497 0.878552 0.411592
H57   H     H_    0.103054 0.142132 0.865453 0.209423
H58   H     H_    0.064179 0.867209 0.326141 0.290301
H59   H     H_    0.603028 0.642108 0.865304 0.209579
H60   H     H_    0.564182 0.367209 0.326143 0.290303
C33   C     C_R   0.237777 0.303566 0.005873 0.135331
C34   C     C_R   0.240598 0.694334 0.501917 0.097688
C35   C     C_R   0.737773 0.803563 0.005875 0.135333
C36   C     C_R   0.740591 0.194341 0.501925 0.097547
C37   C     C_R   0.147824 0.346079 0.823500 0.323389
C38   C     C_R   0.150542 0.651937 0.319613 0.286446
C39   C     C_R   0.647819 0.846075 0.823505 0.323402
C40   C     C_R   0.650540 0.151938 0.319617 0.286503
C41   C     C_R   0.109760 0.336659 0.683450 -0.596142
C42   C     C_R   0.115350 0.659057 0.175045 -0.567530
C43   C     C_R   0.609751 0.836652 0.683462 -0.596156
C44   C     C_R   0.615349 0.159057 0.175047 -0.567528
C45   C     C_R   0.121919 0.283424 0.581801 0.028077
C46   C     C_R   0.127677 0.712056 0.073865 0.204587
C47   C     C_R   0.621900 0.783410 0.581825 0.028054
C48   C     C_R   0.627675 0.212057 0.073869 0.204545
C49   C     C_R   0.169905 0.236301 0.623710 0.791674
C50   C     C_R   0.171829 0.762027 0.121242 0.775240
C51   C     C_R   0.669883 0.736285 0.623739 0.791699
C52   C     C_R   0.671826 0.262029 0.121245 0.775238
C53   C     C_R   0.205927 0.241109 0.769528 -0.337492
C54   C     C_R   0.207831 0.757355 0.267267 -0.346467
C55   C     C_R   0.705914 0.741098 0.769545 -0.337537
C56   C     C_R   0.707826 0.257359 0.267271 -0.346516
C57   C     C_R   0.196926 0.297437 0.868067 -0.123549
C58   C     C_R   0.199353 0.700736 0.364896 -0.118062
C59   C     C_R   0.696919 0.797432 0.868075 -0.123528
C60   C     C_R   0.699348 0.200740 0.364902 -0.118054
H61   H     H_    0.073702 0.373899 0.646950 0.195786
H62   H     H_    0.079790 0.621495 0.137567 0.198059
H63   H     H_    0.573697 0.873896 0.646955 0.195779
H64   H     H_    0.579791 0.121494 0.137567 0.198059
C61   C     C_R   0.793986 0.697848 0.951809 -0.269014
C62   C     C_R   0.796727 0.300169 0.448079 -0.218133
C63   C     C_R   0.293990 0.197852 0.951805 -0.269039
C64   C     C_R   0.296735 0.800162 0.448073 -0.218148
C65   C     C_R   0.784522 0.754136 0.051491 -0.168638
C66   C     C_R   0.788022 0.243336 0.546263 -0.121924
C67   C     C_R   0.284527 0.254140 0.051489 -0.168631
C68   C     C_R   0.288030 0.743328 0.546257 -0.122203
C69   C     C_R   0.844787 0.650669 0.995103 0.278169
C70   C     C_R   0.848650 0.346647 0.489065 0.338684
C71   C     C_R   0.344787 0.150669 0.995105 0.278164
C72   C     C_R   0.348656 0.846642 0.489060 0.338665
C73   C     C_R   0.879781 0.658161 0.140149 -0.507549
C74   C     C_R   0.888166 0.335662 0.626463 -0.526064
C75   C     C_R   0.379778 0.158159 0.140156 -0.507548
C76   C     C_R   0.388176 0.835653 0.626452 -0.526339
C77   C     C_R   0.866295 0.709932 0.244961 0.226798
C78   C     C_R   0.875095 0.283675 0.730660 0.075923
C79   C     C_R   0.366295 0.209932 0.244964 0.226824
C80   C     C_R   0.375104 0.783666 0.730651 0.075688
C81   C     C_R   0.820389 0.759302 0.198719 0.305909
C82   C     C_R   0.826158 0.236579 0.689657 0.328244
C83   C     C_R   0.320392 0.259304 0.198718 0.305928
C84   C     C_R   0.326163 0.736572 0.689659 0.328182
C85   C     C_R   0.752048 0.691184 0.814304 0.878830
C86   C     C_R   0.753330 0.307669 0.313337 0.862388
C87   C     C_R   0.252057 0.191191 0.814292 0.878836
C88   C     C_R   0.253336 0.807664 0.313333 0.862482
H65   H     H_    0.917727 0.622366 0.173769 0.178350
H66   H     H_    0.926545 0.371082 0.659286 0.165444
H67   H     H_    0.417723 0.122362 0.173780 0.178346
H68   H     H_    0.426554 0.871074 0.659274 0.165505
H69   H     H_    0.233469 0.347076 0.079292 0.190990
H70   H     H_    0.237137 0.650200 0.573695 0.191573
H71   H     H_    0.733469 0.847075 0.079288 0.190996
H72   H     H_    0.737129 0.150208 0.573708 0.191558
F1    F     F_    0.294383 0.501941 0.197215 -0.622094
F2    F     F_    0.295562 0.506161 0.689566 -0.636410
F3    F     F_    0.794385 0.001921 0.197175 -0.622046
F4    F     F_    0.795561 0.006151 0.689566 -0.636390
F5    F     F_    0.272056 0.610982 0.166378 -0.702160
F6    F     F_    0.270766 0.396884 0.695031 -0.675485
F7    F     F_    0.772051 0.110965 0.166446 -0.702252
F8    F     F_    0.770759 0.896876 0.695021 -0.675481
N1    N     N_R   0.068732 0.108938 0.430224 0.236356
O49   O     O_R   0.089208 0.091558 0.571993 -0.346431
O50   O     O_R   0.083118 0.071483 0.310221 -0.379105
N2    N     N_R   0.978738 0.801007 0.050384 0.217048
O51   O     O_R   0.961240 0.853120 0.130697 -0.283569
O52   O     O_R   0.988832 0.745233 0.123741 -0.498233
N3    N     N_R   0.568684 0.608972 0.430248 0.236359
O53   O     O_R   0.589055 0.591605 0.572108 -0.346639
O54   O     O_R   0.583178 0.571516 0.310325 -0.379067
N4    N     N_R   0.478743 0.301006 0.050380 0.217043
O55   O     O_R   0.461248 0.353118 0.130696 -0.283563
O56   O     O_R   0.488829 0.245230 0.123731 -0.498237
N5    N     N_R   0.932953 0.087299 0.433826 0.231791
O57   O     O_R   0.921331 0.030489 0.363993 -0.263633
O58   O     O_R   0.925746 0.092512 0.585832 -0.316751
N6    N     N_R   0.991222 0.926534 0.861270 0.252756
O59   O     O_R   0.052537 0.934918 0.824250 -0.355394
O60   O     O_R   0.960968 0.974099 0.934698 -0.226043
N7    N     N_R   0.432869 0.587358 0.433464 0.231665
O61   O     O_R   0.421449 0.530448 0.363899 -0.263734
O62   O     O_R   0.425321 0.592765 0.585336 -0.316740
N8    N     N_R   0.491231 0.426534 0.861275 0.252720
O63   O     O_R   0.552546 0.434917 0.824255 -0.355426
O64   O     O_R   0.460978 0.474099 0.934710 -0.226228
F9    F     F_    0.912480 0.195764 0.350500 -0.662649
F10   F     F_    0.889248 0.871923 0.848147 -0.600255
F11   F     F_    0.412469 0.695759 0.349534 -0.662115
F12   F     F_    0.389256 0.371927 0.848149 -0.600260
F13   F     F_    0.184728 0.188895 0.515882 -0.639666
F14   F     F_    0.181032 0.813706 0.020851 -0.628882
F15   F     F_    0.684695 0.688869 0.515925 -0.639635
F16   F     F_    0.681028 0.313708 0.020851 -0.628883
N9    N     N_R   0.810774 0.815033 0.301008 0.232215
O65   O     O_R   0.834109 0.873026 0.264057 -0.264319
O66   O     O_R   0.781136 0.807282 0.433989 -0.385883
N10   N     N_R   0.812730 0.184015 0.798307 0.239512
O67   O     O_R   0.857230 0.139031 0.831018 -0.286279
O68   O     O_R   0.758457 0.184742 0.876023 -0.412307
N11   N     N_R   0.310781 0.315039 0.301000 0.232214
O69   O     O_R   0.334110 0.373032 0.264027 -0.264328
O70   O     O_R   0.281150 0.307293 0.433991 -0.385893
N12   N     N_R   0.312709 0.684028 0.798350 0.239616
O71   O     O_R   0.357229 0.639094 0.831323 -0.286332
O72   O     O_R   0.258402 0.684757 0.875933 -0.412257
F17   F     F_    0.751835 0.634531 0.727280 -0.620954
F18   F     F_    0.752494 0.364560 0.227695 -0.628108
F19   F     F_    0.251841 0.134538 0.727269 -0.620934
F20   F     F_    0.252499 0.864556 0.227696 -0.628127

loop_
_geom_bond_atom_site_label_1
_geom_bond_atom_site_label_2
_geom_bond_distance
_ccdc_geom_bond_type
C11   H19   1.106328 S    
P7    O39   1.748525 S    
N7    O62   1.299379 A    
N4    O56   1.293002 A    
C87   F19   1.352814 S    
O23   P16   1.756448 S    
O10   Ba2   2.783962 S    
C1    F9    1.383393 S    
C6    H14   1.103975 S    
O27   Ba3   2.854158 S    
C28   H56   1.107384 S    
C20   H44   1.109450 S    
P1    O17   1.747793 S    
P3    O19   1.747794 S    
N11   O69   1.299342 A    
O26   Ba2   2.852392 S    
P5    O37   1.748521 S    
C8    H12   1.096905 S    
O6    Ba1   2.803277 S    
C31   N3    1.463852 S    
C63   C87   1.419539 A    
C12   H60   1.109344 S    
P3    C39   1.870156 S    
Ba3   Ba4   4.631490 S    
C62   C86   1.420221 A    
C7    H11   1.111945 S    
O42   C6    1.410838 S    
C44   H64   1.082235 S    
C61   C85   1.419543 A    
Ba4   O48   2.803389 S    
P9    O33   1.547116 D    
N5    O57   1.300927 A    
O11   Ba3   2.787432 S    
C16   H28   1.106815 S    
C18   H38   1.106046 S    
C18   H42   1.109452 S    
P1    O1    1.542067 D    
O32   Ba4   2.785556 S    
C17   H37   1.106350 S    
N11   O70   1.299389 A    
C23   H51   1.110400 S    
O9    P14   1.745657 S    
P10   O42   1.759276 S    
P3    O3    1.542067 D    
C14   C18   1.521040 S    
C24   H52   1.110678 S    
C42   C46   1.393080 A    
P4    O20   1.748922 S    
C1    C29   1.538658 S    
O18   C22   1.396968 S    
O43   C7    1.405781 S    
C63   C71   1.435871 A    
C79   C83   1.404649 A    
C22   H46   1.104417 S    
P5    Ba1   3.441949 S    
N3    O53   1.299976 A    
C62   C70   1.438891 A    
N1    O50   1.300833 A    
C30   N2    1.458838 S    
O41   C5    1.405791 S    
P8    O47   1.570329 S    
C61   C69   1.435873 A    
P4    Ba4   3.439243 S    
C35   C59   1.408188 A    
P13   C46   1.840393 S    
C54   C58   1.418695 A    
Ba2   O45   2.974405 S    
C3    F11   1.383486 S    
C75   C79   1.396382 A    
N2    O51   1.301140 A    
C33   C57   1.408184 A    
P7    O48   1.570360 S    
C52   F16   1.357235 S    
H4    C32   1.112229 S    
P16   C47   1.843433 S    
C5    H13   1.110351 S    
P5    O25   1.539787 D    
C7    C11   1.518708 S    
C15   C19   1.522666 S    
P5    O46   1.570360 S    
C72   C76   1.402755 A    
P3    Ba3   3.437787 S    
N10   O67   1.298325 A    
N3    O54   1.300866 A    
C6    H10   1.096899 S    
P8    C71   1.868821 S    
C52   C56   1.412359 A    
C2    N6    1.465384 S    
C5    H9    1.111923 S    
C67   C83   1.420232 A    
C4    N8    1.465383 S    
P4    O8    1.566403 S    
O14   P13   1.543198 D    
P2    C38   1.863660 S    
C51   C55   1.411093 A    
P4    O4    1.540729 D    
P6    O38   1.750841 S    
C36   H72   1.077656 S    
C13   C17   1.522665 S    
P8    O28   1.541123 D    
C56   C86   1.412577 A    
O30   Ba2   2.785556 S    
P9    O29   1.738086 S    
C55   C85   1.412254 A    
C2    H6    1.103011 S    
C46   C50   1.393077 A    
P10   O34   1.548875 D    
O17   C21   1.396307 S    
C3    N7    1.460322 S    
C17   H41   1.110090 S    
C73   C77   1.396377 A    
P2    O2    1.540729 D    
C27   H55   1.106395 S    
C40   C60   1.434022 A    
C4    F12   1.385700 S    
C35   H71   1.075306 S    
C24   H48   1.104419 S    
C19   H43   1.110089 S    
O11   P16   1.745642 S    
C34   H70   1.077657 S    
C36   C66   1.415953 A    
P12   O36   1.548875 D    
C63   C67   1.424373 A    
P2    Ba2   3.439243 S    
N10   O68   1.298291 A    
C37   C41   1.400426 A    
Ba4   O47   2.974405 S    
O31   Ba3   2.782095 S    
N5    O58   1.299157 A    
C9    H57   1.109584 S    
C2    F10   1.385700 S    
C15   H31   1.110091 S    
O21   C29   1.411490 S    
C80   C84   1.404225 A    
C4    H8    1.103010 S    
P1    O5    1.566379 S    
O44   C8    1.410838 S    
C88   F20   1.352253 S    
C26   H54   1.107389 S    
C32   N4    1.458842 S    
C13   H29   1.110093 S    
C64   C68   1.425576 A    
C34   C58   1.408037 A    
C39   C59   1.434189 A    
C33   C67   1.415291 A    
C75   H67   1.082443 S    
O4    Ba4   2.850423 S    
C47   C51   1.392688 A    
C21   C25   1.525385 S    
C78   C82   1.404205 A    
C71   C75   1.400198 A    
O39   C16   1.393696 S    
P8    Ba4   3.440467 S    
P8    O40   1.750844 S    
C7    H15   1.110376 S    
C20   H36   1.110741 S    
C56   C60   1.418698 A    
O21   P14   1.756453 S    
O29   Ba1   2.782095 S    
P11   C80   1.857183 S    
C3    H7    1.110923 S    
C53   C87   1.412248 A    
C55   C59   1.417908 A    
O9    Ba1   2.787432 S    
C19   H35   1.110808 S    
C74   C78   1.396779 A    
N6    O60   1.301560 A    
C85   F17   1.352813 S    
P12   C79   1.860909 S    
C26   F2    1.382582 S    
C49   F13   1.356012 S    
C76   C80   1.396797 A    
O25   Ba1   2.854158 S    
P10   O30   1.742530 S    
N2    O52   1.293003 A    
O15   P16   1.540418 D    
C25   H53   1.106392 S    
C43   H63   1.082128 S    
P11   O43   1.748336 S    
C10   H58   1.109345 S    
C8    C12   1.523611 S    
P12   O44   1.759279 S    
C1    N5    1.460341 S    
C14   H30   1.111346 S    
Ba1   Ba2   4.631490 S    
C50   C54   1.412369 A    
C83   N11   1.429239 S    
P6    O26   1.541123 D    
C5    C9    1.518691 S    
C25   F1    1.379721 S    
Ba3   O47   2.805090 S    
C38   C42   1.398150 A    
C2    C30   1.545850 S    
N9    O66   1.299391 A    
C21   H45   1.105449 S    
C27   F7    1.378035 S    
Ba1   O45   2.805090 S    
N12   O72   1.298287 A    
C26   F6    1.377227 S    
C64   C72   1.438889 A    
O2    Ba2   2.850423 S    
O24   C32   1.412032 S    
O5    Ba2   2.804977 S    
N7    O61   1.301016 A    
P2    O6    1.566403 S    
P7    Ba3   3.441949 S    
N8    O64   1.301559 A    
C65   C81   1.420232 A    
C4    C32   1.545848 S    
P11   O31   1.738033 S    
C18   H34   1.110741 S    
C40   C44   1.398144 A    
C21   H49   1.110398 S    
P12   O32   1.742526 S    
C17   H33   1.110809 S    
N4    O55   1.301139 A    
C22   C26   1.524571 S    
O1    Ba1   2.848669 S    
C53   C57   1.417901 A    
P15   C48   1.840369 S    
C64   C88   1.420227 A    
P1    Ba1   3.437787 S    
C37   C57   1.434187 A    
P1    C37   1.870129 S    
C38   C58   1.434020 A    
C84   N12   1.431095 S    
C28   F8    1.377230 S    
O22   P13   1.767381 S    
C12   H20   1.110722 S    
O40   C15   1.396927 S    
C3    C31   1.538662 S    
C36   C60   1.408029 A    
C51   F15   1.356012 S    
H3    C31   1.111474 S    
C50   F14   1.357236 S    
C28   F4    1.382580 S    
C35   C65   1.415289 A    
C29   N1    1.463834 S    
O23   C31   1.411498 S    
C76   H68   1.082273 S    
P10   C77   1.860907 S    
C11   H23   1.110101 S    
C42   H62   1.082235 S    
O19   C23   1.396311 S    
P9    C78   1.857170 S    
C10   H22   1.106531 S    
O16   P15   1.543202 D    
C39   C43   1.400432 A    
C1    H5    1.110890 S    
C61   C65   1.424372 A    
C20   H40   1.106050 S    
C23   H47   1.105450 S    
C16   H32   1.111346 S    
N8    O63   1.301050 A    
C24   C28   1.524569 S    
H1    C29   1.111423 S    
C9    H21   1.110021 S    
C8    H16   1.103973 S    
C10   H18   1.110723 S    
P2    O18   1.748920 S    
C82   N10   1.431052 S    
P9    O41   1.748354 S    
O28   Ba4   2.852392 S    
C41   C45   1.396224 A    
P7    O27   1.539787 D    
O22   C30   1.412027 S    
C62   C66   1.425564 A    
O8    Ba3   2.803277 S    
C43   C47   1.396237 A    
C74   H66   1.082275 S    
C49   C53   1.411083 A    
N1    O49   1.299951 A    
H2    C30   1.112229 S    
O10   P13   1.753393 S    
C73   H65   1.082444 S    
O37   C14   1.393694 S    
C68   C84   1.418701 A    
C13   H25   1.106886 S    
P6    Ba2   3.440467 S    
C19   H39   1.106350 S    
O12   P15   1.753401 S    
C15   H27   1.106887 S    
C14   H26   1.106814 S    
Ba2   O46   2.803389 S    
O12   Ba4   2.783962 S    
C41   H61   1.082127 S    
C6    C10   1.523607 S    
C77   C81   1.404647 A    
P3    O7    1.566379 S    
P5    C70   1.875102 S    
P11   O35   1.547115 D    
C54   C88   1.412572 A    
Ba1   O46   2.973471 S    
C33   H69   1.075305 S    
P4    C40   1.863667 S    
C48   C52   1.393075 A    
P14   C45   1.843423 S    
C11   H59   1.109591 S    
Ba3   O48   2.973471 S    
C22   H50   1.110677 S    
O24   P15   1.767377 S    
C86   F18   1.352256 S    
C70   C74   1.402747 A    
O38   C13   1.396922 S    
C81   N9    1.429234 S    
P7    C72   1.875149 S    
O20   C24   1.396972 S    
C69   C73   1.400195 A    
N12   O71   1.298334 A    
C16   C20   1.521044 S    
P6    C69   1.868809 S    
C27   F3    1.379718 S    
C12   H24   1.106530 S    
O7    Ba4   2.804977 S    
C45   C49   1.392685 A    
N9    O65   1.299341 A    
P6    O45   1.570329 S    
C25   F5    1.378041 S    
C23   C27   1.525382 S    
C9    H17   1.106278 S    
C44   C48   1.393075 A    
C34   C68   1.415957 A    
O3    Ba3   2.848669 S    
N6    O59   1.301050 A    
O13   P14   1.540424 D    
C66   C82   1.418681 A    
