data_mof_unit_34731.cif
_audit_creation_date              2012-12-11T17:36:14-0500
_audit_creation_method            fapswitch 2.2
_symmetry_space_group_name_H-M    P1
_symmetry_Int_Tables_number       1
_space_group_crystal_system       triclinic
_cell_length_a                    25.852053
_cell_length_b                    6.904151
_cell_length_c                    21.704517
_cell_angle_alpha                 89.999515
_cell_angle_beta                  96.051573
_cell_angle_gamma                 90.000046
_cell_volume                      3852.3747589

loop_
_atom_site_label
_atom_site_type_symbol
_atom_type_description
_atom_site_fract_x
_atom_site_fract_y
_atom_site_fract_z
_atom_type_partial_charge
O1    O     O_R   0.208650 0.594520 0.175450 -0.536735
O2    O     O_R   0.791350 0.405480 0.824550 -0.536735
O3    O     O_R   0.291350 0.094520 0.324550 -0.536734
O4    O     O_R   0.708650 0.905480 0.675450 -0.536734
O5    O     O_R   0.192980 0.260780 0.300160 -0.543790
O6    O     O_R   0.807020 0.739220 0.699840 -0.543791
O7    O     O_R   0.307020 0.760780 0.199840 -0.543791
O8    O     O_R   0.692980 0.239220 0.800160 -0.543791
C1    C     C_R   0.178821 0.432866 0.318460 0.694375
C2    C     C_R   0.821179 0.567134 0.681540 0.694376
C3    C     C_R   0.321179 0.932867 0.181540 0.694378
C4    C     C_R   0.678821 0.067133 0.818460 0.694377
O9    O     O_R   0.202550 0.264660 0.174420 -0.533256
O10   O     O_R   0.797450 0.735340 0.825580 -0.533256
O11   O     O_R   0.297450 0.764660 0.325580 -0.533257
O12   O     O_R   0.702550 0.235340 0.674420 -0.533257
O13   O     O_R   0.300990 0.096480 0.197920 -0.536781
O14   O     O_R   0.699010 0.903520 0.802080 -0.536781
O15   O     O_R   0.199010 0.596480 0.302080 -0.536781
O16   O     O_R   0.800990 0.403520 0.697920 -0.536782
C5    C     C_R   0.191078 0.433376 0.151132 0.813065
C6    C     C_R   0.808922 0.566624 0.848868 0.813064
C7    C     C_R   0.308922 0.933375 0.348868 0.813064
C8    C     C_R   0.691078 0.066625 0.651132 0.813064
O17   O     O_3   0.282290 0.427760 0.257860 -0.373557
O18   O     O_3   0.717710 0.572240 0.742140 -0.373557
O19   O     O_3   0.217710 0.927760 0.242140 -0.373557
O20   O     O_3   0.782290 0.072240 0.757860 -0.373557
V1    V     V_3+5 0.244010 0.152080 0.248540 1.479502
V2    V     V_3+5 0.755990 0.847920 0.751460 1.479502
V3    V     V_3+5 0.255990 0.652080 0.251460 1.479499
V4    V     V_3+5 0.744010 0.347920 0.748540 1.479499
C9    C     C_R   0.657615 0.060601 0.591741 -0.264464
C10   C     C_R   0.342385 0.939399 0.408259 -0.264465
C11   C     C_R   0.842385 0.560598 0.908259 -0.264464
C12   C     C_R   0.157615 0.439402 0.091741 -0.264464
C13   C     C_R   0.647200 0.114483 0.480992 0.578211
C14   C     C_R   0.352800 0.885517 0.519008 0.578211
C15   C     C_R   0.852801 0.614496 0.019007 0.578213
C16   C     C_R   0.147199 0.385504 0.980993 0.578213
C17   C     C_R   0.678754 0.108030 0.537086 0.553253
C18   C     C_R   0.321246 0.891970 0.462914 0.553253
C19   C     C_R   0.821246 0.608034 0.962913 0.553256
C20   C     C_R   0.178754 0.391966 0.037087 0.553256
C21   C     C_R   0.604177 0.020048 0.590016 -0.320856
C22   C     C_R   0.395823 0.979951 0.409984 -0.320856
C23   C     C_R   0.895823 0.520044 0.909984 -0.320861
C24   C     C_R   0.104177 0.479956 0.090015 -0.320860
C25   C     C_R   0.570713 0.028472 0.533466 0.029125
C26   C     C_R   0.429287 0.971528 0.466534 0.029125
C27   C     C_R   0.929287 0.528471 0.966534 0.029125
C28   C     C_R   0.070713 0.471528 0.033466 0.029125
C29   C     C_R   0.593526 0.076386 0.478702 -0.100717
C30   C     C_R   0.406474 0.923614 0.521298 -0.100717
C31   C     C_R   0.906475 0.576398 0.021297 -0.100715
C32   C     C_R   0.093525 0.423602 0.978703 -0.100715
C33   C     C_R   0.515579 0.993323 0.529366 0.116548
C34   C     C_R   0.484421 0.006677 0.470634 0.116548
C35   C     C_R   0.984421 0.493318 0.970635 0.116550
C36   C     C_R   0.015579 0.506682 0.029365 0.116550
C37   C     C_R   0.509464 0.054201 0.417967 -0.202027
C38   C     C_R   0.490536 0.945799 0.582033 -0.202027
C39   C     C_R   0.990537 0.554222 0.082031 -0.202028
C40   C     C_R   0.009463 0.445778 0.917968 -0.202028
C41   C     C_R   0.562635 0.087779 0.422053 -0.092535
C42   C     C_R   0.437365 0.912221 0.577947 -0.092535
C43   C     C_R   0.937366 0.587802 0.077945 -0.092536
C44   C     C_R   0.062633 0.412198 0.922055 -0.092536
H1    H     H_    0.579626 0.124196 0.379980 0.194249
H2    H     H_    0.420374 0.875804 0.620019 0.194249
H3    H     H_    0.920376 0.624231 0.120017 0.194249
H4    H     H_    0.079624 0.375769 0.879983 0.194249
H5    H     H_    0.409923 0.013413 0.366264 0.138358
H6    H     H_    0.590077 0.986587 0.633736 0.138358
H7    H     H_    0.090078 0.513422 0.133735 0.138360
H8    H     H_    0.909922 0.486578 0.866265 0.138360
H9    H     H_    0.489044 0.067322 0.372331 0.125089
H10   H     H_    0.510956 0.932677 0.627669 0.125089
H11   H     H_    0.010958 0.567356 0.127666 0.125089
H12   H     H_    0.989042 0.432644 0.872333 0.125089
C45   C     C_R   0.427408 0.793708 0.079470 -0.109153
C46   C     C_R   0.572592 0.206292 0.920530 -0.109153
C47   C     C_R   0.072590 0.293707 0.420528 -0.109153
C48   C     C_R   0.927410 0.706293 0.579472 -0.109153
H13   H     H_    0.445729 0.663210 0.064550 0.111277
H14   H     H_    0.554271 0.336790 0.935450 0.111277
H15   H     H_    0.054268 0.163211 0.435447 0.111277
H16   H     H_    0.945732 0.836789 0.564553 0.111277
C49   C     C_R   0.388151 0.778750 0.119423 -0.142241
C50   C     C_R   0.611849 0.221250 0.880577 -0.142241
C51   C     C_R   0.111847 0.278750 0.380575 -0.142242
C52   C     C_R   0.888153 0.721250 0.619425 -0.142242
H17   H     H_    0.377092 0.636412 0.134344 0.124586
H18   H     H_    0.622908 0.363588 0.865655 0.124586
H19   H     H_    0.122905 0.136412 0.365652 0.124585
H20   H     H_    0.877095 0.863587 0.634347 0.124585
C53   C     C_R   0.363490 0.945813 0.139611 -0.057551
C54   C     C_R   0.636510 0.054186 0.860389 -0.057551
C55   C     C_R   0.136511 0.445812 0.360389 -0.057553
C56   C     C_R   0.863489 0.554188 0.639611 -0.057553
C57   C     C_R   0.379373 0.127744 0.118651 -0.116785
C58   C     C_R   0.620627 0.872256 0.881348 -0.116786
C59   C     C_R   0.120628 0.627741 0.381350 -0.116785
C60   C     C_R   0.879372 0.372259 0.618650 -0.116785
H21   H     H_    0.361454 0.259914 0.132827 0.136010
H22   H     H_    0.638546 0.740086 0.867173 0.136010
H23   H     H_    0.138550 0.759911 0.367176 0.136015
H24   H     H_    0.861450 0.240089 0.632824 0.136015
C61   C     C_R   0.418509 0.142198 0.078829 -0.111161
C62   C     C_R   0.581491 0.857802 0.921170 -0.111161
C63   C     C_R   0.081493 0.642195 0.421172 -0.111162
C64   C     C_R   0.918507 0.357805 0.578828 -0.111162
H25   H     H_    0.429771 0.283909 0.063464 0.112343
H26   H     H_    0.570229 0.716091 0.936535 0.112343
H27   H     H_    0.070233 0.783905 0.436539 0.112346
H28   H     H_    0.929767 0.216095 0.563461 0.112346
C65   C     C_R   0.442767 0.975589 0.058902 0.122107
C66   C     C_R   0.557233 0.024411 0.941098 0.122107
C67   C     C_R   0.057233 0.475588 0.441098 0.122106
C68   C     C_R   0.942767 0.524412 0.558902 0.122107
C69   C     C_1   0.483158 0.992333 0.017360 -0.028406
C70   C     C_1   0.516842 0.007666 0.982640 -0.028406
C71   C     C_1   0.016842 0.492333 0.482640 -0.028405
C72   C     C_1   0.983158 0.507667 0.517360 -0.028405
F1    F     F_    0.269781 0.850701 0.461791 -0.640034
F2    F     F_    0.730219 0.149299 0.538209 -0.640034
F3    F     F_    0.230219 0.350693 0.038210 -0.640035
F4    F     F_    0.769781 0.649307 0.961790 -0.640035
F5    F     F_    0.669158 0.160881 0.428747 -0.618049
F6    F     F_    0.330842 0.839119 0.571253 -0.618049
F7    F     F_    0.830844 0.660905 0.071250 -0.618052
F8    F     F_    0.169156 0.339095 0.928749 -0.618052

loop_
_geom_bond_atom_site_label_1
_geom_bond_atom_site_label_2
_ccdc_geom_bond_type
O17   V3    S    
C55   C59   A    
C20   F3    S    
O1    C5    A    
O19   V1    S    
C9    C21   A    
O3    C7    A    
C10   C18   A    
O1    V3    S    
O15   V3    S    
C62   C66   A    
C61   C65   A    
C71   C72   T    
C5    C12   S    
C39   H11   S    
O7    C3    A    
C6    C11   S    
C35   C40   A    
C26   C30   A    
C36   C39   A    
C14   F6    S    
O2    V4    S    
O9    V1    S    
C23   H8    S    
C14   C18   A    
C13   C17   A    
O4    C8    A    
C25   C29   A    
C44   H4    S    
C43   H3    S    
C57   C61   A    
C45   C65   A    
C60   H24   S    
C52   H20   S    
O13   V1    S    
C59   C63   A    
C66   C70   S    
C47   C67   A    
O3    V1    S    
C65   C69   S    
C28   C36   A    
C18   F1    S    
C68   C72   S    
C1    O15   A    
C56   C60   A    
C15   C31   A    
C2    O16   A    
C16   C32   A    
O2    C6    A    
C58   H22   S    
C10   C22   A    
C21   C25   A    
C11   C19   A    
C62   H26   S    
C16   C20   A    
C4    C54   S    
C48   C68   A    
C13   C29   A    
C34   C37   A    
O11   C7    A    
C16   F8    S    
C11   C23   A    
C35   C36   A    
O12   C8    A    
O17   V1    S    
C40   H12   S    
C24   H7    S    
O10   V2    S    
C50   H18   S    
O5    V1    S    
C57   H21   S    
C39   C43   A    
O7    V3    S    
C38   C42   A    
O19   V3    S    
C26   C34   A    
C33   C38   A    
C37   H9    S    
C64   C68   A    
O18   V4    S    
C15   C19   A    
C54   C58   A    
O4    V2    S    
C49   C53   A    
C21   H6    S    
O8    V4    S    
C19   F4    S    
O5    C1    A    
C63   H27   S    
C31   C43   A    
C14   C30   A    
O20   V4    S    
O8    C4    A    
C7    C10   S    
O9    C5    A    
C2    C56   S    
C69   C70   T    
O14   V2    S    
C63   C67   A    
O6    V2    S    
O18   V2    S    
C67   C71   S    
C58   C62   A    
C27   C35   A    
C46   C66   A    
C40   C44   A    
C64   H28   S    
C29   C41   A    
C52   C56   A    
C60   C64   A    
O16   V4    S    
C3    O13   A    
C17   F2    S    
C38   H10   S    
C48   H16   S    
C47   H15   S    
O6    C2    A    
C25   C33   A    
C23   C27   A    
O11   V3    S    
C30   C42   A    
C61   H25   S    
O12   V4    S    
C47   C51   A    
C22   C26   A    
C8    C9    S    
C46   C50   A    
C3    C53   S    
C9    C17   A    
O10   C6    A    
O20   V2    S    
C45   C49   A    
C32   C44   A    
C46   H14   S    
C33   C34   A    
C42   H2    S    
C15   F7    S    
C41   H1    S    
C13   F5    S    
C12   C24   A    
C27   C31   A    
C49   H17   S    
C45   H13   S    
C12   C20   A    
C51   H19   S    
C37   C41   A    
C24   C28   A    
C1    C55   S    
C4    O14   A    
C59   H23   S    
C48   C52   A    
C51   C55   A    
C50   C54   A    
C22   H5    S    
C53   C57   A    
C28   C32   A    
