data_mof_unit_48919.cif
_audit_creation_date              2013-03-05T15:43:04-0500
_audit_creation_method            fapswitch 2.2
_symmetry_space_group_name_H-M    P1
_symmetry_Int_Tables_number       1
_space_group_crystal_system       triclinic
_cell_length_a                    9.681524
_cell_length_b                    10.943862
_cell_length_c                    15.359058
_cell_angle_alpha                 90.099967
_cell_angle_beta                  74.286647
_cell_angle_gamma                 90.860657
_cell_volume                      1566.34504179

loop_
_atom_site_label
_atom_site_type_symbol
_atom_site_description
_atom_site_fract_x
_atom_site_fract_y
_atom_site_fract_z
_atom_type_partial_charge
O1    O     O_R   0.117050 0.321960 0.499980 -0.577582
O2    O     O_R   0.882890 0.321920 0.500020 -0.552281
C1    C     C_R   0.997598 0.265375 0.502254 0.891873
O3    O     O_R   0.052910 0.500040 0.629810 -0.586807
O4    O     O_R   0.818750 0.499990 0.629840 -0.583034
C2    C     C_R   0.917743 0.502698 0.673032 0.775621
Cu1   Cu    Cu3+1 0.138640 0.500020 0.499980 0.972110
Cu2   Cu    Cu3+1 0.861360 0.499980 0.500020 0.977260
O5    O     O_R   0.117110 0.678080 0.499980 -0.571183
O6    O     O_R   0.882950 0.678040 0.500020 -0.575552
O7    O     O_R   0.181250 0.500010 0.370160 -0.543000
O8    O     O_R   0.947090 0.499960 0.370190 -0.572863
C3    C     C_R   0.002917 0.734349 0.496109 0.879199
C4    C     C_R   0.082459 0.498895 0.327534 0.885710
C5    C     C_R   0.873724 0.506747 0.773466 -0.080005
C6    C     C_R   0.126475 0.482603 0.229103 -0.148891
C7    C     C_R   0.913928 0.540711 0.921410 -0.165119
C8    C     C_R   0.968910 0.535855 0.827198 0.145913
C9    C     C_R   0.728232 0.482615 0.816515 -0.275485
C10   C     C_R   0.673275 0.486522 0.910991 0.086693
C11   C     C_R   0.768561 0.518102 0.963076 0.135675
C12   C     C_R   0.525695 0.462540 0.955261 0.087073
C13   C     C_R   0.473623 0.486919 0.049223 0.095962
C14   C     C_R   0.573657 0.509250 0.099343 -0.130152
C15   C     C_R   0.718441 0.525487 0.056915 -0.157116
C16   C     C_R   0.429907 0.409936 0.910288 -0.226185
C17   C     C_R   0.288963 0.380751 0.956768 -0.179247
C18   C     C_R   0.234707 0.411364 0.048043 0.059374
C19   C     C_R   0.324352 0.475994 0.092370 0.005509
C20   C     C_R   0.093361 0.378110 0.096598 0.245390
C21   C     C_R   0.042632 0.410012 0.187501 -0.238196
C22   C     C_R   0.261433 0.525579 0.178864 0.175536
H1    H     H_    0.791557 0.544215 0.097900 0.164637
H2    H     H_    0.938301 0.376224 0.226133 0.217807
H3    H     H_    0.222684 0.335089 0.919820 0.185537
H4    H     H_    0.984888 0.564254 0.962975 0.146414
H5    H     H_    0.657610 0.464525 0.774494 0.158249
H6    H     H_    0.541996 0.508821 0.172397 0.188289
H7    H     H_    0.462962 0.382317 0.840413 0.135601
C23   C     C_2   0.897789 0.931737 0.487219 -0.172655
C24   C     C_2   0.013102 0.865270 0.484319 -0.354272
H8    H     H_    0.793914 0.888990 0.492244 0.194265
H9    H     H_    0.118263 0.908714 0.473170 0.175187
C25   C     C_2   0.912524 0.063649 0.474612 0.238046
C26   C     C_2   0.983254 0.135146 0.521472 -0.054845
C27   C     C_2   0.398199 0.429891 0.552551 -0.068098
N1    N     N_2   0.346430 0.498660 0.500980 -0.271868
H10   H     H_    0.325485 0.368432 0.599271 0.142857
H11   H     H_    0.413889 0.556233 0.455683 0.213805
C28   C     C_2   0.554357 0.428763 0.551735 -0.032856
N2    N     N_2   0.652550 0.498630 0.501000 -0.273178
H12   H     H_    0.585300 0.365298 0.597025 0.148461
H13   H     H_    0.624861 0.560126 0.458582 0.200524
Br1   Br    Br    0.970214 0.277265 0.046168 -0.515842
Br2   Br    Br    0.836427 0.124746 0.379483 -0.461538
C29   C     C_3   0.035457 0.090167 0.601218 -0.463481
C30   C     C_3   0.977131 0.166546 0.686480 -0.799600
H14   H     H_    0.026937 0.259193 0.678112 0.244884
H15   H     H_    0.858634 0.174118 0.701742 0.252251
H16   H     H_    0.003634 0.122339 0.744860 0.256058
H17   H     H_    0.001352 0.994901 0.620932 0.228061
H18   H     H_    0.154636 0.094267 0.582299 0.222576
Br3   Br    Br    0.335507 0.674549 0.219585 -0.497984
C31   C     C_3   0.127276 0.566153 0.788745 -0.394043
C32   C     C_3   0.150503 0.694512 0.747783 -0.755233
H19   H     H_    0.266836 0.710881 0.716179 0.237645
H20   H     H_    0.092252 0.706691 0.695435 0.251484
H21   H     H_    0.112135 0.763695 0.801654 0.246563
H22   H     H_    0.183839 0.563249 0.842785 0.198299
H23   H     H_    0.181136 0.496153 0.739519 0.211792

loop_
_geom_bond_atom_site_label_1
_geom_bond_atom_site_label_2
_geom_bond_distance
_ccdc_geom_bond_type
O1    C1    1.295692 A    
O4    Cu2   1.923626 S    
C14   H6    1.080113 S    
C13   C14   1.409361 A    
C14   C15   1.385365 A    
C7    H4    1.085159 S    
C31   H23   1.107625 S    
C6    C22   1.400186 A    
C24   H9    1.087774 S    
C27   C28   1.508744 S    
C5    C8    1.426188 A    
C28   H12   1.084820 S    
C9    C10   1.404567 A    
C25   Br2   1.930258 S    
O8    C4    1.297045 A    
Cu2   O8    1.941324 S    
C32   H21   1.111588 S    
C17   H3    1.081729 S    
C31   C32   1.528606 S    
C18   C20   1.412255 A    
C28   N2    1.294060 D    
C2    C5    1.485722 S    
C21   H2    1.083509 S    
Cu1   Cu2   2.684320 S    
N1    H11   1.024992 S    
C27   N1    1.293612 D    
C31   H22   1.112028 S    
C29   C30   1.530451 S    
C6    C21   1.399322 A    
Cu1   O7    1.923626 S    
C20   Br1   1.922780 S    
Cu2   N2    2.017407 S    
C8    C31   1.518050 S    
C16   C17   1.390580 A    
O4    C2    1.304980 A    
O3    Cu1   1.941321 S    
O1    Cu1   1.956718 S    
C13   C19   1.420678 A    
C3    C24   1.443042 S    
C18   C19   1.420199 A    
C10   C12   1.426818 A    
C7    C8    1.401203 A    
C19   C22   1.414022 A    
O2    C1    1.287939 A    
C12   C13   1.420110 A    
C20   C21   1.394445 A    
O7    C4    1.297056 A    
C29   H18   1.111153 S    
C16   H7    1.077641 S    
C30   H15   1.111341 S    
Cu1   N1    2.016217 S    
C27   H10   1.084782 S    
C23   C25   1.456615 S    
C10   C11   1.414080 A    
C26   C29   1.530623 S    
O3    C2    1.297907 A    
C32   H19   1.111009 S    
C12   C16   1.413542 A    
C17   C18   1.399380 A    
Cu1   O5    1.962890 S    
O5    C3    1.288878 A    
C29   H17   1.106464 S    
C23   C24   1.332216 D    
C30   H16   1.110750 S    
C11   C15   1.393285 A    
C9    H5    1.075972 S    
N2    H13   1.025086 S    
C4    C6    1.466741 S    
C5    C9    1.405700 A    
C1    C26   1.452914 S    
Cu2   O6    1.956717 S    
O2    Cu2   1.962891 S    
C25   C26   1.359436 D    
C30   H14   1.108722 S    
C22   Br3   1.941040 S    
C15   H1    1.084385 S    
C23   H8    1.086341 S    
C32   H20   1.109272 S    
O6    C3    1.293515 A    
C7    C11   1.397756 A    
