data_mof_unit_65580.cif
_audit_creation_date              2012-10-26T19:35:15-0400
_audit_creation_method            fapswitch 2.2
_symmetry_space_group_name_H-M    P1
_symmetry_Int_Tables_number       1
_space_group_crystal_system       triclinic
_cell_length_a                    10.806074
_cell_length_b                    10.815464
_cell_length_c                    9.524316
_cell_angle_alpha                 89.702058
_cell_angle_beta                  89.346071
_cell_angle_gamma                 91.31036
_cell_volume                      1112.75238995

loop_
_atom_site_label
_atom_site_type_symbol
_atom_type_description
_atom_site_fract_x
_atom_site_fract_y
_atom_site_fract_z
_atom_type_partial_charge
C1    C     C_R   0.500891 0.262308 0.500002 0.539867
C2    C     C_R   0.507560 0.936469 0.370598 -0.161159
C3    C     C_R   0.505933 0.871030 0.498334 -0.002791
C4    C     C_R   0.262304 0.489745 0.501387 0.537149
C5    C     C_R   0.516853 0.936015 0.623897 0.029476
C6    C     C_3   0.436030 0.929004 0.752238 -0.253106
C7    C     C_3   0.439745 0.069094 0.752220 -0.284248
C8    C     C_R   0.553557 0.596363 0.072511 0.175007
C9    C     C_R   0.438064 0.410663 0.075825 -0.015004
C10   C     C_R   0.438843 0.410191 0.926975 -0.018704
C11   C     C_R   0.552669 0.597407 0.924861 0.162250
C12   C     C_R   0.060828 0.410464 0.613595 -0.016287
C13   C     C_3   0.684970 0.642909 0.916546 0.154775
C14   C     C_3   0.685862 0.638324 0.077197 0.170154
C15   C     C_R   0.499671 0.737672 0.499620 0.547538
C16   C     C_R   0.736828 0.489022 0.499621 0.524556
C17   C     C_R   0.119246 0.349446 0.726518 -0.099278
C18   C     C_R   0.049841 0.293300 0.835509 0.269269
C19   C     C_R   0.921687 0.286961 0.827196 -0.110131
C20   C     C_R   0.862424 0.338366 0.712932 -0.170042
C21   C     C_R   0.929634 0.407039 0.609152 0.010778
C22   C     C_3   0.777108 0.778050 0.749877 0.015148
C23   C     C_R   0.127887 0.473627 0.503687 -0.002109
C24   C     C_3   0.912742 0.781862 0.796142 -0.287681
C25   C     C_3   0.000678 0.792776 0.669969 -0.483279
C26   C     C_3   0.822795 0.792057 0.156717 0.040555
C27   C     C_3   0.848205 0.826977 0.309995 -0.265549
C28   C     C_3   0.832136 0.964903 0.336270 -0.437367
C29   C     C_3   0.157258 0.136012 0.937794 -0.004103
C30   C     C_3   0.105405 0.047972 0.051030 -0.256863
C31   C     C_3   0.168462 0.923146 0.046548 -0.488994
C32   C     C_R   0.065234 0.523510 0.389902 -0.155082
C33   C     C_R   0.938194 0.521414 0.387658 -0.172416
C34   C     C_R   0.869724 0.470277 0.499108 -0.002479
C35   C     C_R   0.519598 0.063454 0.623912 0.016944
C36   C     C_R   0.509200 0.129304 0.498598 0.006191
C37   C     C_R   0.509246 0.065074 0.370694 -0.178040
Cu1   Cu    Cu3+1 0.499990 0.499980 0.640670 0.921937
Cu2   Cu    Cu3+1 0.500010 0.500020 0.359330 0.951951
H1    H     H_    0.114619 0.569602 0.304072 0.139880
H2    H     H_    0.867699 0.240801 0.909289 0.122784
H3    H     H_    0.763743 0.321971 0.707562 0.156576
H4    H     H_    0.893331 0.565313 0.300689 0.126311
H5    H     H_    0.506032 0.113462 0.270983 0.132387
H6    H     H_    0.503678 0.888927 0.270893 0.178204
H7    H     H_    0.342473 0.888733 0.731165 0.125621
H8    H     H_    0.758386 0.866841 0.696045 0.147283
H9    H     H_    0.760882 0.704995 0.670874 0.158632
H10   H     H_    0.928808 0.863074 0.864709 0.154411
H11   H     H_    0.934321 0.696724 0.855867 0.154809
H12   H     H_    0.483609 0.888272 0.843680 0.192160
H13   H     H_    0.985419 0.713861 0.597841 0.161282
H14   H     H_    0.097991 0.791825 0.706001 0.148207
H15   H     H_    0.985939 0.880710 0.612502 0.143056
H16   H     H_    0.841952 0.873208 0.087564 0.163116
H17   H     H_    0.889977 0.720604 0.123812 0.071741
H18   H     H_    0.785453 0.772541 0.381479 0.184114
H19   H     H_    0.944863 0.803571 0.336459 0.110116
H20   H     H_    0.911069 0.018611 0.289177 0.134127
H21   H     H_    0.829056 0.982880 0.450904 0.133638
H22   H     H_    0.745507 0.997163 0.288757 0.185862
H23   H     H_    0.349066 0.110570 0.729317 0.115577
H24   H     H_    0.258785 0.145922 0.951836 0.131877
H25   H     H_    0.140072 0.094085 0.832465 0.113165
H26   H     H_    0.119573 0.089668 0.156252 0.178986
H27   H     H_    0.004411 0.033912 0.035122 0.146099
H28   H     H_    0.156943 0.879834 0.942000 0.145569
H29   H     H_    0.126190 0.860553 0.127464 0.140470
H30   H     H_    0.268819 0.934996 0.068345 0.153554
H31   H     H_    0.489939 0.109260 0.843098 0.130809
H32   H     H_    0.389746 0.337049 0.132690 0.134127
H33   H     H_    0.392490 0.335509 0.872518 0.115087
H34   H     H_    0.748000 0.574404 0.868170 0.078937
H35   H     H_    0.745102 0.565513 0.122157 0.070245
H36   H     H_    0.217956 0.342808 0.733168 0.138823
N1    N     N_R   0.500790 0.500930 0.147930 -0.266218
N2    N     N_R   0.500790 0.500890 0.852020 -0.266706
O1    O     O_R   0.500000 0.319640 0.618810 -0.520407
O2    O     O_3   0.696698 0.755723 0.141706 -0.528029
O3    O     O_3   0.106050 0.253953 0.956875 -0.577959
O4    O     O_R   0.500010 0.319680 0.381230 -0.516023
O5    O     O_R   0.319640 0.499980 0.618820 -0.509037
O6    O     O_R   0.319650 0.500020 0.381230 -0.497656
O7    O     O_R   0.499990 0.680320 0.618770 -0.483530
O8    O     O_R   0.500000 0.680360 0.381190 -0.478259
O9    O     O_R   0.680350 0.499980 0.618770 -0.531410
O10   O     O_R   0.680360 0.500020 0.381180 -0.499163
O11   O     O_3   0.694077 0.766472 0.865537 -0.552078

loop_
_geom_bond_atom_site_label_1
_geom_bond_atom_site_label_2
_ccdc_geom_bond_type
C22   H9    S    
C29   H24   S    
C19   C20   A    
Cu2   O10   S    
C26   H16   S    
C7    H31   S    
C31   H28   S    
C4    O6    A    
C12   C23   A    
C26   C27   S    
Cu1   O9    S    
C14   H35   S    
C36   C37   A    
C25   H14   S    
C15   O7    A    
C5    C6    S    
C1    O4    A    
C8    N1    A    
C18   C19   A    
C11   N2    A    
C16   C34   S    
C35   C36   A    
C12   C17   A    
C16   O10   A    
C9    N1    A    
C22   O11   S    
C6    H12   S    
C9    C10   A    
C15   O8    A    
C28   H22   S    
C22   H8    S    
C29   H25   S    
C13   C14   S    
Cu1   O5    S    
C16   O9    A    
C1    O1    A    
C10   N2    A    
C17   C18   A    
C28   H21   S    
C2    H6    S    
C24   H11   S    
C31   H29   S    
C33   H4    S    
Cu1   Cu2   S    
C25   H15   S    
Cu2   O4    S    
C27   H18   S    
C4    C23   S    
C21   C34   A    
Cu1   O1    S    
Cu2   N1    S    
C12   C21   A    
C7    H23   S    
C29   C30   S    
C33   C34   A    
C14   O2    S    
C24   C25   S    
C30   H27   S    
C13   H34   S    
C22   C24   S    
Cu2   O8    S    
C3    C15   S    
C28   H20   S    
C24   H10   S    
C8    C14   S    
C6    H7    S    
Cu1   O7    S    
C7    C35   S    
C9    H32   S    
C3    C5    A    
C27   H19   S    
C26   H17   S    
C20   H3    S    
C6    C7    S    
Cu1   N2    S    
C26   O2    S    
C32   C33   A    
C37   H5    S    
C2    C3    A    
C25   H13   S    
Cu2   O6    S    
C23   C32   A    
C11   C13   S    
C2    C37   A    
C30   C31   S    
C29   O3    S    
C8    C11   A    
C5    C35   A    
C13   O11   S    
C32   H1    S    
C30   H26   S    
C31   H30   S    
C4    O5    A    
C20   C21   A    
C18   O3    S    
C27   C28   S    
C17   H36   S    
C19   H2    S    
C1    C36   S    
C10   H33   S    
