data_mof_unit_29679.cif
_audit_creation_date              2012-12-11T14:34:07-0500
_audit_creation_method            fapswitch 2.2
_symmetry_space_group_name_H-M    P1
_symmetry_Int_Tables_number       1
_space_group_crystal_system       triclinic
_cell_length_a                    14.232193
_cell_length_b                    14.246419
_cell_length_c                    27.34024
_cell_angle_alpha                 89.399664
_cell_angle_beta                  90.138924
_cell_angle_gamma                 119.956062
_cell_volume                      4802.60075905

loop_
_atom_site_label
_atom_site_type_symbol
_atom_type_description
_atom_site_fract_x
_atom_site_fract_y
_atom_site_fract_z
_atom_type_partial_charge
C1    C     C_R   0.236011 0.785285 0.569178 0.531372
C2    C     C_1   0.734040 0.874347 0.857317 0.017867
C3    C     C_1   0.138469 0.870898 0.857357 0.015078
C4    C     C_1   0.164172 0.309600 0.863638 0.019127
C5    C     C_1   0.604691 0.803158 0.661445 0.111854
C6    C     C_1   0.188857 0.805688 0.659570 0.056005
C7    C     C_1   0.191480 0.379526 0.659932 0.060969
C8    C     C_1   0.582686 0.786380 0.618917 0.122413
C9    C     C_1   0.206695 0.797871 0.617373 0.099685
C10   C     C_1   0.198586 0.404291 0.617329 0.101977
C11   C     C_R   0.069214 0.156142 0.096333 0.553804
C12   C     C_R   0.213607 0.449022 0.569058 0.535167
C13   C     C_R   0.779319 0.884091 0.088442 0.598190
C14   C     C_R   0.115399 0.894337 0.088522 0.594112
C15   C     C_R   0.107018 0.220620 0.951462 0.569038
C16   C     C_R   0.828081 0.905284 0.943108 0.521135
C17   C     C_R   0.096339 0.923800 0.943072 0.516896
C18   C     C_R   0.620792 0.897762 0.361984 0.250325
C19   C     C_R   0.101657 0.726320 0.362760 0.260187
C20   C     C_R   0.262257 0.357114 0.366657 0.223164
C21   C     C_R   0.630836 0.900861 0.310851 0.079292
C22   C     C_R   0.098767 0.729840 0.311388 0.074526
C23   C     C_R   0.546815 0.761897 0.569776 0.538798
C24   C     C_R   0.249056 0.326430 0.317102 0.015790
C25   C     C_R   0.659483 0.910157 0.208128 0.074798
C26   C     C_R   0.086498 0.742927 0.208526 0.018119
C27   C     C_R   0.218998 0.260502 0.218063 0.044583
C28   C     C_R   0.232042 0.788692 0.432408 0.517982
C29   C     C_R   0.211207 0.444331 0.432237 0.585356
C30   C     C_R   0.556250 0.768222 0.432498 0.560452
C31   C     C_R   0.603800 0.957981 0.229794 0.254905
C32   C     C_R   0.026661 0.641793 0.232891 0.248919
C33   C     C_R   0.324501 0.312510 0.239120 0.290846
C34   C     C_3   0.696610 0.752928 0.786397 0.417768
C35   C     C_R   0.596913 0.960449 0.281309 0.271632
C36   C     C_R   0.028457 0.636176 0.284324 0.344759
C37   C     C_R   0.339409 0.350008 0.287699 0.258421
C38   C     C_R   0.685603 0.922107 0.157402 0.263546
C39   C     C_R   0.067139 0.758906 0.158839 0.228645
C40   C     C_R   0.199518 0.223237 0.168953 0.265836
C41   C     C_R   0.733233 0.865154 0.137762 -0.037592
C42   C     C_R   0.138559 0.857855 0.135422 -0.021459
C43   C     C_R   0.095446 0.186607 0.147999 -0.039375
C44   C     C_R   0.673567 0.759510 0.367733 0.236546
C45   C     C_3   0.249321 0.958968 0.781471 0.425182
C46   C     C_R   0.246988 0.914366 0.364897 0.258786
C47   C     C_R   0.078104 0.326681 0.368398 0.221677
C48   C     C_R   0.706316 0.779294 0.318406 -0.009871
C49   C     C_R   0.244527 0.921872 0.313375 0.042062
C50   C     C_R   0.056804 0.272591 0.323281 -0.009548
C51   C     C_R   0.674863 0.841916 0.289055 -0.112111
C52   C     C_R   0.170829 0.827723 0.286694 -0.130979
C53   C     C_R   0.145166 0.281409 0.295763 -0.104749
C54   C     C_R   0.764862 0.734089 0.297231 0.232547
C55   C     C_R   0.315937 0.018918 0.287443 0.276739
C56   C     C_3   0.065728 0.320504 0.789939 0.423092
C57   C     C_R   0.950890 0.216175 0.303700 0.234656
C58   C     C_R   0.773035 0.732804 0.246302 0.263063
C59   C     C_R   0.317209 0.019377 0.236029 0.225461
C60   C     C_R   0.936369 0.188652 0.254074 0.271343
C61   C     C_R   0.737000 0.790649 0.217299 0.011836
C62   C     C_R   0.238960 0.928731 0.210602 0.008957
C63   C     C_R   0.025330 0.203655 0.225943 0.026740
C64   C     C_3   0.547404 0.830298 0.745229 0.100696
C65   C     C_3   0.178036 0.730868 0.744191 0.116888
C66   C     C_3   0.283178 0.458196 0.738794 0.105034
C67   C     C_3   0.642752 0.725670 0.734866 0.128623
C68   C     C_R   0.691005 0.848328 0.238218 -0.074106
C69   C     C_R   0.165414 0.832985 0.235379 -0.074840
C70   C     C_R   0.129900 0.247836 0.246668 -0.080230
C71   C     C_R   0.751290 0.795044 0.167328 -0.119580
C72   C     C_R   0.230640 0.934879 0.160248 -0.097459
C73   C     C_R   0.010336 0.175589 0.176875 -0.130463
C74   C     C_R   0.625063 0.814385 0.388669 -0.004851
C75   C     C_R   0.187491 0.812522 0.387950 -0.065209
C76   C     C_R   0.182225 0.371478 0.389629 0.049350
C77   C     C_3   0.748806 0.930234 0.717088 0.471241
C78   C     C_3   0.270835 0.929780 0.729136 0.111090
C79   C     C_3   0.063765 0.819748 0.719960 0.477558
C80   C     C_3   0.185516 0.251060 0.726361 0.478802
C81   C     C_3   0.774843 0.958271 0.773323 0.400694
C82   C     C_3   0.045456 0.820533 0.777218 0.440675
C83   C     C_3   0.195568 0.243891 0.784277 0.449203
C84   C     C_1   0.774371 0.888772 0.897199 0.039977
C85   C     C_1   0.118633 0.891182 0.897335 0.036704
C86   C     C_1   0.143357 0.275634 0.905148 0.034606
C87   C     C_3   0.635830 0.823721 0.713148 -0.101758
C88   C     C_3   0.173447 0.820150 0.711592 -0.137605
C89   C     C_3   0.081692 0.354162 0.734378 0.112777
C90   C     C_3   0.185686 0.359013 0.713279 -0.129086
C91   C     C_3   0.576964 0.838566 0.801507 0.409505
C92   C     C_3   0.180710 0.757092 0.800340 0.402192
C93   C     C_3   0.271775 0.448346 0.796244 0.394466
C94   C     C_3   0.695441 0.856629 0.806222 -0.024299
C95   C     C_3   0.154177 0.851807 0.805728 -0.029585
C96   C     C_3   0.175566 0.331958 0.810138 -0.026073
Cl1   Cl    Cl    0.483859 0.717788 0.833976 -0.421299
Cl2   Cl    Cl    0.524817 0.936889 0.724508 -0.369846
Cl3   Cl    Cl    0.071100 0.598197 0.729329 -0.368026
Cl4   Cl    Cl    0.410729 0.479175 0.716819 -0.385763
Cl5   Cl    Cl    0.752677 0.039876 0.680918 -0.306907
Cl6   Cl    Cl    0.949928 0.708389 0.689563 -0.295271
Cl7   Cl    Cl    0.289929 0.241445 0.693116 -0.299839
Cl8   Cl    Cl    0.762264 0.074832 0.789556 -0.303190
Cl9   Cl    Cl    0.937631 0.690027 0.799756 -0.322115
Cl10  Cl    Cl    0.326883 0.262000 0.802367 -0.324561
Cl11  Cl    Cl    0.693402 0.662113 0.694111 -0.293471
Cl12  Cl    Cl    0.312214 0.796857 0.825055 -0.408807
Cl13  Cl    Cl    0.323351 0.038675 0.685015 -0.353923
Cl14  Cl    Cl    0.961907 0.283659 0.697492 -0.344265
Cl15  Cl    Cl    0.244185 0.549941 0.818318 -0.427932
Cl16  Cl    Cl    0.666297 0.010931 0.118119 -0.423792
Cl17  Cl    Cl    0.948532 0.663179 0.127787 -0.479607
Cl18  Cl    Cl    0.302310 0.217702 0.134359 -0.422092
Cl19  Cl    Cl    0.843755 0.695321 0.333333 -0.524740
Cl20  Cl    Cl    0.402090 0.143506 0.316969 -0.487468
Cl21  Cl    Cl    0.834402 0.165376 0.341673 -0.511371
Cr1   Cr    Cr6+3 0.164410 0.584450 0.499910 1.141148
Cr2   Cr    Cr6+3 0.415550 0.579960 0.499910 1.164631
Cr3   Cr    Cr6+3 0.420040 0.835590 0.499910 1.136443
Cr4   Cr    Cr6+3 0.155170 0.075460 0.019960 1.130705
Cr5   Cr    Cr6+3 0.924540 0.079710 0.019960 1.127661
Cr6   Cr    Cr6+3 0.920290 0.844830 0.019960 1.129932
H1    H     H_    0.467862 0.755525 0.739452 0.149283
H2    H     H_    0.577870 0.920788 0.858912 0.373772
H3    H     H_    0.119028 0.678531 0.862054 0.372627
H4    H     H_    0.363566 0.471801 0.853535 0.380360
H5    H     H_    0.835073 0.796807 0.752570 0.446868
H6    H     H_    0.193284 0.045484 0.748383 0.449797
H7    H     H_    0.974742 0.172119 0.768468 0.435993
H8    H     H_    0.642506 0.992086 0.416016 0.360560
H9    H     H_    0.008650 0.663757 0.419253 0.355700
H10   H     H_    0.375319 0.324001 0.381741 0.399609
H11   H     H_    0.485341 0.984324 0.217182 0.330513
H12   H     H_    0.253052 0.728774 0.734792 0.151816
H13   H     H_    0.017317 0.551586 0.179040 0.365303
H14   H     H_    0.469156 0.331413 0.233315 0.368064
H15   H     H_    0.568624 0.080521 0.281625 0.357399
H16   H     H_    0.913620 0.483232 0.286354 0.379431
H17   H     H_    0.489542 0.464124 0.278368 0.338762
H18   H     H_    0.813559 0.620772 0.245857 0.387154
H19   H     H_    0.458721 0.149864 0.228538 0.372875
H20   H     H_    0.791100 0.169494 0.250490 0.379676
H21   H     H_    0.649998 0.614891 0.374425 0.380830
H22   H     H_    0.277071 0.994196 0.425433 0.342163
H23   H     H_    0.283512 0.533293 0.726731 0.137882
H24   H     H_    0.970269 0.370107 0.364785 0.387439
H25   H     H_    0.896144 0.980708 0.692624 0.420003
H26   H     H_    0.077755 0.909800 0.662408 0.364883
H27   H     H_    0.084216 0.164537 0.674513 0.363121
H28   H     H_    0.903188 0.013727 0.815422 0.363057
H29   H     H_    0.986203 0.888205 0.820407 0.350235
H30   H     H_    0.134251 0.126373 0.833795 0.343643
H31   H     H_    0.680778 0.670253 0.846919 0.385813
H32   H     H_    0.337233 0.031310 0.839161 0.385960
H33   H     H_    0.010609 0.358045 0.848001 0.384655
H34   H     H_    0.786108 0.749707 0.151671 0.243695
H35   H     H_    0.289725 0.007290 0.141065 0.251360
H36   H     H_    0.930727 0.143299 0.160489 0.209584
H37   H     H_    0.558777 0.661503 0.741104 0.220505
H38   H     H_    0.339529 0.915793 0.732747 0.229760
H39   H     H_    0.096858 0.437268 0.732177 0.226859
O1    O     O_R   0.137150 0.468200 0.553200 -0.470036
O2    O     O_R   0.140110 0.470540 0.446010 -0.433657
O3    O     O_R   0.529460 0.669570 0.446010 -0.428683
O4    O     O_R   0.330430 0.859890 0.446010 -0.449740
O5    O     O_R   0.176710 0.690910 0.450560 -0.486860
O6    O     O_R   0.309090 0.485800 0.450560 -0.448060
O7    O     O_R   0.514200 0.823290 0.450560 -0.494803
O8    O     O_3   0.333333 0.666667 0.499990 -0.349664
O9    O     O_R   0.176750 0.985260 0.074180 -0.497782
O10   O     O_R   0.014740 0.191490 0.074180 -0.473571
O11   O     O_R   0.808510 0.823250 0.074180 -0.497931
O12   O     O_R   0.531800 0.668950 0.553200 -0.465352
O13   O     O_R   0.146100 0.172630 0.068980 -0.423084
O14   O     O_R   0.827370 0.973470 0.068980 -0.471475
O15   O     O_R   0.026530 0.853900 0.068980 -0.443542
O16   O     O_3   0.000000 0.000000 0.020040 -0.343552
O17   O     O_R   0.148270 0.170520 0.969620 -0.506834
O18   O     O_R   0.829480 0.977750 0.969620 -0.468422
O19   O     O_R   0.022250 0.851730 0.969620 -0.482756
O20   O     O_3   0.566334 0.922138 0.823159 -0.482015
O21   O     O_3   0.107109 0.663119 0.826571 -0.489117
O22   O     O_3   0.370539 0.469486 0.817527 -0.495920
O23   O     O_R   0.331050 0.862850 0.553200 -0.472911
O24   O     O_3   0.803145 0.773142 0.785355 -0.583211
O25   O     O_3   0.220916 0.039903 0.780609 -0.563289
O26   O     O_3   0.982044 0.214317 0.797775 -0.592794
O27   O     O_3   0.601471 0.972393 0.384863 -0.528307
O28   O     O_3   0.021450 0.637890 0.387772 -0.545876
O29   O     O_3   0.353346 0.376416 0.392709 -0.602433
O30   O     O_3   0.552822 0.998285 0.200542 -0.609192
O31   O     O_3   0.971897 0.546072 0.207585 -0.644563
O32   O     O_3   0.413733 0.332190 0.211559 -0.591483
O33   O     O_3   0.554324 0.018242 0.303074 -0.580186
O34   O     O_R   0.179100 0.982980 0.967000 -0.468672
O35   O     O_3   0.966905 0.538355 0.308740 -0.598278
O36   O     O_3   0.442267 0.418764 0.305584 -0.658668
O37   O     O_3   0.819708 0.679315 0.223936 -0.647129
O38   O     O_3   0.391321 0.109157 0.209432 -0.623587
O39   O     O_3   0.836157 0.147050 0.231979 -0.677831
O40   O     O_3   0.679558 0.680616 0.394946 -0.575755
O41   O     O_3   0.310094 0.005172 0.392445 -0.558832
O42   O     O_3   0.000707 0.343309 0.390465 -0.569152
O43   O     O_3   0.827033 0.910826 0.695177 -0.616955
O44   O     O_3   0.070740 0.913381 0.698352 -0.604199
O45   O     O_R   0.017020 0.196120 0.967000 -0.486340
O46   O     O_3   0.087503 0.161481 0.710726 -0.615688
O47   O     O_3   0.882819 0.984891 0.781867 -0.613560
O48   O     O_3   0.015078 0.898851 0.786593 -0.563267
O49   O     O_3   0.116078 0.139448 0.800287 -0.597297
O50   O     O_3   0.637717 0.661239 0.816918 -0.523757
O51   O     O_3   0.346480 0.000587 0.808315 -0.509213
O52   O     O_3   0.035339 0.387857 0.814529 -0.505867
O53   O     O_R   0.803880 0.820900 0.967000 -0.471748
O54   O     O_R   0.173970 0.688730 0.549930 -0.492192
O55   O     O_R   0.311270 0.485240 0.549930 -0.488261
O56   O     O_R   0.514760 0.826030 0.549930 -0.491173

loop_
_geom_bond_atom_site_label_1
_geom_bond_atom_site_label_2
_ccdc_geom_bond_type
C25   C31   A    
C65   C92   S    
C81   O47   S    
C18   O27   S    
C26   C32   A    
C16   O18   A    
C15   O17   A    
C13   O14   A    
C18   C21   A    
C12   O55   A    
C77   Cl5   S    
C80   C90   S    
Cr6   O15   S    
Cr3   O8    S    
Cr3   O23   S    
C6    C9    T    
C13   C41   S    
Cr3   O4    S    
C66   C90   S    
C29   C76   S    
H15   O33   S    
C27   C33   A    
C13   O11   A    
C46   C49   A    
Cr1   O2    S    
Cr6   O53   S    
C60   C63   A    
C17   C85   S    
C32   C36   A    
C29   O6    A    
C22   C52   A    
H24   O42   S    
C47   C76   A    
C55   C59   A    
Cr6   O16   S    
Cr2   O12   S    
C30   C74   S    
C93   O22   S    
H7    O26   S    
Cr3   O7    S    
C4    C86   T    
C55   Cl20  S    
Cr1   O8    S    
H11   O30   S    
Cr1   O5    S    
C16   C84   S    
C8    C23   S    
C6    C88   S    
C20   C76   A    
C34   O24   S    
C82   Cl9   S    
C66   Cl4   S    
H32   O51   S    
H17   O36   S    
C79   C88   S    
H31   O50   S    
C52   C69   A    
C28   O5    A    
C4    C96   S    
C2    C84   T    
C43   C73   A    
C92   Cl12  S    
C40   C43   A    
C40   Cl18  S    
C20   C24   A    
C39   Cl17  S    
C45   O51   S    
C79   Cl6   S    
C11   C43   S    
C67   H37   S    
C39   C42   A    
H28   O47   S    
Cr2   O3    S    
C64   C87   S    
C56   O52   S    
C35   O33   S    
C41   C71   A    
C61   C71   A    
C58   C61   A    
C64   Cl2   S    
C23   O56   A    
C11   O10   A    
C18   C74   A    
C44   O40   S    
H4    O22   S    
C29   O2    A    
H3    O21   S    
C25   C68   A    
C20   O29   S    
C80   C83   S    
C53   C70   A    
C10   C12   S    
C46   C75   A    
Cr6   O11   S    
C47   C50   A    
H8    O27   S    
C71   H34   S    
Cr1   O1    S    
C48   C51   A    
C50   C53   A    
C80   Cl7   S    
C56   O26   S    
C2    C94   S    
C19   C22   A    
C1    C9    S    
C36   O35   S    
C65   Cl3   S    
C38   C41   A    
Cr4   O17   S    
Cr2   O8    S    
C23   O12   A    
C45   O25   S    
C57   C60   A    
C63   C73   A    
C24   C53   A    
C64   H1    S    
C7    C90   S    
C89   Cl14  S    
C92   C95   S    
C33   C37   A    
C62   C69   A    
C67   C87   S    
C34   C67   S    
C16   O53   A    
C48   C54   A    
Cr5   O14   S    
C30   O7    A    
C77   O43   S    
C25   C38   A    
C79   C82   S    
C63   C70   A    
C77   C81   S    
C59   O38   S    
C49   C52   A    
C54   Cl19  S    
C1    O54   A    
C42   C72   A    
C24   C37   A    
C62   C72   A    
C65   H12   S    
C37   O36   S    
C91   Cl1   S    
C44   C74   A    
C11   O13   A    
C45   C78   S    
C27   C70   A    
C34   O50   S    
H25   O43   S    
C93   Cl15  S    
C66   C93   S    
H21   O40   S    
C56   C89   S    
C80   O46   S    
C33   O32   S    
C93   C96   S    
Cr5   O10   S    
C58   O37   S    
C15   C86   S    
H33   O52   S    
C31   C35   A    
C3    C85   T    
C38   Cl16  S    
C45   C95   S    
H9    O28   S    
C89   H39   S    
C21   C51   A    
H10   O29   S    
C65   C88   S    
C57   Cl21  S    
C54   C58   A    
C72   H35   S    
C78   C88   S    
Cr5   O16   S    
H29   O48   S    
H14   O32   S    
C46   O41   S    
C59   C62   A    
C82   C95   S    
Cr4   O34   S    
C27   C40   A    
Cr4   O9    S    
H2    O20   S    
C50   C57   A    
H19   O38   S    
Cr5   O45   S    
C34   C94   S    
C30   O3    A    
C32   O31   S    
C92   O21   S    
H26   O44   S    
C5    C8    T    
C3    C95   S    
H16   O35   S    
Cr4   O16   S    
C21   C35   A    
C28   O4    A    
C79   O44   S    
C22   C36   A    
C73   H36   S    
H30   O49   S    
C83   Cl10  S    
C14   C42   S    
C1    O23   A    
H6    O25   S    
C14   O9    A    
H27   O46   S    
H13   O31   S    
Cr6   O19   S    
C49   C55   A    
C91   C94   S    
C81   C94   S    
C61   C68   A    
C67   Cl11  S    
Cr4   O13   S    
Cr5   O18   S    
C83   C96   S    
C31   O30   S    
C19   C75   A    
C47   O42   S    
C78   Cl13  S    
C51   C68   A    
H5    O24   S    
C56   C96   S    
C26   C39   A    
H20   O39   S    
C15   O45   A    
C66   H23   S    
C14   O15   A    
C19   O28   S    
C5    C87   S    
C17   O19   A    
C60   O39   S    
C77   C87   S    
C7    C10   T    
Cr3   O56   S    
C91   O20   S    
H22   O41   S    
Cr2   O55   S    
C26   C69   A    
C78   H38   S    
C17   O34   A    
Cr1   O54   S    
H18   O37   S    
C64   C91   S    
C82   O48   S    
C89   C90   S    
C28   C75   S    
Cr2   O6    S    
C83   O49   S    
C44   C48   A    
C12   O1    A    
C81   Cl8   S    
