data_mof_unit_31021.cif
_audit_creation_date              2012-12-10T16:48:47-0500
_audit_creation_method            fapswitch 2.2
_symmetry_space_group_name_H-M    P1
_symmetry_Int_Tables_number       1
_space_group_crystal_system       triclinic
_cell_length_a                    7.859583
_cell_length_b                    8.555132
_cell_length_c                    10.889157
_cell_angle_alpha                 89.876115
_cell_angle_beta                  97.766972
_cell_angle_gamma                 93.676105
_cell_volume                      723.958940499

loop_
_atom_site_label
_atom_site_type_symbol
_atom_type_description
_atom_site_fract_x
_atom_site_fract_y
_atom_site_fract_z
_atom_type_partial_charge
C1    C     C_R   0.544506 0.794405 0.496928 0.955017
C2    C     C_2   0.432259 0.041804 0.504690 -0.386399
C3    C     C_3   0.834833 0.438881 0.130055 -0.750042
C4    C     C_3   0.507534 0.827858 0.999474 -0.816405
C5    C     C_3   0.980829 0.308103 0.424819 -0.522292
C6    C     C_3   0.019305 0.690257 0.578520 -0.496814
C7    C     C_R   0.455472 0.205588 0.502995 0.953700
C8    C     C_R   0.571200 0.496902 0.733649 0.899071
C9    C     C_R   0.429447 0.500751 0.264881 0.907322
C10   C     C_2   0.607230 0.472702 0.862878 -0.417073
C11   C     C_2   0.399970 0.511452 0.131185 -0.444906
C12   C     C_2   0.531869 0.551822 0.944033 0.229844
C13   C     C_2   0.528821 0.481134 0.065925 0.242188
C14   C     C_2   0.567700 0.958182 0.495157 -0.387359
H1    H     H_    0.289528 0.572417 0.089610 0.168866
H2    H     H_    0.574949 0.923369 0.951781 0.234717
H3    H     H_    0.596192 0.793669 0.082091 0.252078
H4    H     H_    0.391656 0.873695 0.030932 0.245709
H5    H     H_    0.864495 0.252200 0.369167 0.179260
H6    H     H_    0.080029 0.319917 0.362110 0.210039
H7    H     H_    0.016039 0.230777 0.505000 0.192898
H8    H     H_    0.135713 0.743993 0.635648 0.173460
H9    H     H_    0.984662 0.770404 0.500098 0.181686
H10   H     H_    0.919940 0.676440 0.640921 0.213736
H11   H     H_    0.676842 0.369305 0.888595 0.164788
H12   H     H_    0.695685 0.009336 0.486065 0.170930
H13   H     H_    0.304270 0.990643 0.513777 0.171489
H14   H     H_    0.625874 0.288028 0.169906 0.231199
H15   H     H_    0.855312 0.519804 0.210835 0.268790
H16   H     H_    0.870238 0.504339 0.048240 0.235744
H17   H     H_    0.922364 0.342179 0.147576 0.217693
H18   H     H_    0.437345 0.732429 0.823171 0.237696
N1    N     N_2   0.940600 0.458860 0.467170 -0.005663
N2    N     N_2   0.059400 0.541140 0.532830 0.002017
N3    N     N_2   0.657803 0.374256 0.109113 -0.309917
N4    N     N_2   0.455185 0.697860 0.914376 -0.305258
O1    O     O_R   0.391630 0.738350 0.508060 -0.617005
O2    O     O_R   0.608370 0.261650 0.491940 -0.615779
O3    O     O_R   0.674540 0.711990 0.487010 -0.643836
O4    O     O_R   0.325460 0.288010 0.512990 -0.640301
O5    O     O_R   0.411370 0.508250 0.688780 -0.606135
O6    O     O_R   0.588630 0.491750 0.311220 -0.598265
O7    O     O_R   0.694270 0.481880 0.667740 -0.617915
O8    O     O_R   0.305730 0.518120 0.332260 -0.623255
Zn1   Zn    Zn3+2 0.311100 0.517600 0.514050 0.934720
Zn2   Zn    Zn3+2 0.688900 0.482400 0.485950 0.929960

loop_
_geom_bond_atom_site_label_1
_geom_bond_atom_site_label_2
_ccdc_geom_bond_type
C4    H2    S    
C3    H16   S    
C7    O4    A    
C4    N4    S    
C2    H13   S    
C5    H5    S    
C3    N3    S    
C12   N4    S    
C9    C11   S    
C2    C7    S    
C8    O7    A    
C1    O1    A    
C6    H10   S    
N1    N2    D    
C4    H4    S    
N2    Zn1   S    
C14   H12   S    
C3    H17   S    
N1    Zn2   S    
C11   C13   D    
C9    O6    A    
C10   C12   D    
O3    Zn2   S    
C6    H9    S    
H18   N4    S    
C10   H11   S    
C7    O2    A    
C13   N3    S    
O4    Zn1   S    
C2    C14   D    
O7    Zn2   S    
C5    H6    S    
O2    Zn2   S    
C4    H3    S    
O1    Zn1   S    
C6    H8    S    
C5    H7    S    
C8    O5    A    
C8    C10   S    
O6    Zn2   S    
C3    H15   S    
C1    O3    A    
C9    O8    A    
O5    Zn1   S    
C1    C14   S    
C12   C13   S    
C11   H1    S    
O8    Zn1   S    
C6    N2    S    
H14   N3    S    
C5    N1    S    
