data_mof_unit_62327.cif
_audit_creation_date              2013-03-05T15:56:39-0500
_audit_creation_method            fapswitch 2.2
_symmetry_space_group_name_H-M    P1
_symmetry_Int_Tables_number       1
_space_group_crystal_system       triclinic
_cell_length_a                    38.720097
_cell_length_b                    21.797852
_cell_length_c                    21.782336
_cell_angle_alpha                 89.983073
_cell_angle_beta                  55.793144
_cell_angle_gamma                 89.974243
_cell_volume                      15204.321473

loop_
_atom_site_label
_atom_site_type_symbol
_atom_site_description
_atom_site_fract_x
_atom_site_fract_y
_atom_site_fract_z
_atom_type_partial_charge
O1    O     O_R   0.000010 0.447810 0.409820 -0.544271
O2    O     O_R   0.999990 0.447810 0.590180 -0.546535
O3    O     O_R   0.500010 0.947810 0.409820 -0.544787
O4    O     O_R   0.499990 0.947810 0.590180 -0.546684
O5    O     O_R   0.000010 0.552200 0.409870 -0.583334
O6    O     O_R   0.999990 0.552200 0.590130 -0.581364
O7    O     O_R   0.500010 0.052200 0.409870 -0.583168
O8    O     O_R   0.499990 0.052200 0.590130 -0.581313
C1    C     C_R   0.000300 0.500063 0.381080 0.880300
C2    C     C_R   0.999759 0.500034 0.618846 0.877604
C3    C     C_R   0.500295 0.000063 0.381083 0.880308
C4    C     C_R   0.499760 0.000035 0.618846 0.877548
O9    O     O_R   0.939540 0.447810 0.560460 -0.545882
O10   O     O_R   0.060460 0.447810 0.439540 -0.539715
O11   O     O_R   0.439540 0.947810 0.560460 -0.546101
O12   O     O_R   0.560460 0.947810 0.439540 -0.540099
O13   O     O_R   0.939550 0.552200 0.560510 -0.575921
O14   O     O_R   0.060450 0.552200 0.439490 -0.583938
O15   O     O_R   0.439550 0.052200 0.560510 -0.575357
O16   O     O_R   0.560450 0.052200 0.439490 -0.583897
C5    C     C_R   0.920000 0.500016 0.580043 0.857409
C6    C     C_R   0.080000 0.499992 0.420131 0.855994
C7    C     C_R   0.419998 0.000016 0.580052 0.857201
C8    C     C_R   0.580000 0.999992 0.420130 0.856008
Cu1   Cu    Cu3+1 0.000000 0.438200 0.500000 1.181953
Cu2   Cu    Cu3+1 0.500000 0.938200 0.500000 1.180426
Cu3   Cu    Cu3+1 0.000000 0.561810 0.500000 1.095019
Cu4   Cu    Cu3+1 0.500000 0.061810 0.500000 1.094927
C9    C     C_3   0.736068 0.455714 0.726741 0.191069
C10   C     C_3   0.263959 0.457474 0.275596 0.193038
C11   C     C_3   0.236092 0.957596 0.724418 0.193889
C12   C     C_3   0.763961 0.957581 0.275691 0.193033
C13   C     C_3   0.764008 0.509487 0.677937 -0.174171
C14   C     C_3   0.236039 0.512301 0.321549 -0.171672
C15   C     C_3   0.263988 0.012473 0.678619 -0.173237
C16   C     C_3   0.736039 0.012448 0.321512 -0.171641
C17   C     C_1   0.875287 0.500019 0.624626 -0.005223
C18   C     C_1   0.124716 0.499936 0.375622 -0.027557
C19   C     C_1   0.375283 0.000011 0.624657 -0.005189
C20   C     C_1   0.624716 0.999937 0.375619 -0.027997
C21   C     C_1   0.624716 0.499934 0.875349 0.009647
C22   C     C_1   0.375284 0.499626 0.124665 -0.014368
C23   C     C_1   0.124713 0.999628 0.875344 -0.013870
C24   C     C_1   0.875284 0.999640 0.124663 -0.014045
C25   C     C_3   0.763956 0.445913 0.755260 0.226087
C26   C     C_3   0.236030 0.444772 0.247758 0.227469
C27   C     C_3   0.263989 0.944787 0.752312 0.226410
C28   C     C_3   0.736032 0.944741 0.247883 0.227902
C29   C     C_3   0.791971 0.499642 0.707167 -0.073189
C30   C     C_3   0.208032 0.499511 0.293008 -0.069839
C31   C     C_3   0.291963 0.999577 0.707218 -0.072591
C32   C     C_3   0.708032 0.999519 0.293002 -0.069828
C33   C     C_3   0.736497 0.490268 0.819371 0.253601
C34   C     C_3   0.263465 0.487114 0.181329 0.252652
C35   C     C_3   0.236497 0.987034 0.818820 0.250963
C36   C     C_3   0.763466 0.986990 0.181353 0.252777
C37   C     C_3   0.708053 0.499947 0.791566 -0.120687
C38   C     C_3   0.291949 0.499684 0.208460 -0.118050
C39   C     C_3   0.208046 0.999709 0.791630 -0.118304
C40   C     C_3   0.791949 0.999698 0.208454 -0.118151
C41   C     C_3   0.764558 0.544957 0.772305 -0.262130
C42   C     C_3   0.235419 0.542755 0.225501 -0.271966
C43   C     C_3   0.264516 0.042723 0.774806 -0.264323
C44   C     C_3   0.735417 0.042668 0.225392 -0.272131
C45   C     C_3   0.736214 0.554131 0.743164 -0.133945
C46   C     C_3   0.263807 0.554888 0.253988 -0.133422
C47   C     C_3   0.236162 0.054963 0.746258 -0.135342
C48   C     C_3   0.763805 0.054941 0.253850 -0.133277
C49   C     C_1   0.837700 0.499901 0.661959 0.176416
C50   C     C_1   0.162302 0.499792 0.338275 0.169604
C51   C     C_1   0.337694 0.999873 0.662006 0.176761
C52   C     C_1   0.662303 0.999795 0.338270 0.169520
C53   C     C_1   0.662298 0.499915 0.837651 0.208268
C54   C     C_1   0.337703 0.499596 0.162357 0.201894
C55   C     C_1   0.162293 0.999606 0.837677 0.202265
C56   C     C_1   0.837703 0.999611 0.162353 0.202050
H1    H     H_    0.776015 0.581685 0.791873 0.212923
H2    H     H_    0.223933 0.577820 0.204081 0.210949
H3    H     H_    0.275945 0.077728 0.796357 0.213583
H4    H     H_    0.723929 0.077651 0.203888 0.210872
C57   C     C_R   0.029830 0.537267 0.252865 -0.119878
C58   C     C_R   0.969757 0.536618 0.747444 -0.113457
C59   C     C_R   0.529808 0.037305 0.252883 -0.119938
C60   C     C_R   0.469803 0.036710 0.747402 -0.113475
C61   C     C_R   0.029210 0.538388 0.188892 -0.120849
C62   C     C_R   0.970491 0.537951 0.811284 -0.117311
C63   C     C_R   0.529187 0.038425 0.188911 -0.120803
C64   C     C_R   0.470533 0.038042 0.811249 -0.117575
C65   C     C_R   0.000158 0.501224 0.186005 -0.241890
C66   C     C_R   0.999798 0.501197 0.813988 -0.244710
C67   C     C_R   0.500167 0.001210 0.185993 -0.241810
C68   C     C_R   0.499794 0.001205 0.813997 -0.244693
C69   C     C_R   0.971359 0.464273 0.247026 0.259131
C70   C     C_R   0.028776 0.464503 0.752827 0.259563
C71   C     C_R   0.471408 0.964193 0.246970 0.258807
C72   C     C_R   0.528723 0.964427 0.752890 0.259573
C73   C     C_R   0.971378 0.464398 0.311179 0.246651
C74   C     C_R   0.028788 0.464648 0.688649 0.246940
C75   C     C_R   0.471406 0.964348 0.311144 0.246523
C76   C     C_R   0.528741 0.964575 0.688706 0.247052
C77   C     C_R   0.000704 0.500400 0.313789 -0.241891
C78   C     C_R   0.999249 0.500277 0.686216 -0.245655
C79   C     C_R   0.500703 0.000401 0.313787 -0.242322
C80   C     C_R   0.499249 0.000282 0.686222 -0.245914
O17   O     O_R   0.500010 0.409700 0.947870 -0.572449
O18   O     O_R   0.499990 0.409700 0.052130 -0.573563
O19   O     O_R   0.000010 0.909700 0.947870 -0.572770
O20   O     O_R   0.999990 0.909700 0.052130 -0.572143
C81   C     C_R   0.500000 0.381243 0.000007 0.832842
C82   C     C_R   0.000004 0.881242 0.000003 0.833202
O21   O     O_R   0.560470 0.499890 0.887380 -0.562383
O22   O     O_R   0.439530 0.499890 0.112620 -0.555721
O23   O     O_R   0.060470 0.999890 0.887380 -0.555259
O24   O     O_R   0.939530 0.999890 0.112620 -0.555078
O25   O     O_R   0.560460 0.499990 0.991770 -0.560095
O26   O     O_R   0.439540 0.499990 0.008230 -0.568452
O27   O     O_R   0.060460 0.999990 0.991770 -0.568402
O28   O     O_R   0.939540 0.999990 0.008230 -0.568845
C83   C     C_R   0.580015 0.499958 0.920040 0.861137
C84   C     C_R   0.419986 0.499767 0.079963 0.858812
C85   C     C_R   0.080014 0.999764 0.920038 0.858219
C86   C     C_R   0.919986 0.999775 0.079963 0.858159
Cu5   Cu    Cu3+1 0.500010 0.499870 0.938220 1.117765
Cu6   Cu    Cu3+1 0.499990 0.499870 0.061780 1.120737
Cu7   Cu    Cu3+1 0.000010 0.999870 0.938220 1.120224
Cu8   Cu    Cu3+1 0.999990 0.999870 0.061780 1.121482
O29   O     O_R   0.500010 0.590060 0.947790 -0.572727
O30   O     O_R   0.499990 0.590060 0.052210 -0.569938
O31   O     O_R   0.000010 0.090060 0.947790 -0.570764
O32   O     O_R   0.999990 0.090060 0.052210 -0.570662
C87   C     C_R   0.499944 0.618505 0.000035 0.839677
C88   C     C_R   0.000002 0.118519 0.999990 0.843256
O33   O     O_R   0.034970 0.409720 0.965020 -0.566020
O34   O     O_R   0.965030 0.409720 0.034980 -0.565965
O35   O     O_R   0.534970 0.909720 0.965020 -0.566717
O36   O     O_R   0.465030 0.909720 0.034980 -0.565588
C89   C     C_R   0.000007 0.380864 0.999987 0.886153
C90   C     C_R   0.500014 0.880849 0.000022 0.885907
O37   O     O_R   0.034990 0.499890 0.055220 -0.592229
O38   O     O_R   0.965010 0.499890 0.944780 -0.592937
O39   O     O_R   0.534990 0.999890 0.055220 -0.592393
O40   O     O_R   0.465010 0.999890 0.944780 -0.592827
O41   O     O_R   0.965000 0.499930 0.125200 -0.535783
O42   O     O_R   0.035000 0.499930 0.874800 -0.535349
O43   O     O_R   0.465000 0.999930 0.125200 -0.535786
O44   O     O_R   0.535000 0.999930 0.874800 -0.535381
C91   C     C_R   0.000012 0.500387 0.119064 0.926956
C92   C     C_R   0.999981 0.500426 0.880927 0.926060
C93   C     C_R   0.500013 0.000382 0.119060 0.926736
C94   C     C_R   0.499980 0.000427 0.880930 0.926568
Cu9   Cu    Cu3+1 0.041440 0.499890 0.958590 1.137911
Cu10  Cu    Cu3+1 0.958560 0.499890 0.041410 1.137296
Cu11  Cu    Cu3+1 0.541440 0.999890 0.958590 1.137272
Cu12  Cu    Cu3+1 0.458560 0.999890 0.041410 1.137563
O45   O     O_R   0.035030 0.590070 0.965060 -0.581150
O46   O     O_R   0.964970 0.590070 0.034940 -0.581398
O47   O     O_R   0.535030 0.090070 0.965060 -0.581193
O48   O     O_R   0.464970 0.090070 0.034940 -0.581258
C95   C     C_R   0.999991 0.618919 0.000001 0.872378
C96   C     C_R   0.499992 0.118920 0.000004 0.872689
C97   C     C_R   0.470266 0.282569 0.065546 -0.087522
C98   C     C_R   0.529706 0.282553 0.934475 -0.087587
C99   C     C_R   0.970286 0.782567 0.065556 -0.087546
C100  C     C_R   0.029688 0.782548 0.934455 -0.087422
C101  C     C_R   0.970976 0.718166 0.066183 -0.076765
C102  C     C_R   0.028956 0.718153 0.933815 -0.077142
C103  C     C_R   0.470956 0.218169 0.066173 -0.076860
C104  C     C_R   0.528978 0.218158 0.933833 -0.077180
C105  C     C_R   0.999972 0.686079 0.000003 -0.172923
C106  C     C_R   0.499973 0.186081 0.000006 -0.173106
C107  C     C_R   0.499997 0.314362 0.000017 -0.164506
C108  C     C_R   0.000000 0.814360 0.000013 -0.164654
C109  C     C_R   0.529637 0.717158 0.006376 -0.082218
C110  C     C_R   0.470626 0.717270 0.992986 -0.086236
C111  C     C_R   0.029328 0.217230 0.007157 -0.086732
C112  C     C_R   0.970717 0.217287 0.992723 -0.086763
C113  C     C_R   0.028815 0.281683 0.008683 -0.079362
C114  C     C_R   0.971250 0.281740 0.991161 -0.079594
C115  C     C_R   0.529027 0.781597 0.008175 -0.075512
C116  C     C_R   0.471179 0.781716 0.991392 -0.079476
C117  C     C_R   0.000025 0.313742 0.999944 -0.136359
C118  C     C_R   0.500063 0.813702 0.999901 -0.139017
C119  C     C_R   0.500051 0.685403 0.999848 -0.153599
C120  C     C_R   0.000014 0.185438 0.999960 -0.149777
C121  C     C_2   0.778171 0.519756 0.598982 0.983610
O49   O     O_2   0.752245 0.526679 0.584311 -0.516456
O50   O     O_R   0.820767 0.521254 0.542689 -0.707737
H5    H     H_    0.826325 0.528323 0.491864 0.371822
C122  C     C_2   0.221918 0.525949 0.399848 0.984359
O51   O     O_2   0.247869 0.535003 0.414026 -0.515816
O52   O     O_R   0.179330 0.528135 0.456107 -0.707553
H6    H     H_    0.173803 0.537562 0.506473 0.370329
C123  C     C_2   0.278146 0.026261 0.600325 0.984374
O53   O     O_2   0.252217 0.035398 0.586101 -0.515197
O54   O     O_R   0.320742 0.028479 0.544122 -0.709943
H7    H     H_    0.326294 0.038003 0.493754 0.370155
C124  C     C_2   0.721916 0.026250 0.399779 0.984260
O55   O     O_2   0.747867 0.035407 0.413935 -0.515797
O56   O     O_R   0.679329 0.028459 0.456033 -0.707845
H8    H     H_    0.673801 0.037994 0.506377 0.370142
N1    N     N_R   0.941283 0.428021 0.373991 0.161802
O57   O     O_R   0.915735 0.453846 0.438115 -0.330411
O58   O     O_R   0.938133 0.369478 0.366466 -0.231209
N2    N     N_R   0.059110 0.428644 0.625640 0.162104
O59   O     O_R   0.084544 0.454796 0.561689 -0.328282
O60   O     O_R   0.062570 0.370121 0.632814 -0.230931
N3    N     N_R   0.441321 0.927956 0.373945 0.162165
O61   O     O_R   0.415711 0.953787 0.438039 -0.329391
O62   O     O_R   0.438239 0.869389 0.366434 -0.231672
N4    N     N_R   0.559024 0.928493 0.625742 0.162144
O63   O     O_R   0.584501 0.954585 0.561769 -0.328152
O64   O     O_R   0.562404 0.869958 0.632981 -0.231803
C125  C     C_2   0.438295 0.316699 0.133577 0.932839
O65   O     O_2   0.415837 0.354299 0.130571 -0.560982
O66   O     O_R   0.433903 0.305551 0.200848 -0.707331
H9    H     H_    0.411076 0.331377 0.242964 0.372214
C126  C     C_2   0.561688 0.316666 0.866448 0.933329
O67   O     O_2   0.584149 0.354212 0.869468 -0.561628
O68   O     O_R   0.566076 0.305583 0.799174 -0.707645
H10   H     H_    0.588909 0.331395 0.757065 0.371699
C127  C     C_2   0.938331 0.816695 0.133604 0.932895
O69   O     O_2   0.915858 0.854290 0.130635 -0.561106
O70   O     O_R   0.933973 0.805551 0.200848 -0.706859
H11   H     H_    0.911154 0.831375 0.242979 0.372370
C128  C     C_2   0.061650 0.816656 0.866405 0.932958
O71   O     O_2   0.084152 0.854166 0.869362 -0.560616
O72   O     O_R   0.065974 0.805606 0.799180 -0.707469
H12   H     H_    0.088798 0.831411 0.757047 0.372244
C129  C     C_2   0.941116 0.684701 0.136321 0.930576
O73   O     O_2   0.954099 0.648258 0.161537 -0.542706
O74   O     O_R   0.898224 0.695239 0.173421 -0.705623
H13   H     H_    0.881159 0.669976 0.220437 0.364258
C130  C     C_2   0.058719 0.684665 0.863633 0.930433
O75   O     O_2   0.045637 0.648295 0.838554 -0.543013
O76   O     O_R   0.101630 0.695085 0.826347 -0.705009
H14   H     H_    0.118619 0.669811 0.779324 0.364317
C131  C     C_2   0.441075 0.184707 0.136300 0.930562
O77   O     O_2   0.454037 0.148272 0.161558 -0.542740
O78   O     O_R   0.398185 0.195240 0.173343 -0.705430
H15   H     H_    0.381105 0.169981 0.220358 0.364285
C132  C     C_2   0.558773 0.184675 0.863667 0.930490
O79   O     O_2   0.545721 0.148319 0.838523 -0.542972
O80   O     O_R   0.601680 0.195087 0.826468 -0.704804
H16   H     H_    0.618694 0.169820 0.779445 0.364287
C133  C     C_2   0.561369 0.682982 0.011154 0.913051
O81   O     O_2   0.584073 0.645544 0.963269 -0.579939
O82   O     O_R   0.565232 0.693894 0.070285 -0.701149
H17   H     H_    0.587899 0.668003 0.067269 0.365073
C134  C     C_2   0.438918 0.683037 0.988326 0.920089
O83   O     O_2   0.436062 0.691301 0.935802 -0.519181
O84   O     O_R   0.412386 0.641511 0.044294 -0.750358
H18   H     H_    0.392006 0.621359 0.035309 0.352356
C135  C     C_2   0.060896 0.182923 0.012195 0.919770
O85   O     O_2   0.063592 0.191199 0.064891 -0.518369
O86   O     O_R   0.087490 0.141324 0.956376 -0.750812
H19   H     H_    0.107764 0.121124 0.965617 0.352480
C136  C     C_2   0.939146 0.183039 0.987687 0.919818
O87   O     O_2   0.936456 0.191341 0.934984 -0.518525
O88   O     O_R   0.912548 0.141453 0.043511 -0.750747
H20   H     H_    0.892280 0.121283 0.034263 0.352526
C137  C     C_2   0.058289 0.315436 0.019913 0.933238
O89   O     O_2   0.095892 0.306514 0.978161 -0.528657
O90   O     O_R   0.042866 0.357444 0.078168 -0.722240
H21   H     H_    0.065842 0.377705 0.079976 0.350832
C138  C     C_2   0.941835 0.315561 0.979792 0.933225
O91   O     O_2   0.904223 0.306711 0.021462 -0.528273
O92   O     O_R   0.957328 0.357555 0.921498 -0.722734
H22   H     H_    0.934390 0.377869 0.919588 0.350645
C139  C     C_2   0.558601 0.815322 0.019153 0.939627
O93   O     O_2   0.596200 0.806517 0.977088 -0.531945
O94   O     O_R   0.543275 0.857181 0.077533 -0.720963
H23   H     H_    0.566313 0.877444 0.079153 0.349970
C140  C     C_2   0.441672 0.815542 0.980267 0.933522
O95   O     O_2   0.404065 0.806761 0.022177 -0.528155
O96   O     O_R   0.457075 0.857464 0.921920 -0.722691
H24   H     H_    0.434082 0.877796 0.920191 0.350588
N5    N     N_R   0.722124 0.406309 0.700527 0.179798
O97   O     O_R   0.749478 0.372100 0.645359 -0.243372
O98   O     O_R   0.682522 0.396019 0.731915 -0.281115
N6    N     N_R   0.277934 0.410213 0.304308 0.179865
O99   O     O_R   0.250600 0.377559 0.361296 -0.242917
O100  O     O_R   0.317541 0.400250 0.273306 -0.280465
N7    N     N_R   0.222178 0.910420 0.695551 0.179975
O101  O     O_R   0.249554 0.877841 0.638511 -0.243145
O102  O     O_R   0.182583 0.900457 0.726469 -0.280128
N8    N     N_R   0.777937 0.910423 0.304515 0.179879
O103  O     O_R   0.750605 0.877841 0.361582 -0.243270
O104  O     O_R   0.817545 0.900482 0.273533 -0.280418
C141  C     C_2   0.721876 0.615766 0.735397 0.956122
O105  O     O_2   0.747704 0.654512 0.695399 -0.533402
O106  O     O_R   0.679245 0.628712 0.773815 -0.720462
H25   H     H_    0.673586 0.671828 0.764114 0.369184
C142  C     C_2   0.278185 0.617578 0.258362 0.952612
O107  O     O_2   0.252384 0.657056 0.296324 -0.531409
O108  O     O_R   0.320825 0.630664 0.219100 -0.726177
H26   H     H_    0.326518 0.674531 0.226383 0.371593
C143  C     C_2   0.221753 0.117685 0.741988 0.952397
O109  O     O_2   0.247535 0.157200 0.704140 -0.531916
O110  O     O_R   0.179107 0.130759 0.781218 -0.726037
H27   H     H_    0.173392 0.174650 0.774013 0.371431
C144  C     C_2   0.778181 0.117678 0.258072 0.952565
O111  O     O_2   0.752380 0.157182 0.295945 -0.531837
O112  O     O_R   0.820820 0.130777 0.218769 -0.726121
H28   H     H_    0.826513 0.174676 0.225948 0.371409
N9    N     N_R   0.722960 0.479052 0.895763 0.174880
O113  O     O_R   0.750602 0.471857 0.911270 -0.251381
O114  O     O_R   0.683446 0.476306 0.948697 -0.295336
N10   N     N_R   0.276965 0.472616 0.105639 0.174588
O115  O     O_R   0.249297 0.463200 0.090634 -0.252370
O116  O     O_R   0.316471 0.469158 0.052823 -0.298459
N11   N     N_R   0.222960 0.972395 0.894502 0.174885
O117  O     O_R   0.250601 0.962894 0.909563 -0.250243
O118  O     O_R   0.183445 0.968893 0.947257 -0.297362
N12   N     N_R   0.776966 0.972342 0.105699 0.174508
O119  O     O_R   0.749299 0.962820 0.090716 -0.253302
O120  O     O_R   0.816473 0.968854 0.052891 -0.298633
N13   N     N_R   0.777527 0.386070 0.763877 0.185196
O121  O     O_R   0.749924 0.345146 0.806908 -0.230125
O122  O     O_R   0.817055 0.373137 0.728735 -0.276326
N14   N     N_R   0.222438 0.383869 0.242384 0.185049
O123  O     O_R   0.250028 0.342160 0.201512 -0.230386
O124  O     O_R   0.182907 0.370774 0.278282 -0.273906
N15   N     N_R   0.277606 0.883848 0.757588 0.185151
O125  O     O_R   0.250033 0.842102 0.798338 -0.229311
O126  O     O_R   0.317142 0.870755 0.721710 -0.275892
N16   N     N_R   0.722443 0.883790 0.242655 0.184698
O127  O     O_R   0.750034 0.842051 0.201882 -0.231411
O128  O     O_R   0.682912 0.870683 0.278585 -0.275459
C145  C     C_2   0.061170 0.574138 0.255901 0.946619
O129  O     O_2   0.063926 0.629398 0.244304 -0.527694
O130  O     O_R   0.087473 0.545352 0.271948 -0.760791
H29   H     H_    0.107565 0.575062 0.272096 0.339271
C146  C     C_2   0.938110 0.573165 0.744825 0.936683
O131  O     O_2   0.915772 0.548210 0.729085 -0.595167
O132  O     O_R   0.933915 0.635966 0.760529 -0.706743
H30   H     H_    0.911346 0.655674 0.757059 0.357552
C147  C     C_2   0.561127 0.074214 0.255939 0.946501
O133  O     O_2   0.563853 0.129477 0.244372 -0.528055
O134  O     O_R   0.587446 0.045460 0.271973 -0.761142
H31   H     H_    0.607520 0.075194 0.272142 0.339238
C148  C     C_2   0.438217 0.073361 0.744712 0.936836
O135  O     O_2   0.415824 0.048473 0.729057 -0.595908
O136  O     O_R   0.434147 0.136186 0.760245 -0.706629
H32   H     H_    0.411611 0.155969 0.756738 0.357664
C149  C     C_2   0.058658 0.578882 0.125468 0.954212
O137  O     O_2   0.096246 0.575022 0.097093 -0.530309
O138  O     O_R   0.043230 0.621228 0.098354 -0.722718
H33   H     H_    0.066190 0.645950 0.055048 0.350332
C150  C     C_2   0.940877 0.578206 0.874819 0.961003
O139  O     O_2   0.903282 0.573703 0.903546 -0.533606
O140  O     O_R   0.956162 0.621041 0.901667 -0.721165
H34   H     H_    0.933098 0.645529 0.945120 0.349503
C151  C     C_2   0.558609 0.078958 0.125510 0.953991
O141  O     O_2   0.596199 0.075154 0.097137 -0.530794
O142  O     O_R   0.543155 0.121274 0.098414 -0.722835
H35   H     H_    0.566099 0.146028 0.055123 0.350185
C152  C     C_2   0.440966 0.078381 0.874740 0.961012
O143  O     O_2   0.403381 0.074168 0.903269 -0.533949
O144  O     O_R   0.456282 0.120978 0.901763 -0.721485
H36   H     H_    0.433250 0.145563 0.945144 0.349539
N17   N     N_R   0.941732 0.426680 0.244402 0.165722
O145  O     O_R   0.954545 0.383807 0.194569 -0.295108
O146  O     O_R   0.901917 0.433196 0.294188 -0.252187
N18   N     N_R   0.058542 0.427133 0.755346 0.165856
O147  O     O_R   0.045882 0.384057 0.804916 -0.294872
O148  O     O_R   0.098338 0.434035 0.705696 -0.250436
N19   N     N_R   0.441861 0.926474 0.244255 0.165525
O149  O     O_R   0.454769 0.883671 0.194317 -0.295383
O150  O     O_R   0.402030 0.932830 0.294023 -0.249894
N20   N     N_R   0.558429 0.926961 0.755476 0.165673
O151  O     O_R   0.545700 0.883947 0.805137 -0.295877
O152  O     O_R   0.598237 0.933726 0.705819 -0.250644

loop_
_geom_bond_atom_site_label_1
_geom_bond_atom_site_label_2
_geom_bond_distance
_ccdc_geom_bond_type
C75   C79   1.407821 A    
C48   C144  1.498906 S    
O33   C89   1.284355 A    
C152  O143  1.223014 D    
C17   C49   1.203617 T    
C143  O110  1.396888 S    
O106  H25   1.013763 S    
O33   Cu9   1.976473 S    
C147  O133  1.223031 D    
C114  C138  1.489380 S    
C111  C113  1.405207 A    
C144  O111  1.221938 D    
C99   C101  1.404240 A    
C4    C80   1.456567 S    
O42   Cu9   1.976119 S    
C63   C67   1.416298 A    
C71   C75   1.397830 A    
C112  C136  1.488403 S    
C109  C115  1.405016 A    
C9    N5    1.457683 S    
O94   H23   1.013800 S    
C6    C18   1.431896 S    
C9    C13   1.543290 S    
C76   C80   1.407646 A    
O17   Cu5   1.976656 S    
C11   C39   1.541978 S    
C124  O56   1.396799 S    
C113  C137  1.489404 S    
O44   C94   1.285704 A    
C98   C107  1.412642 A    
Cu10  O46   1.976488 S    
N16   O127  1.300244 A    
Cu9   O45   1.976349 S    
O4    C4    1.296180 A    
O27   Cu8   1.947590 S    
O38   Cu10  1.975257 S    
C102  C130  1.488951 S    
C98   C126  1.489678 S    
O56   H8    1.013773 S    
C29   C49   1.464381 S    
C133  O81   1.222949 D    
C101  C129  1.488962 S    
C31   C51   1.464468 S    
C25   N13   1.457084 S    
C151  O142  1.397670 S    
C116  C118  1.416001 A    
C99   C127  1.489672 S    
C101  C105  1.417013 A    
C24   C86   1.431437 S    
C134  O84   1.397498 S    
N15   O125  1.300245 A    
C2    C78   1.456488 S    
C16   C124  1.499331 S    
C62   C66   1.416810 A    
C67   C93   1.461413 S    
C42   C46   1.559004 S    
O16   Cu4   1.946960 S    
N12   O119  1.300219 A    
C74   C78   1.407638 A    
C40   C56   1.465163 S    
O13   C5    1.298576 A    
O7    Cu4   1.974233 S    
C75   N3    1.437382 S    
C11   N7    1.457685 S    
O66   H9    1.013850 S    
C129  O73   1.222785 D    
C32   C52   1.464399 S    
O4    Cu2   1.975312 S    
O142  H35   1.013805 S    
O9    C5    1.298484 A    
C99   C108  1.412645 A    
C70   N18   1.437064 S    
O47   C96   1.286034 A    
C139  O94   1.397696 S    
C15   C31   1.548768 S    
O8    Cu4   1.974106 S    
O19   C82   1.293677 A    
C23   C55   1.203381 T    
C135  O86   1.397499 S    
C112  C120  1.412068 A    
C69   N17   1.437119 S    
O3    Cu2   1.975191 S    
C60   C64   1.407141 A    
C16   C48   1.550651 S    
O22   Cu6   1.947261 S    
C10   N6    1.457689 S    
C30   C50   1.464399 S    
N8    O104  1.300188 A    
C90   C118  1.463682 S    
O29   C87   1.294882 A    
O3    C3    1.296574 A    
O54   H7    1.013774 S    
Cu7   O31   1.977030 S    
C28   C32   1.539003 S    
C123  O53   1.221953 D    
O18   Cu6   1.976779 S    
O144  H36   1.013800 S    
Cu12  O48   1.976486 S    
Cu8   O32   1.976908 S    
O20   Cu8   1.976782 S    
N12   O120  1.300171 A    
Cu9   Cu10  2.653986 S    
N14   O124  1.300127 A    
C150  O139  1.223166 D    
O26   Cu5   1.947586 S    
C35   C39   1.540754 S    
O140  H34   1.013804 S    
C14   C46   1.550651 S    
N20   O151  1.300961 A    
Cu5   Cu6   2.690988 S    
C57   C77   1.412876 A    
C134  O83   1.223022 D    
C116  C140  1.489362 S    
C59   C79   1.412899 A    
C12   C16   1.543289 S    
C12   N8    1.457691 S    
C137  O89   1.223061 D    
O24   Cu8   1.947261 S    
C121  O50   1.396781 S    
C89   C117  1.463103 S    
C68   C72   1.411570 A    
N18   O147  1.300960 A    
O21   C83   1.297769 A    
C136  O87   1.223021 D    
O28   C86   1.297906 A    
C37   C53   1.465193 S    
C122  O52   1.396797 S    
C39   C47   1.550256 S    
O5    Cu3   1.974233 S    
C33   C41   1.549425 S    
C41   H1    1.110183 S    
N9    O114  1.300170 A    
C35   C43   1.549432 S    
C36   C44   1.549436 S    
C100  C128  1.489669 S    
C130  O75   1.222817 D    
C16   C32   1.548736 S    
C112  C114  1.405219 A    
C25   C33   1.531609 S    
C71   N19   1.437110 S    
C131  O77   1.222788 D    
O132  H30   1.013823 S    
N1    O58   1.301152 A    
N10   O116  1.300172 A    
C141  O105  1.221944 D    
C148  O136  1.398154 S    
C10   C14   1.543289 S    
O45   C95   1.286033 A    
O13   Cu3   1.947106 S    
N6    O99   1.300251 A    
O19   Cu7   1.976658 S    
C126  O67   1.222905 D    
O26   C84   1.297913 A    
N15   O126  1.300125 A    
C33   N9    1.456905 S    
O5    C1    1.295171 A    
C142  O107  1.221937 D    
C41   C45   1.558988 S    
Cu5   O29   1.977033 S    
C15   C47   1.550655 S    
O8    C4    1.295230 A    
C64   C152  1.488650 S    
C58   C78   1.413396 A    
O40   Cu12  1.975257 S    
O15   Cu4   1.947106 S    
C138  O92   1.397680 S    
C40   C48   1.550276 S    
C97   C103  1.404241 A    
C98   C104  1.404215 A    
O43   Cu12  1.976114 S    
O25   C83   1.297831 A    
N11   O118  1.300174 A    
O10   C6    1.298392 A    
C60   C80   1.413439 A    
C100  C108  1.412663 A    
C150  O140  1.397884 S    
O30   C87   1.295334 A    
C69   C73   1.397813 A    
C38   C54   1.465163 S    
C65   C91   1.461458 S    
O17   C81   1.293676 A    
C57   C145  1.487935 S    
C20   C52   1.203611 T    
O14   C6    1.298674 A    
C10   C26   1.533465 S    
C58   C146  1.489013 S    
C73   N1    1.437407 S    
O92   H22   1.013809 S    
C110  C134  1.488427 S    
N4    O64   1.301149 A    
N1    O57   1.301086 A    
O31   C88   1.295265 A    
N5    O98   1.300174 A    
O108  H26   1.013756 S    
O39   Cu11  1.975251 S    
C113  C117  1.416002 A    
C72   C76   1.397684 A    
C27   N15   1.457083 S    
C128  O72   1.398155 S    
O20   C82   1.293745 A    
C65   C69   1.411595 A    
C124  O55   1.221950 D    
C67   C71   1.411536 A    
C97   C107  1.412622 A    
C103  C131  1.488957 S    
O23   C85   1.297663 A    
N2    O59   1.301087 A    
N7    O101  1.300252 A    
N3    O62   1.301151 A    
N16   O128  1.300127 A    
C57   C61   1.407320 A    
O86   H19   1.013862 S    
C26   N14   1.457081 S    
O18   C81   1.293728 A    
C82   C108  1.457895 S    
C144  O112  1.396885 S    
C59   C63   1.407327 A    
C18   C50   1.203608 T    
C110  C116  1.405076 A    
C12   C28   1.533461 S    
O78   H15   1.013801 S    
O46   C95   1.285921 A    
O136  H32   1.013818 S    
O34   C89   1.284399 A    
C151  O141  1.223031 D    
O90   H21   1.013803 S    
C125  O65   1.222903 D    
N17   O146  1.301166 A    
C146  O131  1.222904 D    
C70   C74   1.397695 A    
C13   C29   1.548733 S    
O80   H16   1.013801 S    
C145  O129  1.223031 D    
N13   O122  1.300128 A    
C35   N11   1.456891 S    
C87   C119  1.458245 S    
C36   N12   1.456882 S    
O76   H14   1.013802 S    
C34   N10   1.456882 S    
O28   Cu7   1.947586 S    
C149  O138  1.397675 S    
C23   C85   1.431381 S    
Cu6   O30   1.976910 S    
C115  C118  1.416512 A    
C125  O66   1.398150 S    
C152  O144  1.397724 S    
C11   C27   1.533459 S    
C139  O93   1.223057 D    
C47   C143  1.498913 S    
O48   C96   1.285940 A    
C44   H4    1.110193 S    
C59   C147  1.487932 S    
C147  O134  1.397398 S    
C42   H2    1.110191 S    
C66   C70   1.411608 A    
C146  O132  1.398204 S    
O12   Cu2   1.947420 S    
C22   C54   1.203411 T    
C29   C41   1.556286 S    
O21   Cu5   1.947265 S    
N3    O61   1.301107 A    
O1    C1    1.296553 A    
O70   H11   1.013852 S    
O84   H18   1.013862 S    
C32   C44   1.556317 S    
C132  O80   1.398142 S    
O138  H33   1.013803 S    
C61   C65   1.416314 A    
C27   C31   1.539026 S    
C34   C42   1.549433 S    
C58   C62   1.407071 A    
O52   H6    1.013772 S    
C63   C151  1.488927 S    
O32   C88   1.295242 A    
O110  H27   1.013756 S    
O36   Cu12  1.976331 S    
O134  H31   1.013867 S    
C25   C29   1.538995 S    
O34   Cu10  1.976331 S    
C26   C34   1.531623 S    
C31   C43   1.556327 S    
N19   O150  1.301163 A    
C64   C68   1.416839 A    
C21   C83   1.431407 S    
O41   Cu10  1.976114 S    
C9    C37   1.542033 S    
C115  C139  1.489145 S    
C133  O82   1.398137 S    
C68   C94   1.462094 S    
Cu7   Cu8   2.690988 S    
C11   C15   1.543289 S    
Cu1   Cu3   2.694432 S    
C12   C40   1.542002 S    
C44   C48   1.559005 S    
O68   H10   1.013849 S    
O22   C84   1.297676 A    
C109  C133  1.489415 S    
C33   C37   1.540811 S    
O25   Cu6   1.947590 S    
C95   C105  1.463937 S    
C37   C45   1.550270 S    
C110  C119  1.411955 A    
O6    C2    1.295226 A    
N20   O152  1.301162 A    
O40   C94   1.284714 A    
O50   H5    1.013782 S    
C129  O74   1.398145 S    
O130  H29   1.013865 S    
C88   C120  1.458693 S    
C72   N20   1.437073 S    
C121  O49   1.221950 D    
C135  O85   1.223020 D    
O44   Cu11  1.976119 S    
C76   N4    1.437399 S    
N18   O148  1.301165 A    
O2    Cu1   1.975312 S    
O10   Cu1   1.947420 S    
Cu11  O47   1.976349 S    
C122  O51   1.221950 D    
C114  C117  1.415998 A    
C15   C123  1.499336 S    
C36   C40   1.540767 S    
C5    C17   1.431809 S    
C109  C119  1.412648 A    
C142  O108  1.396885 S    
N9    O113  1.300220 A    
C9    C25   1.533470 S    
C141  O106  1.396880 S    
C13   C121  1.499354 S    
O43   C93   1.285353 A    
C111  C120  1.412078 A    
O35   C90   1.284321 A    
N11   O117  1.300216 A    
C62   C150  1.488490 S    
C45   C141  1.498881 S    
N7    O102  1.300190 A    
C143  O109  1.221937 D    
O15   C7    1.298609 A    
N19   O149  1.300950 A    
O42   C92   1.285700 A    
C22   C84   1.431444 S    
O38   C92   1.284760 A    
O39   C93   1.284717 A    
C43   H3    1.110180 S    
C148  O135  1.222863 D    
O41   C91   1.285317 A    
O37   C91   1.284781 A    
C74   N2    1.437404 S    
N6    O100  1.300187 A    
C132  O79   1.222814 D    
N8    O103  1.300253 A    
C104  C106  1.416975 A    
O23   Cu7   1.947265 S    
C24   C56   1.203414 T    
O37   Cu9   1.975251 S    
O72   H12   1.013852 S    
O27   C85   1.297894 A    
C66   C92   1.462161 S    
C140  O96   1.397699 S    
C38   C46   1.550275 S    
C104  C132  1.488943 S    
C28   N16   1.457081 S    
C123  O54   1.396800 S    
C138  O91   1.223058 D    
O11   C7    1.298491 A    
O12   C8    1.298396 A    
O112  H28   1.013757 S    
C19   C51   1.203665 T    
O1    Cu1   1.975191 S    
O9    Cu1   1.947280 S    
C111  C135  1.488390 S    
C103  C106  1.417034 A    
C43   C47   1.558995 S    
C14   C30   1.548734 S    
O16   C8    1.298674 A    
O36   C90   1.284737 A    
C137  O90   1.397660 S    
O11   Cu2   1.947280 S    
C46   C142  1.498904 S    
C21   C53   1.203450 T    
C13   C45   1.550638 S    
C136  O88   1.397518 S    
C127  O69   1.222903 D    
O7    C3    1.295177 A    
O6    Cu3   1.974106 S    
C128  O71   1.222911 D    
C145  O130  1.397390 S    
C130  O76   1.398142 S    
O96   H24   1.013806 S    
N2    O60   1.301150 A    
C131  O78   1.398142 S    
C30   C42   1.556317 S    
O88   H20   1.013858 S    
O2    C2    1.296146 A    
C39   C55   1.465108 S    
N10   O115  1.300220 A    
C27   C35   1.531631 S    
C34   C38   1.540768 S    
C28   C36   1.531625 S    
C97   C125  1.489674 S    
C61   C149  1.488930 S    
C14   C122  1.499328 S    
O14   Cu3   1.946960 S    
O82   H17   1.013823 S    
C126  O68   1.398155 S    
N17   O145  1.300936 A    
C26   C30   1.539003 S    
Cu2   Cu4   2.694432 S    
O35   Cu11  1.976473 S    
N14   O123  1.300243 A    
C100  C102  1.404220 A    
Cu11  Cu12  2.653986 S    
C127  O70   1.398151 S    
C7    C19   1.431892 S    
C10   C38   1.542002 S    
C8    C20   1.431893 S    
N13   O121  1.300242 A    
O24   C86   1.297681 A    
C81   C107  1.457862 S    
C60   C148  1.488992 S    
C102  C105  1.416949 A    
C1    C77   1.457031 S    
N4    O63   1.301091 A    
O74   H13   1.013800 S    
C96   C106  1.463970 S    
C3    C79   1.457079 S    
C149  O137  1.223029 D    
N5    O97   1.300251 A    
C73   C77   1.407809 A    
C140  O95   1.223059 D    
