data_mof_unit_6294.cif
_audit_creation_date              2013-03-05T16:00:48-0500
_audit_creation_method            fapswitch 2.2
_symmetry_space_group_name_H-M    P1
_symmetry_Int_Tables_number       1
_space_group_crystal_system       triclinic
_cell_length_a                    14.704779
_cell_length_b                    14.611865
_cell_length_c                    15.878109
_cell_angle_alpha                 77.105323
_cell_angle_beta                  102.402228
_cell_angle_gamma                 114.629162
_cell_volume                      2994.37079741

loop_
_atom_site_label
_atom_site_type_symbol
_atom_site_description
_atom_site_fract_x
_atom_site_fract_y
_atom_site_fract_z
_atom_type_partial_charge
O1    O     O_R   0.977910 0.338120 0.529720 -0.537744
O2    O     O_R   0.839850 0.379180 0.491640 -0.591729
C1    C     C_R   0.880607 0.311714 0.513346 0.842609
O3    O     O_R   0.069060 0.479460 0.639610 -0.564791
O4    O     O_R   0.931000 0.520530 0.601530 -0.597266
C2    C     C_R   0.999044 0.499582 0.659578 0.821846
Cu1   Cu    Cu3+1 0.081750 0.475690 0.522550 1.005561
Cu2   Cu    Cu3+1 0.918250 0.524310 0.477450 0.930962
O5    O     O_R   0.160150 0.620820 0.508360 -0.591767
O6    O     O_R   0.022090 0.661880 0.470280 -0.605291
O7    O     O_R   0.069000 0.479470 0.398470 -0.557150
O8    O     O_R   0.930940 0.520540 0.360390 -0.581753
C3    C     C_R   0.119517 0.688060 0.486461 0.814401
C4    C     C_R   0.000605 0.499955 0.340490 0.831378
C5    C     C_3   0.971787 0.384771 0.970240 0.208735
C6    C     C_3   0.910672 0.530443 0.928013 -0.468708
C7    C     C_3   0.918666 0.539749 0.025521 -0.136879
H1    H     H_    0.899531 0.334374 0.090867 0.199814
H2    H     H_    0.922065 0.606183 0.887501 0.158408
H3    H     H_    0.834063 0.479227 0.902860 0.230895
H4    H     H_    0.951768 0.623115 0.028417 0.137317
C8    C     C_1   0.001532 0.499124 0.251354 -0.151620
C9    C     C_3   0.992709 0.494254 0.916800 0.064017
C10   C     C_3   0.972349 0.387392 0.067882 -0.410968
C11   C     C_3   0.997319 0.497025 0.083314 0.153077
C12   C     C_3   0.102510 0.565285 0.054915 -0.464471
C13   C     C_3   0.097410 0.571337 0.955109 0.143843
C14   C     C_1   0.000835 0.498280 0.175931 -0.034120
C15   C     C_1   0.993475 0.495959 0.824261 0.051243
C16   C     C_1   0.995955 0.497760 0.748894 -0.101759
H5    H     H_    0.102410 0.649471 0.924221 0.128229
H6    H     H_    0.159493 0.534601 0.092521 0.225171
H7    H     H_    0.034109 0.362532 0.966428 0.167856
H8    H     H_    0.030087 0.359412 0.108500 0.185669
H9    H     H_    0.127443 0.643418 0.070711 0.159105
C17   C     C_R   0.813871 0.202676 0.517566 -0.180036
C18   C     C_R   0.186920 0.796460 0.479893 -0.114287
C19   C     C_R   0.781818 0.023637 0.524943 -0.111524
C20   C     C_R   0.850169 0.125764 0.522553 0.295303
C21   C     C_R   0.710453 0.176468 0.514478 -0.286916
C22   C     C_R   0.639793 0.076732 0.508916 0.085756
C23   C     C_R   0.676674 0.999162 0.516481 0.060783
C24   C     C_R   0.533470 0.052418 0.495464 0.091716
C25   C     C_R   0.465463 0.949050 0.496933 0.095365
C26   C     C_R   0.505035 0.874306 0.503173 -0.210747
C27   C     C_R   0.607705 0.898846 0.512620 -0.203133
C28   C     C_R   0.492755 0.128298 0.476073 -0.244319
C29   C     C_R   0.389273 0.103484 0.461704 -0.148863
C30   C     C_R   0.321148 0.001864 0.468840 0.033155
C31   C     C_R   0.359570 0.923824 0.487938 0.049336
C32   C     C_R   0.215152 0.976002 0.454591 0.343351
C33   C     C_R   0.149490 0.873472 0.457352 -0.241537
C34   C     C_R   0.290775 0.822194 0.497899 -0.237740
H10   H     H_    0.632160 0.837657 0.515649 0.158702
H11   H     H_    0.316404 0.760916 0.521486 0.164038
H12   H     H_    0.068991 0.853814 0.444684 0.175737
H13   H     H_    0.363643 0.165538 0.443571 0.197790
H14   H     H_    0.686711 0.235987 0.517217 0.167085
H15   H     H_    0.458703 0.795805 0.497009 0.139015
H16   H     H_    0.538590 0.208628 0.467271 0.147120
N1    N     N_R   0.795410 0.560790 0.443550 -0.181675
N2    N     N_R   0.204590 0.439170 0.556520 -0.210935
C35   C     C_R   0.709308 0.658906 0.348030 -0.326277
C36   C     C_R   0.792497 0.631840 0.372736 0.052349
C37   C     C_R   0.717475 0.513345 0.491670 0.005043
C38   C     C_R   0.630496 0.537965 0.470387 -0.012489
C39   C     C_R   0.628202 0.612364 0.396553 0.170594
C40   C     C_R   0.545892 0.490785 0.518370 0.060312
C41   C     C_R   0.459465 0.516921 0.490272 0.107551
C42   C     C_R   0.461864 0.592280 0.416305 -0.227809
C43   C     C_R   0.544758 0.639225 0.371102 -0.199762
C44   C     C_R   0.546644 0.420831 0.594978 -0.279993
C45   C     C_R   0.463444 0.370702 0.640396 0.031914
C46   C     C_R   0.372666 0.386835 0.607661 -0.015235
C47   C     C_R   0.373178 0.466045 0.536252 -0.059198
C48   C     C_R   0.281565 0.328052 0.644696 0.228016
C49   C     C_R   0.200271 0.358608 0.619409 0.098913
C50   C     C_R   0.286488 0.491130 0.513754 0.012436
H17   H     H_    0.542822 0.696347 0.314655 0.150702
H18   H     H_    0.282010 0.552195 0.463050 0.128832
H19   H     H_    0.131292 0.315603 0.648084 0.182881
H20   H     H_    0.708465 0.715986 0.291353 0.144227
H21   H     H_    0.855369 0.668049 0.335580 0.129170
H22   H     H_    0.725063 0.456013 0.545185 0.129309
H23   H     H_    0.400219 0.616459 0.390461 0.134971
H24   H     H_    0.613792 0.406812 0.623921 0.136438
C51   C     C_R   0.820938 0.943614 0.531314 0.120025
C52   C     C_R   0.846831 0.928498 0.457024 -0.049221
C53   C     C_R   0.880679 0.850943 0.462367 -0.097467
C54   C     C_R   0.889206 0.788368 0.541818 -0.114010
C55   C     C_R   0.863594 0.803213 0.616088 -0.122727
C56   C     C_R   0.829399 0.880641 0.610976 -0.093427
H25   H     H_    0.839966 0.976165 0.395069 0.149319
H26   H     H_    0.899802 0.839289 0.404628 0.133315
H27   H     H_    0.915415 0.728291 0.545889 0.165389
H28   H     H_    0.869945 0.754551 0.677490 0.135366
H29   H     H_    0.809065 0.891310 0.668663 0.143708
N3    N     N_R   0.955504 0.150487 0.522979 0.135056
O9    O     O_R   0.996356 0.195636 0.452058 -0.305997
O10   O     O_R   0.007109 0.116662 0.590358 -0.295771
N4    N     N_R   0.877981 0.304223 0.937203 0.112567
O11   O     O_R   0.856845 0.210566 0.975428 -0.350336
O12   O     O_R   0.820882 0.321585 0.865832 -0.395109
N5    N     N_R   0.172666 0.051945 0.437812 0.123891
O13   O     O_R   0.092811 0.042894 0.380333 -0.344457
O14   O     O_R   0.200967 0.118147 0.490760 -0.278110
C57   C     C_R   0.480564 0.312510 0.727610 0.129759
C58   C     C_R   0.468271 0.339510 0.802797 -0.099844
C59   C     C_R   0.488014 0.287248 0.885142 -0.100010
C60   C     C_R   0.521706 0.208861 0.893257 -0.094296
C61   C     C_R   0.535543 0.182470 0.818977 -0.050666
C62   C     C_R   0.515359 0.234134 0.736417 -0.084678
H30   H     H_    0.443515 0.401011 0.797543 0.135773
H31   H     H_    0.477445 0.307829 0.942640 0.144317
H32   H     H_    0.537297 0.168687 0.957083 0.133761
H33   H     H_    0.562026 0.122034 0.825373 0.154627
H34   H     H_    0.526426 0.212940 0.679349 0.134471
N6    N     N_R   0.266007 0.232541 0.700878 0.135884
O15   O     O_R   0.216245 0.208053 0.766544 -0.335193
O16   O     O_R   0.283032 0.162443 0.676536 -0.288746
C63   C     C_R   0.816649 0.496699 0.059221 0.138735
C64   C     C_R   0.795427 0.555539 0.105747 -0.147144
C65   C     C_R   0.705462 0.516388 0.141800 -0.105351
C66   C     C_R   0.635353 0.418109 0.131956 -0.092195
C67   C     C_R   0.654865 0.359066 0.085636 -0.149475
C68   C     C_R   0.744430 0.398046 0.048934 -0.135182
H35   H     H_    0.849400 0.631340 0.115631 0.118646
H36   H     H_    0.690483 0.562060 0.177979 0.135968
H37   H     H_    0.565956 0.387643 0.160314 0.140066
H38   H     H_    0.600571 0.282729 0.078409 0.132021
H39   H     H_    0.756605 0.350693 0.012799 0.175818
N7    N     N_R   0.183872 0.558180 0.934898 0.132850
O17   O     O_R   0.207258 0.480847 0.973353 -0.368395
O18   O     O_R   0.242018 0.628108 0.881400 -0.343078

loop_
_geom_bond_atom_site_label_1
_geom_bond_atom_site_label_2
_geom_bond_distance
_ccdc_geom_bond_type
C38   C40   1.435729 A    
C51   C52   1.401604 A    
C12   H6    1.112823 S    
N4    O11   1.301374 A    
C65   C66   1.395160 A    
C57   C62   1.406790 A    
N2    C49   1.351719 A    
C61   C62   1.397991 A    
N5    O14   1.301105 A    
C54   C55   1.397359 A    
C29   H13   1.081098 S    
C36   H21   1.081663 S    
C26   C27   1.380538 A    
C11   C14   1.464308 S    
Cu1   O7    1.929020 S    
C12   C13   1.554584 S    
C46   C48   1.425504 A    
H1    C10   1.109133 S    
O4    C2    1.295214 A    
C9    C15   1.466372 S    
C19   C23   1.416959 A    
C23   C27   1.398293 A    
C19   C20   1.406953 A    
Cu2   O6    1.949224 S    
O7    C4    1.295700 A    
C50   H18   1.074348 S    
C45   C57   1.485659 S    
C53   H26   1.081145 S    
C58   C59   1.397520 A    
C22   C23   1.420148 A    
C64   H35   1.082913 S    
C30   C31   1.421447 A    
O5    C3    1.300301 A    
C60   C61   1.397360 A    
C55   H28   1.082430 S    
N6    O15   1.301375 A    
C67   H38   1.081796 S    
C26   H15   1.076843 S    
C6    C7    1.559437 S    
C30   C32   1.420964 A    
C40   C41   1.430034 A    
C57   C58   1.405656 A    
C61   H33   1.082334 S    
C9    C13   1.570723 S    
Cu2   O8    1.922456 S    
C3    C18   1.471137 S    
C40   C44   1.404728 A    
Cu2   N1    2.023247 S    
C18   C34   1.391820 A    
C5    C9    1.571603 S    
C38   C39   1.414959 A    
C28   H16   1.076754 S    
N4    O12   1.301559 A    
C8    C14   1.198182 T    
C51   C56   1.403721 A    
C13   N7    1.470683 S    
C22   C24   1.429592 A    
O3    Cu1   1.922454 S    
C43   H17   1.084307 S    
N5    O13   1.301309 A    
C56   H29   1.083026 S    
N6    O16   1.301223 A    
C48   C49   1.395798 A    
C34   H11   1.074691 S    
C45   C46   1.420266 A    
C35   C39   1.401189 A    
C31   C34   1.401935 A    
C21   H14   1.075456 S    
C46   C47   1.426855 A    
C35   H20   1.083736 S    
C13   H5    1.115791 S    
C32   C33   1.400659 A    
C17   C21   1.397385 A    
C10   C11   1.551561 S    
O3    C2    1.296577 A    
C55   C56   1.398223 A    
C18   C33   1.396133 A    
N7    O17   1.301423 A    
C20   N3    1.435248 S    
C11   C12   1.550400 S    
C10   H8    1.113717 S    
O1    C1    1.299443 A    
C58   H30   1.083142 S    
N1    C36   1.356205 A    
C24   C25   1.420307 A    
Cu1   N2    2.023604 S    
C15   C16   1.199148 T    
C28   C29   1.388155 A    
C49   H19   1.081874 S    
C6    H3    1.107277 S    
C27   H10   1.082765 S    
C5    N4    1.474694 S    
C63   C64   1.410119 A    
C42   C43   1.389483 A    
C59   H31   1.081927 S    
C1    C17   1.477623 S    
C7    C63   1.529860 S    
C5    C10   1.557537 S    
C2    C16   1.422602 S    
O8    C4    1.295385 A    
C37   C38   1.422348 A    
C6    C9    1.559658 S    
N3    O10   1.301000 A    
C67   C68   1.398170 A    
C53   C54   1.398580 A    
C25   C26   1.413440 A    
C25   C31   1.424973 A    
Cu1   O5    1.933263 S    
C52   H25   1.083127 S    
C21   C22   1.402556 A    
O1    Cu1   1.949224 S    
N2    C50   1.359015 A    
C17   C20   1.412876 A    
O2    Cu2   1.933263 S    
C44   C45   1.396309 A    
C37   H22   1.075048 S    
O6    C3    1.301460 A    
C54   H27   1.081312 S    
O4    Cu2   1.929019 S    
C44   H24   1.076926 S    
C19   C51   1.480275 S    
C7    C11   1.568349 S    
C4    C8    1.421103 S    
O2    C1    1.304548 A    
C32   N5    1.437718 S    
C63   C68   1.409629 A    
C59   C60   1.397702 A    
C65   H36   1.082517 S    
C62   H34   1.083532 S    
C68   H39   1.079147 S    
C6    H2    1.113839 S    
C29   C30   1.398229 A    
C66   H37   1.082378 S    
C41   C47   1.437031 A    
C39   C43   1.393034 A    
C41   C42   1.414683 A    
C47   C50   1.422105 A    
C48   N6    1.435851 S    
Cu1   Cu2   2.693485 S    
C35   C36   1.390886 A    
N1    C37   1.362078 A    
C12   H9    1.113625 S    
C52   C53   1.395777 A    
N7    O18   1.301193 A    
N3    O9    1.301098 A    
C64   C65   1.397651 A    
C42   H23   1.075797 S    
C24   C28   1.415719 A    
C60   H32   1.082159 S    
C5    H7    1.109022 S    
C33   H12   1.079026 S    
C66   C67   1.395609 A    
C7    H4    1.115381 S    
