data_mof_unit_35465.cif
_audit_creation_date              2012-12-10T16:39:40-0500
_audit_creation_method            fapswitch 2.2
_symmetry_space_group_name_H-M    P1
_symmetry_Int_Tables_number       1
_space_group_crystal_system       triclinic
_cell_length_a                    17.025937
_cell_length_b                    16.640673
_cell_length_c                    16.834011
_cell_angle_alpha                 65.860219
_cell_angle_beta                  65.664888
_cell_angle_gamma                 65.689113
_cell_volume                      3792.29427561

loop_
_atom_site_label
_atom_site_type_symbol
_atom_type_description
_atom_site_fract_x
_atom_site_fract_y
_atom_site_fract_z
_atom_type_partial_charge
C1    C     C_R   0.311590 0.004408 0.433781 -0.013780
C2    C     C_R   0.322106 0.458151 0.955655 -0.002283
C3    C     C_R   0.550746 0.424693 0.960383 0.027431
C4    C     C_R   0.969169 0.472826 0.596886 0.030017
C5    C     C_R   0.979399 0.549647 0.412785 0.029035
C6    C     C_3   0.257407 0.890720 0.255783 -0.197327
C7    C     C_3   0.694160 0.189874 0.697516 -0.286448
C8    C     C_3   0.902195 0.246481 0.247984 -0.181584
C9    C     C_3   0.113359 0.742534 0.740299 -0.182922
C10   C     C_3   0.250965 0.248249 0.899866 -0.190160
C11   C     C_3   0.742192 0.745525 0.110252 -0.193807
C12   C     C_R   0.046786 0.674934 0.540972 0.004058
C13   C     C_R   0.931408 0.331622 0.461551 -0.003907
C14   C     C_R   0.450080 0.003785 0.446899 -0.029441
C15   C     C_R   0.539065 0.036030 0.536494 -0.029086
C16   C     C_R   0.958288 0.465720 0.460690 -0.030440
C17   C     C_R   0.997127 0.552843 0.547401 -0.029736
C18   C     C_R   0.458274 0.461746 0.969569 -0.029523
C19   C     C_R   0.546650 0.549411 0.005524 -0.029556
C20   C     C_R   0.958597 0.179934 0.439194 0.909752
C21   C     C_R   0.676264 0.047019 0.541529 -0.003659
C22   C     C_R   0.039939 0.820104 0.560795 0.938929
C23   C     C_R   0.179352 0.436980 0.963696 0.982938
C24   C     C_R   0.822216 0.567879 0.025114 0.968062
C25   C     C_R   0.437891 0.962039 0.179507 0.909684
C26   C     C_R   0.561958 0.038247 0.820348 0.944289
C27   C     C_R   0.561129 0.820364 0.039864 0.909187
C28   C     C_R   0.438732 0.179755 0.959778 0.908688
C29   C     C_R   0.025327 0.567629 0.822035 0.977632
C30   C     C_R   0.959598 0.438939 0.179434 0.973839
C31   C     C_R   0.820857 0.034349 0.563687 0.965234
C32   C     C_R   0.941149 0.462616 0.325240 -0.005506
C33   C     C_R   0.176988 0.976822 0.431650 0.976793
C34   C     C_R   0.405889 0.986516 0.402617 0.064946
C35   C     C_R   0.584729 0.049186 0.582518 0.062471
C36   C     C_R   0.942980 0.420148 0.415956 0.059310
C37   C     C_R   0.016742 0.596092 0.591158 0.063216
C38   C     C_R   0.413329 0.416888 0.953651 0.059546
C39   C     C_R   0.591204 0.593624 0.022695 0.063400
C40   C     C_R   0.271173 0.973458 0.395383 -0.223961
C41   C     C_R   0.722423 0.055622 0.591589 -0.234086
C42   C     C_R   0.934098 0.411550 0.278643 -0.206502
C43   C     C_R   0.001481 0.563504 0.685991 -0.011465
C44   C     C_R   0.030801 0.602853 0.726775 -0.217621
C45   C     C_R   0.410315 0.280937 0.933061 -0.212632
C46   C     C_R   0.589613 0.719814 0.062964 -0.191636
C47   C     C_R   0.589942 0.063344 0.719837 -0.240330
C48   C     C_R   0.408413 0.942708 0.278887 -0.190133
C49   C     C_R   0.727100 0.602628 0.031960 -0.217095
C50   C     C_R   0.277356 0.408845 0.942997 -0.209419
C51   C     C_R   0.060755 0.719926 0.588610 -0.189246
C52   C     C_R   0.930268 0.281214 0.410973 -0.211041
C53   C     C_R   0.443810 0.081134 0.700814 -0.194561
C54   C     C_R   0.459698 0.330584 0.936489 0.000201
C55   C     C_R   0.550253 0.938137 0.294347 -0.191995
C56   C     C_R   0.058944 0.707709 0.445773 -0.190554
C57   C     C_R   0.918391 0.297975 0.556731 -0.220809
C58   C     C_R   0.733297 0.487812 0.964784 -0.218562
C59   C     C_R   0.280904 0.548372 0.967416 -0.199254
C60   C     C_R   0.262828 0.048825 0.504244 -0.218156
C61   C     C_R   0.716925 0.037388 0.451585 -0.196103
C62   C     C_R   0.554389 0.298199 0.920369 -0.210508
C63   C     C_R   0.447259 0.703964 0.069737 -0.189454
C64   C     C_R   0.945357 0.555220 0.285267 -0.192770
C65   C     C_R   0.541954 0.672829 0.052910 0.003983
C66   C     C_R   0.961449 0.490152 0.735036 -0.219086
C67   C     C_R   0.322596 0.933908 0.324208 0.414784
C68   C     C_R   0.675415 0.074586 0.674792 0.418608
C69   C     C_R   0.916783 0.326558 0.325326 0.416230
C70   C     C_R   0.069968 0.673922 0.674945 0.408425
C71   C     C_R   0.325225 0.326262 0.920603 0.413642
C72   C     C_R   0.675985 0.674895 0.070503 0.416507
C73   C     C_R   0.676727 0.010384 0.413309 0.097474
C74   C     C_R   0.306797 0.058372 0.553143 0.105538
C75   C     C_R   0.954375 0.439786 0.690847 0.110744
C76   C     C_R   0.538971 0.063526 0.669529 -0.002799
C77   C     C_R   0.974258 0.593902 0.323739 0.101420
C78   C     C_R   0.404197 0.664323 0.046851 0.108528
C79   C     C_R   0.599548 0.344051 0.932847 0.110716
C80   C     C_R   0.592987 0.961093 0.334072 0.107022
C81   C     C_R   0.397414 0.075145 0.651565 0.107748
C82   C     C_R   0.320666 0.585990 0.995827 0.096106
C83   C     C_R   0.688782 0.438217 0.957288 0.108839
C84   C     C_R   0.930185 0.344528 0.602062 0.110605
C85   C     C_R   0.031455 0.670259 0.404233 0.106470
C86   C     C_R   0.725416 0.983576 0.333073 -0.203862
C87   C     C_R   0.455582 0.954986 0.324671 0.004577
C88   C     C_R   0.257977 0.090489 0.630445 -0.204661
C89   C     C_R   0.932235 0.356845 0.739597 -0.205989
C90   C     C_R   0.998108 0.676103 0.274576 -0.206768
C91   C     C_R   0.312618 0.703712 0.051592 -0.200900
C92   C     C_R   0.692872 0.310057 0.919183 -0.205629
C93   C     C_R   0.684665 0.955991 0.295578 -0.200524
C94   C     C_R   0.302939 0.096876 0.680287 -0.202583
C95   C     C_R   0.271913 0.666579 0.023371 -0.205012
C96   C     C_R   0.736852 0.356711 0.931688 -0.201581
C97   C     C_R   0.920115 0.309402 0.695712 -0.214175
C98   C     C_R   0.685570 0.561708 0.004970 -0.008168
C99   C     C_R   0.029826 0.712110 0.313452 -0.204775
C100  C     C_R   0.543187 0.991586 0.412248 0.025412
C101  C     C_R   0.446033 0.047695 0.571597 0.026632
C102  C     C_R   0.953730 0.427004 0.552895 0.028923
C103  C     C_R   0.003149 0.590693 0.454735 0.026823
C104  C     C_R   0.410669 0.543717 0.995014 0.031178
C105  C     C_R   0.595248 0.470386 0.975178 0.030391
C106  C     C_R   0.586514 0.011646 0.454668 0.030774
C107  C     C_R   0.401020 0.035646 0.524460 0.031419
C108  C     C_R   0.453799 0.585472 0.016386 0.025292
H1    H     H_    0.263722 0.119592 0.740836 0.129657
H2    H     H_    0.273345 0.764899 0.074152 0.122886
H3    H     H_    0.995078 0.710752 0.205175 0.123117
H4    H     H_    0.928357 0.326878 0.810780 0.119859
H5    H     H_    0.404156 0.104593 0.760636 0.165178
H6    H     H_    0.592236 0.905731 0.240649 0.159587
H7    H     H_    0.090126 0.762110 0.402638 0.164076
H8    H     H_    0.895370 0.237715 0.597405 0.169451
H9    H     H_    0.805104 0.467409 0.935891 0.165713
H10   H     H_    0.220245 0.595213 0.950559 0.175906
H11   H     H_    0.190653 0.078057 0.522389 0.180502
H12   H     H_    0.724039 0.933599 0.234847 0.125588
H13   H     H_    0.777887 0.054235 0.405969 0.176899
H14   H     H_    0.594697 0.239546 0.894159 0.165080
H15   H     H_    0.405896 0.758945 0.101029 0.157370
H16   H     H_    0.924563 0.600531 0.225449 0.169525
H17   H     H_    0.932696 0.470516 0.807577 0.166313
H18   H     H_    0.302741 0.860113 0.199225 0.162220
H19   H     H_    0.231332 0.966861 0.228207 0.150282
H20   H     H_    0.199164 0.862484 0.287632 0.160430
H21   H     H_    0.717113 0.223020 0.622901 0.158645
H22   H     H_    0.620261 0.219936 0.725367 0.155527
H23   H     H_    0.050280 0.774151 0.273590 0.121649
H24   H     H_    0.728626 0.205449 0.730502 0.173322
H25   H     H_    0.879985 0.183329 0.283685 0.161072
H26   H     H_    0.880415 0.280201 0.185334 0.174227
H27   H     H_    0.977248 0.226253 0.227891 0.147143
H28   H     H_    0.141827 0.710486 0.798540 0.164431
H29   H     H_    0.142844 0.799743 0.693729 0.180546
H30   H     H_    0.038935 0.770491 0.767653 0.149885
H31   H     H_    0.189841 0.281660 0.876372 0.175571
H32   H     H_    0.288300 0.185923 0.875930 0.155855
H33   H     H_    0.229490 0.226869 0.975774 0.150494
H34   H     H_    0.903532 0.245198 0.734787 0.130718
H35   H     H_    0.696852 0.803539 0.139380 0.161596
H36   H     H_    0.768172 0.772257 0.034813 0.155353
H37   H     H_    0.800558 0.714132 0.137868 0.160679
H38   H     H_    0.807888 0.327289 0.924881 0.121813
H39   H     H_    0.201753 0.699680 0.025012 0.126910
H40   H     H_    0.185033 0.108553 0.653705 0.138469
H41   H     H_    0.795672 0.981679 0.300662 0.128141
H42   H     H_    0.731723 0.247208 0.899490 0.131289
O1    O     O_R   0.982940 0.138950 0.510160 -0.645880
O2    O     O_R   0.982940 0.510160 0.138950 -0.645493
O3    O     O_R   0.861050 0.017060 0.489840 -0.660038
O4    O     O_R   0.138950 0.982940 0.510160 -0.650779
O5    O     O_R   0.867700 0.025880 0.612340 -0.567257
O6    O     O_R   0.132300 0.974120 0.387660 -0.633234
O7    O     O_R   0.025880 0.612340 0.867700 -0.637026
O8    O     O_R   0.974120 0.387660 0.132300 -0.633881
O9    O     O_R   0.612340 0.867700 0.025880 -0.639536
O10   O     O_R   0.387660 0.132300 0.974120 -0.636329
O11   O     O_R   0.387660 0.974120 0.132300 -0.643092
O12   O     O_R   0.017060 0.861050 0.489840 -0.635348
O13   O     O_R   0.612340 0.025880 0.867700 -0.564612
O14   O     O_R   0.132300 0.387660 0.974120 -0.631164
O15   O     O_R   0.867700 0.612340 0.025880 -0.637811
O16   O     O_R   0.974120 0.132300 0.387660 -0.640952
O17   O     O_R   0.025880 0.867700 0.612340 -0.638033
O18   O     O_3   0.302664 0.862133 0.321128 -0.593088
O19   O     O_3   0.717570 0.093498 0.717340 -0.574723
O20   O     O_3   0.857650 0.306022 0.303932 -0.594629
O21   O     O_3   0.140620 0.676067 0.694959 -0.590608
O22   O     O_3   0.304690 0.308916 0.858176 -0.596210
O23   O     O_R   0.138950 0.510160 0.982940 -0.649245
O24   O     O_3   0.696908 0.679042 0.140253 -0.593237
O25   O     O_R   0.861050 0.489840 0.017060 -0.657994
O26   O     O_R   0.510160 0.982940 0.138950 -0.634519
O27   O     O_R   0.489840 0.017060 0.861050 -0.643504
O28   O     O_R   0.489840 0.861050 0.017060 -0.631794
O29   O     O_R   0.510160 0.138950 0.982940 -0.627398
O30   O     O_R   0.017060 0.489840 0.861050 -0.656412
Zn1   Zn    Zn3+2 0.004880 0.004880 0.583590 0.924951
Zn2   Zn    Zn3+2 0.995120 0.995120 0.416410 0.881376
Zn3   Zn    Zn3+2 0.004880 0.583590 0.004880 0.887720
Zn4   Zn    Zn3+2 0.995120 0.416410 0.995120 0.883550
Zn5   Zn    Zn3+2 0.583590 0.004880 0.004880 0.935356
Zn6   Zn    Zn3+2 0.416410 0.995120 0.995120 0.888001

loop_
_geom_bond_atom_site_label_1
_geom_bond_atom_site_label_2
_ccdc_geom_bond_type
C67   O18   S    
C101  C107  A    
C63   C65   A    
C53   C81   A    
C55   C80   A    
C45   C71   A    
C84   C102  A    
C64   C77   A    
C90   C99   A    
O16   Zn2   S    
C59   C82   A    
O10   Zn6   S    
C50   C71   A    
C3    C79   A    
C5    C103  A    
C56   C85   A    
C33   O6    A    
O26   Zn5   S    
C81   C101  A    
C3    C105  A    
C89   H4    S    
C3    C18   A    
C85   C99   A    
C84   C97   A    
C32   C36   A    
C15   C106  A    
C78   C108  A    
C47   C76   A    
O12   Zn2   S    
C46   C72   A    
C22   O12   A    
C13   C57   A    
C66   C75   A    
C10   O22   S    
O4    Zn1   S    
C26   O13   A    
C92   C96   A    
C60   H11   S    
C61   H13   S    
C9    H30   S    
C12   C37   A    
C20   O1    A    
C7    H22   S    
C52   C69   A    
C2    C50   A    
C1    C40   A    
C74   C107  A    
C9    H29   S    
C53   H5    S    
C5    C16   A    
C49   C72   A    
C58   C98   A    
C27   O28   A    
C44   C70   A    
C51   C70   A    
C72   O24   S    
C41   C68   A    
C62   H14   S    
C11   H36   S    
C21   C61   A    
C85   C103  A    
C34   C87   A    
C19   C108  A    
C49   C98   A    
C80   C100  A    
C8    H27   S    
C39   C65   A    
C10   H32   S    
C90   H3    S    
C15   C35   A    
C31   O3    A    
C8    O20   S    
C1    C34   A    
O1    Zn1   S    
C57   H8    S    
C88   C94   A    
C77   C90   A    
C6    O18   S    
C35   C76   A    
C48   C87   A    
C33   C40   S    
C8    H26   S    
O15   Zn3   S    
C62   C79   A    
C95   H39   S    
C6    H18   S    
C13   C36   A    
C1    C60   A    
C25   O11   A    
C28   C45   S    
O6    Zn2   S    
C33   O4    A    
C11   H37   S    
C23   C50   S    
C29   O7    A    
C54   C62   A    
C61   C73   A    
C64   H16   S    
C29   O30   A    
C58   H9    S    
O27   Zn6   S    
C83   C105  A    
C4    C102  A    
C97   H34   S    
C10   H33   S    
O28   Zn6   S    
C37   C43   A    
C70   O21   S    
C14   C34   A    
O11   Zn6   S    
O14   Zn4   S    
C86   C93   A    
C13   C52   A    
C68   O19   S    
C2    C38   A    
C30   O2    A    
C38   C54   A    
C18   C38   A    
C88   H40   S    
C57   C84   A    
C18   C104  A    
C15   C101  A    
O2    Zn3   S    
C25   C48   S    
C32   C64   A    
C7    H24   S    
C12   C56   A    
C19   C39   A    
C26   C47   S    
C46   C65   A    
C21   C41   A    
C22   O17   A    
C19   C105  A    
C27   C46   S    
C16   C102  A    
C14   C107  A    
C93   H12   S    
C45   C54   A    
C59   H10   S    
C7    O19   S    
C28   O10   A    
C92   H42   S    
C31   O5    A    
C9    O21   S    
C53   C76   A    
C10   H31   S    
C4    C17   A    
C5    C77   A    
C47   C68   A    
C104  C108  A    
C12   C51   A    
C20   O16   A    
C40   C67   A    
C79   C92   A    
C23   O14   A    
C26   O27   A    
C24   C49   S    
C30   O8    A    
C11   O24   S    
C82   C104  A    
C82   C95   A    
C31   C41   S    
C8    H25   S    
C2    C59   A    
C91   H2    S    
C39   C98   A    
C6    H19   S    
C63   H15   S    
O5    Zn1   S    
C14   C100  A    
C23   O23   A    
C55   H6    S    
C17   C37   A    
C78   C91   A    
C96   H38   S    
C94   H1    S    
C100  C106  A    
C66   H17   S    
C99   H23   S    
O13   Zn5   S    
O9    Zn5   S    
C21   C35   A    
C17   C103  A    
C6    H20   S    
C29   C44   S    
C58   C83   A    
C16   C36   A    
C81   C94   A    
C25   O26   A    
C73   C106  A    
O17   Zn1   S    
C11   H35   S    
C43   C44   A    
C43   C66   A    
C83   C96   A    
C86   H41   S    
C60   C74   A    
C56   H7    S    
O29   Zn5   S    
C24   O15   A    
C69   O20   S    
C42   C69   A    
C48   C67   A    
C55   C87   A    
C28   O29   A    
C73   C86   A    
C7    H21   S    
C75   C89   A    
C27   O9    A    
C91   C95   A    
C4    C75   A    
C9    H28   S    
O3    Zn2   S    
O23   Zn3   S    
C20   C52   S    
C89   C97   A    
C32   C42   A    
C71   O22   S    
C30   C42   S    
O7    Zn3   S    
C74   C88   A    
C80   C93   A    
C24   O25   A    
O8    Zn4   S    
O30   Zn4   S    
C22   C51   S    
O25   Zn4   S    
C63   C78   A    
