data_mof_unit_65546.cif
_audit_creation_date              2013-03-05T16:26:57-0500
_audit_creation_method            fapswitch 2.2
_symmetry_space_group_name_H-M    P1
_symmetry_Int_Tables_number       1
_space_group_crystal_system       triclinic
_cell_length_a                    18.380219
_cell_length_b                    18.383931
_cell_length_c                    27.668353
_cell_angle_alpha                 90.00024
_cell_angle_beta                  90.000045
_cell_angle_gamma                 90.000653
_cell_volume                      9349.1552333

loop_
_atom_site_label
_atom_site_type_symbol
_atom_site_description
_atom_site_fract_x
_atom_site_fract_y
_atom_site_fract_z
_atom_type_partial_charge
Zn1   Zn    Zn3+2 0.500000 0.913210 0.039810 1.110054
Zn2   Zn    Zn3+2 0.086790 0.500000 0.039810 1.111721
Zn3   Zn    Zn3+2 0.500000 0.086790 0.039810 1.110899
Zn4   Zn    Zn3+2 0.913210 0.500000 0.039810 1.110704
Zn5   Zn    Zn3+2 1.000000 0.413210 0.539810 1.110797
Zn6   Zn    Zn3+2 0.586790 0.000000 0.539810 1.110802
Zn7   Zn    Zn3+2 1.000000 0.586790 0.539810 1.109960
Zn8   Zn    Zn3+2 0.413210 0.000000 0.539810 1.111771
Zn9   Zn    Zn3+2 0.586760 1.000000 0.960200 1.027009
Zn10  Zn    Zn3+2 0.000000 0.586760 0.960200 1.026461
Zn11  Zn    Zn3+2 0.413240 1.000000 0.960200 1.027397
Zn12  Zn    Zn3+2 1.000000 0.413240 0.960200 1.026777
Zn13  Zn    Zn3+2 0.086760 0.500000 0.460200 1.027450
Zn14  Zn    Zn3+2 0.500000 0.086760 0.460200 1.026706
Zn15  Zn    Zn3+2 0.913240 0.500000 0.460200 1.027071
Zn16  Zn    Zn3+2 0.500000 0.913240 0.460200 1.026390
H1    H     H_    0.153348 0.753721 0.892931 0.133402
H2    H     H_    0.245963 0.152851 0.893126 0.133420
H3    H     H_    0.846314 0.246785 0.892794 0.133490
H4    H     H_    0.753678 0.846773 0.892980 0.133450
H5    H     H_    0.153097 0.245976 0.893033 0.133376
H6    H     H_    0.246256 0.846804 0.892991 0.133433
H7    H     H_    0.846554 0.753662 0.892896 0.133403
H8    H     H_    0.753265 0.153846 0.892743 0.133466
H9    H     H_    0.653462 0.253486 0.392882 0.133451
H10   H     H_    0.746260 0.653181 0.392997 0.133429
H11   H     H_    0.346925 0.745953 0.393043 0.133346
H12   H     H_    0.253687 0.346781 0.392982 0.133447
H13   H     H_    0.653368 0.746278 0.392925 0.133388
H14   H     H_    0.746470 0.346467 0.392862 0.133440
H15   H     H_    0.346566 0.253671 0.392900 0.133411
H16   H     H_    0.254059 0.652827 0.393136 0.133400
O1    O     O_3   0.500000 0.000000 0.000010 -0.540921
O2    O     O_3   1.000000 0.500000 0.000010 -0.541316
O3    O     O_3   1.000000 0.500000 0.500010 -0.540878
O4    O     O_3   0.500000 1.000000 0.500010 -0.541367
O5    O     O_R   0.439270 0.000000 0.893740 -0.623777
O6    O     O_R   0.000000 0.439270 0.893740 -0.623861
O7    O     O_R   0.560730 0.000000 0.893740 -0.624004
O8    O     O_R   1.000000 0.560730 0.893740 -0.623852
O9    O     O_R   0.939270 0.500000 0.393740 -0.623947
O10   O     O_R   0.500000 0.939270 0.393740 -0.623776
O11   O     O_R   0.060730 0.500000 0.393740 -0.623803
O12   O     O_R   0.500000 0.060730 0.393740 -0.623889
O13   O     O_R   0.500000 0.939230 0.106280 -0.590008
O14   O     O_R   0.060770 0.500000 0.106280 -0.590325
O15   O     O_R   0.500000 0.060770 0.106280 -0.590140
O16   O     O_R   0.939230 0.500000 0.106280 -0.590203
O17   O     O_R   1.000000 0.439230 0.606280 -0.590110
O18   O     O_R   0.560770 0.000000 0.606280 -0.590196
O19   O     O_R   1.000000 0.560770 0.606280 -0.589992
O20   O     O_R   0.439230 0.000000 0.606280 -0.590359
O21   O     O_R   0.646160 0.914520 0.972140 -0.635712
O22   O     O_R   0.085480 0.646160 0.972140 -0.636008
O23   O     O_R   0.353840 0.085480 0.972140 -0.635714
O24   O     O_R   0.914520 0.353840 0.972140 -0.635948
O25   O     O_R   0.646160 0.085480 0.972140 -0.635968
O26   O     O_R   0.085480 0.353840 0.972140 -0.635914
O27   O     O_R   0.353840 0.914520 0.972140 -0.635752
O28   O     O_R   0.914520 0.646160 0.972140 -0.635937
O29   O     O_R   0.146160 0.414520 0.472140 -0.635791
O30   O     O_R   0.585480 0.146160 0.472140 -0.635919
O31   O     O_R   0.853840 0.585480 0.472140 -0.635719
O32   O     O_R   0.414520 0.853840 0.472140 -0.635976
O33   O     O_R   0.146160 0.585480 0.472140 -0.635634
O34   O     O_R   0.585480 0.853840 0.472140 -0.635966
O35   O     O_R   0.853840 0.414520 0.472140 -0.635893
O36   O     O_R   0.414520 0.146160 0.472140 -0.636006
O37   O     O_R   0.414550 0.146120 0.027860 -0.600820
O38   O     O_R   0.853880 0.414550 0.027860 -0.600373
O39   O     O_R   0.585450 0.853880 0.027860 -0.601265
O40   O     O_R   0.146120 0.585450 0.027860 -0.599390
O41   O     O_R   0.414550 0.853880 0.027860 -0.601125
O42   O     O_R   0.853880 0.585450 0.027860 -0.599860
O43   O     O_R   0.585450 0.146120 0.027860 -0.600279
O44   O     O_R   0.146120 0.414550 0.027860 -0.599241
O45   O     O_R   0.914550 0.646120 0.527860 -0.601281
O46   O     O_R   0.353880 0.914550 0.527860 -0.599177
O47   O     O_R   0.085450 0.353880 0.527860 -0.600893
O48   O     O_R   0.646120 0.085450 0.527860 -0.600111
O49   O     O_R   0.914550 0.353880 0.527860 -0.600495
O50   O     O_R   0.353880 0.085450 0.527860 -0.599185
O51   O     O_R   0.085450 0.646120 0.527860 -0.601327
O52   O     O_R   0.646120 0.914550 0.527860 -0.599790
C1    C     C_1   0.000000 0.500000 0.775498 0.061290
C2    C     C_1   0.500000 0.000001 0.775498 0.061282
C3    C     C_1   0.500000 1.000000 0.275498 0.061308
C4    C     C_1   1.000000 0.499999 0.275498 0.061305
C5    C     C_R   0.500000 1.000000 0.870876 0.849391
C6    C     C_R   1.000000 0.500000 0.870878 0.849270
C7    C     C_R   1.000000 0.500000 0.370876 0.849385
C8    C     C_R   0.500000 1.000000 0.370878 0.849271
C9    C     C_R   0.500000 0.000000 0.129129 0.864782
C10   C     C_R   1.000000 0.499999 0.129132 0.862738
C11   C     C_R   0.000000 0.500000 0.629129 0.865009
C12   C     C_R   0.500000 0.000000 0.629132 0.862448
C13   C     C_R   0.640872 0.860569 0.000745 0.897549
C14   C     C_R   0.139508 0.640809 0.000700 0.895653
C15   C     C_R   0.359122 0.139426 0.000751 0.897446
C16   C     C_R   0.860544 0.359151 0.000731 0.897355
C17   C     C_R   0.640815 0.139501 0.000697 0.896246
C18   C     C_R   0.139524 0.359202 0.000693 0.895230
C19   C     C_R   0.359137 0.860557 0.000738 0.897323
C20   C     C_R   0.860480 0.640799 0.000693 0.895509
C21   C     C_R   0.140871 0.360567 0.500744 0.897556
C22   C     C_R   0.639471 0.140838 0.500723 0.896855
C23   C     C_R   0.859132 0.639436 0.500742 0.897397
C24   C     C_R   0.360477 0.859202 0.500693 0.895048
C25   C     C_R   0.140879 0.639424 0.500752 0.897516
C26   C     C_R   0.639514 0.859195 0.500697 0.895558
C27   C     C_R   0.859171 0.360516 0.500710 0.896494
C28   C     C_R   0.360480 0.140800 0.500693 0.895527
C29   C     C_1   0.000000 0.500000 0.819049 -0.076263
C30   C     C_1   0.500000 0.000000 0.819048 -0.076210
C31   C     C_1   0.500000 1.000000 0.319049 -0.076241
C32   C     C_1   1.000000 0.500000 0.319048 -0.076175
C33   C     C_R   0.250937 0.801896 0.966127 -0.110345
C34   C     C_R   0.198074 0.250899 0.966147 -0.109894
C35   C     C_R   0.748867 0.198320 0.966003 -0.110016
C36   C     C_R   0.801811 0.748982 0.966079 -0.109922
C37   C     C_R   0.250829 0.197989 0.966196 -0.110414
C38   C     C_R   0.198156 0.749010 0.966096 -0.110001
C39   C     C_R   0.749048 0.801886 0.966122 -0.110331
C40   C     C_R   0.801735 0.251123 0.966030 -0.110243
C41   C     C_R   0.751034 0.301785 0.466062 -0.110139
C42   C     C_R   0.698164 0.750994 0.466092 -0.110003
C43   C     C_R   0.249179 0.697982 0.466200 -0.110424
C44   C     C_R   0.301815 0.248986 0.466081 -0.109925
C45   C     C_R   0.750935 0.698099 0.466130 -0.110346
C46   C     C_R   0.698191 0.248957 0.466072 -0.110184
C47   C     C_R   0.249050 0.301888 0.466124 -0.110390
C48   C     C_R   0.301933 0.750892 0.466151 -0.109938
C49   C     C_R   0.299092 0.809310 0.004667 -0.203406
C50   C     C_R   0.190950 0.299299 0.004562 -0.204047
C51   C     C_R   0.700750 0.190890 0.004554 -0.203770
C52   C     C_R   0.809057 0.700705 0.004551 -0.204054
C53   C     C_R   0.299045 0.190631 0.004708 -0.203313
C54   C     C_R   0.190903 0.700737 0.004572 -0.203839
C55   C     C_R   0.700936 0.809346 0.004683 -0.203372
C56   C     C_R   0.809265 0.299134 0.004633 -0.203405
C57   C     C_R   0.799203 0.309170 0.504592 -0.203645
C58   C     C_R   0.690920 0.799276 0.504563 -0.203972
C59   C     C_R   0.200962 0.690623 0.504712 -0.203350
C60   C     C_R   0.309059 0.200707 0.504553 -0.203938
C61   C     C_R   0.799075 0.690669 0.504677 -0.203393
C62   C     C_R   0.690782 0.200830 0.504620 -0.203530
C63   C     C_R   0.200934 0.309342 0.504682 -0.203298
C64   C     C_R   0.309054 0.799296 0.504564 -0.204056
C65   C     C_R   0.285790 0.768669 0.047358 0.201963
C66   C     C_R   0.231698 0.286114 0.047221 0.204774
C67   C     C_R   0.714159 0.231402 0.047279 0.204108
C68   C     C_R   0.768423 0.714003 0.047242 0.204705
C69   C     C_R   0.285824 0.231361 0.047377 0.201394
C70   C     C_R   0.231556 0.714020 0.047257 0.204207
C71   C     C_R   0.714264 0.768728 0.047382 0.201572
C72   C     C_R   0.768761 0.285687 0.047362 0.202119
C73   C     C_R   0.785866 0.268578 0.547294 0.203478
C74   C     C_R   0.731567 0.785990 0.547250 0.204484
C75   C     C_R   0.214189 0.731347 0.547382 0.201389
C76   C     C_R   0.268421 0.214001 0.547242 0.204597
C77   C     C_R   0.785763 0.731302 0.547371 0.201770
C78   C     C_R   0.731372 0.214188 0.547324 0.202714
C79   C     C_R   0.214256 0.268719 0.547379 0.201564
C80   C     C_R   0.268313 0.786105 0.547225 0.204813
C81   C     C_1   0.500000 0.000000 0.224503 0.074990
C82   C     C_1   1.000000 0.499999 0.224504 0.075023
C83   C     C_1   0.000000 0.500000 0.724503 0.074972
C84   C     C_1   0.500000 0.000001 0.724504 0.075012
C85   C     C_1   0.499999 0.000000 0.180953 -0.035136
C86   C     C_1   1.000000 0.499999 0.180955 -0.034834
C87   C     C_1   0.000000 0.500000 0.680953 -0.035187
C88   C     C_1   0.500000 0.000001 0.680955 -0.034796
C89   C     C_3   0.203677 0.737477 0.912398 0.271288
C90   C     C_3   0.262353 0.203218 0.912487 0.271122
C91   C     C_3   0.796072 0.262990 0.912373 0.270997
C92   C     C_3   0.737356 0.796471 0.912437 0.271021
C93   C     C_3   0.203478 0.262259 0.912427 0.271364
C94   C     C_3   0.262578 0.796491 0.912436 0.271077
C95   C     C_3   0.796237 0.737439 0.912384 0.271277
C96   C     C_3   0.737081 0.204069 0.912341 0.271053
C97   C     C_3   0.703752 0.237247 0.412394 0.271117
C98   C     C_3   0.762587 0.703494 0.412440 0.271066
C99   C     C_3   0.296540 0.762240 0.412429 0.271426
C100  C     C_3   0.237365 0.296477 0.412438 0.271036
C101  C     C_3   0.703697 0.762517 0.412394 0.271317
C102  C     C_3   0.762718 0.296195 0.412382 0.271103
C103  C     C_3   0.296247 0.237445 0.412385 0.271271
C104  C     C_3   0.237665 0.703198 0.412489 0.271121
O53   O     O_3   0.228488 0.667877 0.898608 -0.683863
H17   H     H_    0.262418 0.649097 0.923574 0.342865
O54   O     O_3   0.332019 0.227789 0.898628 -0.683892
H18   H     H_    0.350921 0.261746 0.923537 0.342528
O55   O     O_3   0.771322 0.332709 0.898801 -0.684074
H19   H     H_    0.737519 0.351401 0.923872 0.342673
O56   O     O_3   0.667649 0.771844 0.898713 -0.684054
H20   H     H_    0.648832 0.737966 0.923696 0.342504
O57   O     O_3   0.228286 0.331805 0.898515 -0.683731
H21   H     H_    0.262289 0.350645 0.923419 0.342913
O58   O     O_3   0.332265 0.771847 0.898682 -0.684011
H22   H     H_    0.351090 0.737951 0.923651 0.342554
O59   O     O_3   0.771393 0.667843 0.898611 -0.683812
H23   H     H_    0.737473 0.649083 0.923590 0.342876
O60   O     O_3   0.667389 0.228895 0.898741 -0.684036
H24   H     H_    0.648703 0.262703 0.923808 0.342814
O61   O     O_3   0.728504 0.167578 0.398712 -0.683972
H25   H     H_    0.762371 0.148832 0.423727 0.342711
O62   O     O_3   0.832281 0.728127 0.398689 -0.684057
H26   H     H_    0.851109 0.762019 0.423660 0.342503
O63   O     O_3   0.271734 0.831782 0.398508 -0.683725
H27   H     H_    0.237728 0.850628 0.423407 0.342914
O64   O     O_3   0.167659 0.271850 0.398710 -0.684003
H28   H     H_    0.148841 0.237969 0.423690 0.342562
O65   O     O_3   0.728521 0.832112 0.398601 -0.683820
H29   H     H_    0.762451 0.850889 0.423568 0.342852
O66   O     O_3   0.832393 0.271437 0.398690 -0.683969
H30   H     H_    0.851147 0.237576 0.423704 0.342734
O67   O     O_3   0.271406 0.167849 0.398610 -0.683853
H31   H     H_    0.237483 0.149087 0.423586 0.342922
O68   O     O_3   0.168002 0.727765 0.398622 -0.683976
H32   H     H_    0.149095 0.761725 0.423526 0.342462
N1    N     N_R   0.324851 0.784251 0.091034 0.245017
O69   O     O_R   0.321372 0.848800 0.110183 -0.353903
O70   O     O_R   0.367268 0.735507 0.110175 -0.267306
N2    N     N_R   0.216780 0.325910 0.090652 0.247421
O71   O     O_R   0.153687 0.319735 0.111565 -0.351781
O72   O     O_R   0.262862 0.374198 0.106250 -0.266576
N3    N     N_R   0.674792 0.216046 0.090831 0.246565
O73   O     O_R   0.680225 0.152364 0.111021 -0.352863
O74   O     O_R   0.628118 0.262829 0.107620 -0.267551
N4    N     N_R   0.783507 0.674364 0.090714 0.247251
O75   O     O_R   0.846780 0.680384 0.111406 -0.352380
O76   O     O_R   0.737287 0.626455 0.106636 -0.267572
N5    N     N_R   0.324861 0.215784 0.091074 0.244748
O77   O     O_R   0.321905 0.151060 0.110001 -0.354028
O78   O     O_R   0.366035 0.265039 0.110827 -0.266444
N6    N     N_R   0.216409 0.674462 0.090759 0.246914
O79   O     O_R   0.152906 0.680031 0.111197 -0.352724
O80   O     O_R   0.263086 0.627381 0.107172 -0.266142
N7    N     N_R   0.675312 0.784408 0.091094 0.244787
O81   O     O_R   0.678407 0.849143 0.109993 -0.354283
O82   O     O_R   0.633870 0.735321 0.110783 -0.267205
N8    N     N_R   0.784450 0.324647 0.091055 0.245215
O83   O     O_R   0.849024 0.321031 0.110172 -0.354295
O84   O     O_R   0.735880 0.367337 0.110126 -0.266172
N9    N     N_R   0.825184 0.283954 0.590874 0.246084
O85   O     O_R   0.820351 0.347886 0.610785 -0.353212
O86   O     O_R   0.870696 0.236549 0.608291 -0.267420
N10   N     N_R   0.716453 0.825589 0.590737 0.247077
O87   O     O_R   0.653065 0.819796 0.611303 -0.352657
O88   O     O_R   0.762898 0.873099 0.606898 -0.267193
N11   N     N_R   0.175166 0.715752 0.591083 0.244665
O89   O     O_R   0.178107 0.651013 0.609988 -0.354035
O90   O     O_R   0.134043 0.765015 0.610872 -0.267266
N12   N     N_R   0.283509 0.174367 0.590717 0.247226
O91   O     O_R   0.346797 0.180358 0.611393 -0.352188
O92   O     O_R   0.237261 0.126507 0.606667 -0.266199
N13   N     N_R   0.824769 0.715671 0.591066 0.244892
O93   O     O_R   0.821493 0.651025 0.610085 -0.354180
O94   O     O_R   0.866683 0.764597 0.610490 -0.267381
N14   N     N_R   0.715888 0.175014 0.590953 0.245661
O95   O     O_R   0.651625 0.179171 0.610479 -0.353791
O96   O     O_R   0.763969 0.130972 0.609200 -0.266250
N15   N     N_R   0.175290 0.284384 0.591088 0.244800
O97   O     O_R   0.178410 0.349103 0.610010 -0.354092
O98   O     O_R   0.133775 0.235317 0.610731 -0.266576
N16   N     N_R   0.283239 0.825898 0.590656 0.247490
O99   O     O_R   0.346333 0.819714 0.611566 -0.352084
O100  O     O_R   0.237173 0.874201 0.606248 -0.266435

loop_
_geom_bond_atom_site_label_1
_geom_bond_atom_site_label_2
_geom_bond_distance
_ccdc_geom_bond_type
Zn7   O51   1.940542 S    
O60   H24   0.992611 S    
C39   C55   1.392510 A    
C46   C62   1.392458 A    
C44   C103  1.504219 S    
O59   H23   0.992619 S    
C67   N3    1.433651 S    
N7    O81   1.301143 A    
C34   C93   1.504239 S    
C94   O58   1.410928 S    
C96   O60   1.410941 S    
C33   C49   1.392482 A    
N2    O71   1.300965 A    
H11   C99   1.111317 S    
Zn4   O38   1.940674 S    
C39   C92   1.504139 S    
O28   C20   1.272952 A    
Zn1   O1    1.938665 S    
N15   O97   1.301143 A    
C34   C50   1.392314 A    
C40   C91   1.504159 S    
O40   C14   1.270909 A    
O61   H25   0.992627 S    
Zn2   O14   1.900280 S    
H2    C90   1.111328 S    
O39   C13   1.271082 A    
C9    C85   1.433887 S    
N1    O69   1.301125 A    
O16   C10   1.283504 A    
Zn4   O42   1.940695 S    
C14   C54   1.455184 S    
Zn8   O50   1.940695 S    
C22   C62   1.455131 S    
H14   C102  1.111305 S    
O46   C24   1.270843 A    
Zn3   O37   1.940563 S    
C36   C95   1.504216 S    
Zn13  O3    1.938095 S    
C48   C99   1.504225 S    
Zn14  O4    1.938364 S    
C23   C61   1.455154 S    
Zn2   O40   1.940675 S    
N11   O90   1.300509 A    
Zn14  O30   1.941665 S    
C24   C64   1.455223 S    
Zn3   O1    1.938656 S    
C37   C53   1.392535 A    
C50   C66   1.418741 A    
O48   C22   1.271029 A    
Zn9   O7    1.900057 S    
Zn5   O49   1.940541 S    
C7    C32   1.433979 S    
O47   C21   1.271075 A    
C28   C60   1.455205 S    
Zn10  O8    1.900080 S    
N13   O93   1.301135 A    
Zn8   O4    1.938397 S    
C6    C29   1.434012 S    
C76   N12   1.433422 S    
Zn11  O5    1.900058 S    
C43   C48   1.373437 A    
N12   O92   1.300574 A    
C16   C56   1.455106 S    
C74   C77   1.415308 A    
C11   C87   1.433887 S    
C41   C46   1.373496 A    
C92   C95   1.532659 S    
C33   C94   1.504152 S    
C95   O59   1.410929 S    
H13   C101  1.111309 S    
C66   C69   1.415259 A    
C35   C40   1.373511 A    
H8    C96   1.111293 S    
O42   C20   1.270873 A    
N8    O84   1.300496 A    
O19   C11   1.283666 A    
O51   C25   1.271086 A    
C47   C63   1.392511 A    
O26   C18   1.273007 A    
C55   C71   1.418916 A    
C60   C76   1.418710 A    
O29   C21   1.272638 A    
N5    O77   1.301157 A    
Zn8   O20   1.900279 S    
C3    C31   1.204990 T    
O12   C8    1.283198 A    
C36   C39   1.373475 A    
H6    C94   1.111303 S    
C90   O54   1.410922 S    
Zn7   O45   1.940563 S    
Zn12  O26   1.941686 S    
Zn2   O2    1.938394 S    
H5    C93   1.111323 S    
H1    C89   1.111309 S    
C78   N14   1.434178 S    
O58   H22   0.992623 S    
C92   O56   1.410929 S    
C65   C70   1.415278 A    
C93   O57   1.410921 S    
N9    O85   1.301054 A    
Zn8   O46   1.940674 S    
C62   C78   1.418783 A    
Zn13  O29   1.941821 S    
Zn5   O17   1.900302 S    
N4    O75   1.300973 A    
C74   N10   1.433481 S    
C58   C74   1.418728 A    
Zn11  O27   1.941801 S    
O8    C6    1.283199 A    
O31   C23   1.272646 A    
Zn15  O3    1.938096 S    
C52   C68   1.418709 A    
H9    C97   1.111306 S    
O32   C24   1.273001 A    
H3    C91   1.111294 S    
C17   C51   1.455146 S    
C81   C85   1.204957 T    
O63   H27   0.992627 S    
Zn4   O2    1.938397 S    
Zn12  O6    1.900084 S    
Zn6   O52   1.940694 S    
N10   O88   1.300577 A    
H16   C104  1.111316 S    
C69   N5    1.434783 S    
O54   H18   0.992655 S    
C64   C80   1.418733 A    
C76   C79   1.415307 A    
O49   C27   1.270933 A    
O45   C23   1.271069 A    
C2    C84   1.410909 S    
C38   C54   1.392350 A    
N7    O82   1.300492 A    
N6    O79   1.301001 A    
C41   C57   1.392389 A    
O68   H32   0.992632 S    
C49   C65   1.418882 A    
C27   C57   1.455146 S    
N14   O95   1.301092 A    
Zn13  O33   1.941797 S    
C75   N11   1.434799 S    
C42   C45   1.373468 A    
O21   C13   1.272628 A    
O67   H31   0.992629 S    
O65   H29   0.992615 S    
C80   N16   1.433332 S    
C98   C101  1.532667 S    
C42   C58   1.392333 A    
C68   N4    1.433412 S    
C35   C51   1.392326 A    
O62   H26   0.992623 S    
O22   C14   1.272900 A    
C41   C102  1.504196 S    
C36   C52   1.392320 A    
C34   C37   1.373461 A    
C48   C64   1.392310 A    
C4    C32   1.204971 T    
C97   O61   1.410933 S    
C33   C38   1.373470 A    
C18   C50   1.455228 S    
O64   H28   0.992636 S    
N12   O91   1.300976 A    
C91   O55   1.410940 S    
Zn7   O19   1.900306 S    
C26   C58   1.455206 S    
C47   C100  1.504142 S    
Zn6   O48   1.940675 S    
N3    O73   1.301012 A    
O14   C10   1.283504 A    
C68   C71   1.415317 A    
Zn11  O1    1.938096 S    
Zn15  O35   1.941801 S    
C102  O66   1.410934 S    
C45   C98   1.504139 S    
C43   C104  1.504129 S    
O15   C9    1.283666 A    
C53   C69   1.418962 A    
Zn10  O2    1.938364 S    
C43   C59   1.392529 A    
C67   C72   1.415319 A    
O17   C11   1.283666 A    
Zn12  O2    1.938357 S    
N4    O76   1.300568 A    
Zn4   O16   1.900279 S    
N5    O78   1.300522 A    
C90   C93   1.532696 S    
O33   C25   1.272631 A    
Zn12  O24   1.941668 S    
N16   O100  1.300611 A    
Zn9   O1    1.938095 S    
O37   C15   1.271073 A    
N14   O96   1.300564 A    
Zn3   O43   1.940542 S    
N3    O74   1.300549 A    
C56   C72   1.418808 A    
O13   C9    1.283666 A    
C82   C86   1.204937 T    
C4    C82   1.410912 S    
C65   N1    1.434526 S    
N9    O86   1.300590 A    
C84   C88   1.204937 T    
Zn7   O3    1.938656 S    
Zn16  O34   1.941686 S    
C35   C96   1.504202 S    
C98   O62   1.410930 S    
C1    C83   1.410942 S    
O23   C15   1.272640 A    
C37   C90   1.504136 S    
C44   C47   1.373480 A    
Zn16  O10   1.900084 S    
Zn13  O11   1.900057 S    
Zn2   O44   1.940694 S    
N10   O87   1.300992 A    
C100  O64   1.410926 S    
Zn14  O12   1.900080 S    
C103  O67   1.410926 S    
C104  O68   1.410924 S    
C57   C73   1.418773 A    
O53   H17   0.992621 S    
N15   O98   1.300500 A    
Zn15  O31   1.941817 S    
C5    C30   1.433979 S    
C77   N13   1.434633 S    
C20   C52   1.455208 S    
O10   C8    1.283201 A    
O9    C7    1.283035 A    
C45   C61   1.392500 A    
C40   C56   1.392482 A    
C42   C101  1.504213 S    
C15   C53   1.455162 S    
Zn14  O36   1.941687 S    
H7    C95   1.111303 S    
C13   C55   1.455146 S    
C89   O53   1.410931 S    
C46   C97   1.504181 S    
N2    O72   1.300634 A    
C72   N8    1.434454 S    
C83   C87   1.204957 T    
C97   C102  1.532647 S    
C59   C75   1.418956 A    
C91   C96   1.532631 S    
O30   C22   1.272715 A    
N11   O89   1.301156 A    
C99   O63   1.410923 S    
C38   C89   1.504208 S    
O25   C17   1.272883 A    
C10   C86   1.433854 S    
O6    C6    1.283199 A    
C44   C60   1.392321 A    
C100  C103  1.532668 S    
O5    C5    1.283035 A    
C2    C30   1.204971 T    
Zn11  O23   1.941817 S    
Zn1   O41   1.940541 S    
O38   C16   1.271086 A    
Zn6   O4    1.938394 S    
C1    C29   1.204990 T    
H12   C100  1.111304 S    
N8    O83   1.301115 A    
O27   C19   1.272677 A    
N1    O70   1.300504 A    
C63   C79   1.418917 A    
C99   C104  1.532686 S    
Zn16  O4    1.938357 S    
Zn1   O13   1.900302 S    
H4    C92   1.111298 S    
C61   C77   1.418901 A    
C89   C94   1.532664 S    
Zn1   O39   1.940560 S    
C51   C67   1.418734 A    
C25   C59   1.455156 S    
Zn5   O3    1.938665 S    
Zn3   O15   1.900306 S    
H10   C98   1.111306 S    
O52   C26   1.270892 A    
N6    O80   1.300556 A    
O20   C12   1.283504 A    
Zn9   O25   1.941797 S    
Zn6   O18   1.900280 S    
O66   H30   0.992628 S    
C19   C49   1.455138 S    
O57   H21   0.992645 S    
Zn10  O22   1.941665 S    
C8    C31   1.434012 S    
O11   C7    1.283036 A    
C66   N2    1.433335 S    
Zn10  O28   1.941687 S    
N16   O99   1.300963 A    
C3    C81   1.410942 S    
Zn15  O9    1.900058 S    
C71   N7    1.434738 S    
O56   H20   0.992622 S    
O35   C27   1.272836 A    
O41   C19   1.271050 A    
Zn9   O21   1.941821 S    
O34   C26   1.272923 A    
Zn5   O47   1.940560 S    
O55   H19   0.992613 S    
C12   C88   1.433857 S    
O18   C12   1.283504 A    
C70   N6    1.433570 S    
O43   C17   1.270895 A    
O24   C16   1.272625 A    
C75   C80   1.415282 A    
C101  O65   1.410928 S    
Zn16  O32   1.941668 S    
O44   C18   1.270834 A    
H15   C103  1.111310 S    
C54   C70   1.418725 A    
N13   O94   1.300504 A    
C73   N9    1.433891 S    
C73   C78   1.415266 A    
O7    C5    1.283036 A    
O36   C28   1.272949 A    
O50   C28   1.270874 A    
C79   N15   1.434722 S    
C21   C63   1.455147 S    
