data_mof_unit_61700.cif
_audit_creation_date              2012-10-26T18:58:29-0400
_audit_creation_method            fapswitch 2.2
_symmetry_space_group_name_H-M    P1
_symmetry_Int_Tables_number       1
_space_group_crystal_system       triclinic
_cell_length_a                    19.414129
_cell_length_b                    18.395251
_cell_length_c                    15.970359
_cell_angle_alpha                 89.05523
_cell_angle_beta                  93.939349
_cell_angle_gamma                 85.815862
_cell_volume                      5673.49282591

loop_
_atom_site_label
_atom_site_type_symbol
_atom_type_description
_atom_site_fract_x
_atom_site_fract_y
_atom_site_fract_z
_atom_type_partial_charge
Br1   Br    Br    0.891781 0.362197 0.554745 -0.475938
Br2   Br    Br    0.354496 0.104915 0.463941 -0.441918
Br3   Br    Br    0.350395 0.930548 0.465253 -0.492412
Br4   Br    Br    0.654961 0.071957 0.496070 -0.488451
Br5   Br    Br    0.117590 0.659098 0.505942 -0.493583
Br6   Br    Br    0.145511 0.351451 0.565912 -0.449909
Br7   Br    Br    0.844536 0.642422 0.388523 -0.457515
Br8   Br    Br    0.400661 0.682859 0.355422 -0.534595
Br9   Br    Br    0.576130 0.307810 0.664014 -0.535655
Br10  Br    Br    0.599676 0.670919 0.644419 -0.482547
Br11  Br    Br    0.401203 0.333257 0.353575 -0.458840
Br12  Br    Br    0.651552 0.895337 0.498842 -0.431324
C1    C     C_R   0.368024 0.502016 0.507272 0.550788
C2    C     C_R   0.927961 0.511688 0.488467 0.095866
C3    C     C_R   0.461423 0.724541 0.437775 0.274582
C4    C     C_R   0.534105 0.271888 0.562761 0.270685
C5    C     C_R   0.537940 0.720224 0.559696 0.274170
C6    C     C_R   0.466549 0.282630 0.433745 0.279470
C7    C     C_R   0.463378 0.800876 0.432011 -0.105455
C8    C     C_R   0.536633 0.195082 0.558416 -0.106287
C9    C     C_R   0.535445 0.797167 0.559336 -0.097156
C10   C     C_R   0.472786 0.206335 0.425504 -0.085585
C11   C     C_R   0.499386 0.839126 0.493873 -0.010055
C12   C     C_R   0.632484 0.498009 0.496039 0.544866
C13   C     C_R   0.506463 0.160840 0.488985 -0.000421
C14   C     C_R   0.564889 0.954791 0.495078 0.168325
C15   C     C_R   0.441316 0.045568 0.476649 0.168854
C16   C     C_R   0.439518 0.968703 0.477822 0.169792
C17   C     C_R   0.566609 0.031790 0.493731 0.173629
C18   C     C_R   0.504957 0.078462 0.486227 -0.020919
C19   C     C_R   0.501083 0.921748 0.489166 -0.022498
C20   C     C_R   0.499046 0.500570 0.341515 0.573946
C21   C     C_R   0.499820 0.499495 0.658518 0.559854
C22   C     C_R   0.436673 0.523061 0.950111 -0.020646
C23   C     C_R   0.708404 0.496037 0.484801 -0.059734
C24   C     C_R   0.557872 0.475364 0.050377 -0.022337
C25   C     C_R   0.436632 0.524331 0.038199 -0.015588
C26   C     C_R   0.557809 0.473647 0.962050 -0.016420
C27   C     C_R   0.497293 0.498014 0.912411 -0.003494
C28   C     C_R   0.497101 0.500502 0.087732 -0.005828
C29   C     C_1   0.497599 0.497884 0.822378 -0.036679
C30   C     C_1   0.496826 0.501630 0.177609 -0.040423
C31   C     C_1   0.497535 0.501624 0.252590 0.016216
C32   C     C_1   0.498527 0.498407 0.747418 0.010136
C33   C     C_R   0.755210 0.438652 0.518637 -0.042285
C34   C     C_R   0.292635 0.505072 0.522404 -0.061267
C35   C     C_R   0.250721 0.571473 0.517940 -0.029906
C36   C     C_R   0.262120 0.440405 0.545434 -0.018021
C37   C     C_R   0.735380 0.555147 0.441906 -0.024352
C38   C     C_R   0.827073 0.443531 0.516407 0.115125
C39   C     C_R   0.178003 0.569987 0.512092 0.114635
C40   C     C_R   0.189469 0.438801 0.538332 0.127435
C41   C     C_R   0.807443 0.560749 0.443003 0.130559
C42   C     C_R   0.852793 0.505896 0.482577 0.011380
C43   C     C_R   0.148058 0.503036 0.516500 0.011665
C44   C     C_R   0.373230 0.550693 0.078675 0.039080
C45   C     C_R   0.966732 0.494733 0.419595 -0.037981
C46   C     C_R   0.368644 0.620053 0.114085 -0.076299
C47   C     C_R   0.308893 0.644783 0.152319 -0.072741
C48   C     C_R   0.253735 0.600301 0.155844 -0.083223
C49   C     C_R   0.258116 0.531118 0.120786 -0.091444
C50   C     C_R   0.317674 0.506290 0.082220 -0.067397
C51   C     C_R   0.620691 0.444621 0.922051 0.038964
C52   C     C_R   0.659066 0.491280 0.876336 -0.083030
C53   C     C_R   0.720317 0.464408 0.842839 -0.098084
C54   C     C_R   0.743586 0.391018 0.854927 -0.100701
C55   C     C_R   0.705027 0.344060 0.899109 -0.083640
C56   C     C_R   0.033616 0.519518 0.576459 -0.028620
C57   C     C_R   0.643746 0.370671 0.932619 -0.058266
C58   C     C_R   0.373214 0.548637 0.897762 0.036942
C59   C     C_R   0.356740 0.623481 0.882932 -0.088483
C60   C     C_R   0.295548 0.647616 0.836204 -0.112009
C61   C     C_R   0.250616 0.597232 0.804115 -0.103376
C62   C     C_R   0.266772 0.522635 0.818833 -0.123788
C63   C     C_R   0.327957 0.498280 0.865477 -0.107483
C64   C     C_R   0.622048 0.452887 0.103809 0.023494
C65   C     C_R   0.680467 0.493479 0.101500 -0.092745
C66   C     C_R   0.740510 0.472761 0.152234 -0.106413
C67   C     C_R   0.038902 0.490569 0.429115 -0.043477
C68   C     C_R   0.742483 0.411791 0.206003 -0.107632
C69   C     C_R   0.684535 0.371199 0.208759 -0.114712
C70   C     C_R   0.624578 0.391409 0.157655 -0.097626
C71   C     C_R   0.732039 0.369488 0.549262 0.092736
C72   C     C_R   0.744856 0.348822 0.634200 -0.014651
C73   C     C_R   0.742911 0.275851 0.659129 -0.048881
C74   C     C_R   0.726629 0.223833 0.599547 -0.043038
C75   C     C_R   0.711810 0.245025 0.515256 -0.069347
C76   C     C_R   0.714271 0.317491 0.490213 -0.045158
C77   C     C_R   0.281360 0.640968 0.537129 0.085729
C78   C     C_R   0.961624 0.524500 0.566743 -0.036654
C79   C     C_R   0.319675 0.648188 0.614228 -0.057788
C80   C     C_R   0.342565 0.715669 0.637264 -0.107177
C81   C     C_R   0.325402 0.776647 0.584869 -0.080487
C82   C     C_R   0.287599 0.769415 0.507972 -0.050506
C83   C     C_R   0.267794 0.701554 0.482920 -0.010679
C84   C     C_R   0.304991 0.381987 0.594558 0.077456
C85   C     C_R   0.311705 0.309858 0.567092 -0.003691
C86   C     C_R   0.352864 0.256858 0.615365 -0.085573
C87   C     C_R   0.388507 0.275449 0.689925 -0.081561
C88   C     C_R   0.383092 0.347212 0.716850 -0.075913
C89   C     C_R   0.072396 0.502450 0.507703 0.097718
C90   C     C_R   0.341566 0.400209 0.669518 -0.080493
C91   C     C_R   0.688999 0.607139 0.388282 0.078387
C92   C     C_R   0.658682 0.583826 0.311992 -0.081689
C93   C     C_R   0.615288 0.632271 0.260407 -0.088102
C94   C     C_R   0.600650 0.703749 0.285517 -0.079232
C95   C     C_R   0.630110 0.727141 0.361723 -0.078640
C96   C     C_R   0.674429 0.679227 0.413035 -0.000329
Cu1   Cu    Cu3+1 0.500000 0.573360 0.500000 1.062448
Cu2   Cu    Cu3+1 0.500000 0.426640 0.500000 1.061290
H1    H     H_    0.941092 0.483372 0.359343 0.129788
H2    H     H_    0.305375 0.698382 0.179333 0.154871
H3    H     H_    0.207615 0.619444 0.185709 0.133487
H4    H     H_    0.215378 0.496727 0.123536 0.127675
H5    H     H_    0.320660 0.452566 0.055365 0.120301
H6    H     H_    0.642102 0.548496 0.867883 0.133442
H7    H     H_    0.750069 0.500590 0.808155 0.131238
H8    H     H_    0.791520 0.370473 0.830067 0.117331
H9    H     H_    0.722915 0.287166 0.907944 0.123345
H10   H     H_    0.614655 0.333988 0.967606 0.117222
H11   H     H_    0.391040 0.662920 0.907954 0.113748
H12   H     H_    0.059247 0.529519 0.637145 0.130342
H13   H     H_    0.282981 0.705370 0.824772 0.126909
H14   H     H_    0.203441 0.615974 0.767604 0.140579
H15   H     H_    0.231991 0.483665 0.793889 0.133395
H16   H     H_    0.339801 0.440410 0.877101 0.108666
H17   H     H_    0.679274 0.541326 0.060850 0.117944
H18   H     H_    0.785294 0.504357 0.150438 0.136139
H19   H     H_    0.788783 0.396205 0.245778 0.130957
H20   H     H_    0.686066 0.324076 0.250515 0.123281
H21   H     H_    0.580078 0.359390 0.160129 0.129189
H22   H     H_    0.760896 0.388368 0.679497 0.117786
H23   H     H_    0.068669 0.478100 0.375557 0.127475
H24   H     H_    0.754656 0.259547 0.724264 0.123743
H25   H     H_    0.725818 0.167305 0.618846 0.174271
H26   H     H_    0.700819 0.205588 0.468029 0.174561
H27   H     H_    0.706598 0.332296 0.424088 0.102198
H28   H     H_    0.331080 0.601721 0.656725 0.102261
H29   H     H_    0.372047 0.721037 0.696573 0.120847
H30   H     H_    0.341041 0.829313 0.604434 0.169843
H31   H     H_    0.272064 0.815977 0.467533 0.193810
H32   H     H_    0.239309 0.696845 0.422751 0.166151
H33   H     H_    0.285416 0.294819 0.508633 0.188216
H34   H     H_    0.932004 0.536360 0.620593 0.129233
H35   H     H_    0.357448 0.201216 0.595411 0.176907
H36   H     H_    0.420679 0.234282 0.726523 0.138703
H37   H     H_    0.411303 0.361841 0.774171 0.122689
H38   H     H_    0.338547 0.455858 0.690584 0.085315
H39   H     H_    0.668610 0.528171 0.292753 0.111505
H40   H     H_    0.592721 0.614353 0.201166 0.115241
H41   H     H_    0.566415 0.741003 0.245998 0.129513
H42   H     H_    0.618332 0.782406 0.380861 0.164899
H43   H     H_    0.696844 0.697908 0.472083 0.178942
H44   H     H_    0.435942 0.830222 0.379071 0.178761
H45   H     H_    0.561546 0.162058 0.610232 0.163775
H46   H     H_    0.563765 0.824038 0.609154 0.178730
H47   H     H_    0.447903 0.182377 0.370950 0.181347
H48   H     H_    0.411210 0.654809 0.111872 0.118665
N1    N     N_R   0.500000 0.683620 0.500000 -0.207368
N2    N     N_R   0.500000 0.316380 0.500000 -0.209948
O1    O     O_R   0.400190 0.561980 0.499990 -0.471230
O2    O     O_R   0.599810 0.438020 0.500010 -0.489332
O3    O     O_R   0.599810 0.561980 0.500010 -0.466260
O4    O     O_R   0.400190 0.438020 0.499990 -0.461704
O5    O     O_R   0.499980 0.561940 0.380310 -0.460670
O6    O     O_R   0.500020 0.438060 0.619690 -0.456301
O7    O     O_R   0.500020 0.561940 0.619690 -0.470998
O8    O     O_R   0.499980 0.438060 0.380310 -0.470842

loop_
_geom_bond_atom_site_label_1
_geom_bond_atom_site_label_2
_ccdc_geom_bond_type
C75   C76   A    
Br11  C6    S    
C81   C82   A    
C52   H6    S    
C8    H45   S    
C84   C90   A    
C4    N2    A    
C22   C25   A    
C61   C62   A    
C45   C67   A    
C21   O6    A    
C66   H18   S    
C69   C70   A    
Cu2   O2    S    
C27   C29   S    
C33   C71   S    
C41   C42   A    
C3    C7    A    
C93   H40   S    
C38   C42   A    
Br3   C16   S    
Br9   C4    S    
C25   C28   A    
C73   C74   A    
C1    C34   S    
C66   C68   A    
C62   H15   S    
C94   C95   A    
Br10  C5    S    
C49   H4    S    
C2    C78   A    
Cu1   O7    S    
C90   H38   S    
C25   C44   S    
Cu2   O8    S    
C9    H46   S    
C85   H33   S    
C96   H43   S    
C51   C57   A    
C10   C13   A    
C23   C37   A    
C56   C78   A    
C95   C96   A    
Br2   C15   S    
C94   H41   S    
C77   C79   A    
C86   H35   S    
C24   C64   S    
Br1   C38   S    
C22   C58   S    
Br4   C17   S    
C65   H17   S    
C40   C43   A    
C73   H24   S    
C28   C30   S    
C54   C55   A    
C47   C48   A    
C20   O5    A    
C15   C18   A    
C35   C77   S    
C48   H3    S    
C21   O7    A    
C92   C93   A    
C85   C86   A    
C64   C65   A    
C26   C27   A    
C67   H23   S    
C34   C36   A    
C12   C23   S    
C62   C63   A    
C22   C27   A    
C24   C28   A    
C56   C89   A    
C46   H48   S    
C64   C70   A    
C79   C80   A    
Cu2   O4    S    
C74   C75   A    
C68   C69   A    
C35   C39   A    
C46   C47   A    
C65   C66   A    
C72   H22   S    
C5    C9    A    
Br12  C14   S    
C48   C49   A    
C55   C57   A    
C11   C19   S    
C92   H39   S    
C77   C83   A    
C7    C11   A    
C3    N1    A    
C17   C18   A    
C79   H28   S    
C71   C72   A    
C36   C40   A    
C4    C8    A    
C61   H14   S    
C84   C85   A    
C88   C90   A    
C47   H2    S    
C82   C83   A    
C72   C73   A    
C58   C59   A    
Cu1   O5    S    
C83   H32   S    
C95   H42   S    
C2    C42   S    
C87   H36   S    
C53   C54   A    
Br8   C3    S    
C9    C11   A    
C60   H13   S    
Cu1   O3    S    
C29   C32   T    
C44   C50   A    
C12   O3    A    
C30   C31   T    
Br7   C41   S    
C56   H12   S    
Cu1   N1    S    
C58   C63   A    
Cu2   N2    S    
C82   H31   S    
C1    O4    A    
C26   C51   S    
C13   C18   S    
C2    C45   A    
C34   C35   A    
C68   H19   S    
C36   C84   S    
C6    C10   A    
C21   C32   S    
C75   H26   S    
C59   H11   S    
C16   C19   A    
C12   O2    A    
C60   C61   A    
C37   C91   S    
C1    O1    A    
C10   H47   S    
C8    C13   A    
C93   C94   A    
C43   C89   S    
C57   H10   S    
C87   C88   A    
C63   H16   S    
C52   C53   A    
C20   O8    A    
C50   H5    S    
C81   H30   S    
Cu1   O1    S    
Cu1   Cu2   S    
Cu2   O6    S    
C69   H20   S    
C45   H1    S    
C33   C38   A    
C37   C41   A    
C24   C26   A    
C80   C81   A    
C20   C31   S    
C44   C46   A    
C71   C76   A    
C39   C43   A    
C49   C50   A    
C5    N1    A    
C76   H27   S    
C6    N2    A    
C51   C52   A    
C74   H25   S    
C14   C19   A    
C59   C60   A    
C14   C17   A    
C86   C87   A    
C54   H8    S    
C91   C92   A    
C7    H44   S    
C53   H7    S    
C67   C89   A    
C91   C96   A    
C88   H37   S    
Br6   C40   S    
C70   H21   S    
C80   H29   S    
C55   H9    S    
C78   H34   S    
Br5   C39   S    
C15   C16   A    
C23   C33   A    
