data_mof_unit_5419.cif
_audit_creation_date              2012-12-11T15:34:55-0500
_audit_creation_method            fapswitch 2.2
_symmetry_space_group_name_H-M    P1
_symmetry_Int_Tables_number       1
_space_group_crystal_system       triclinic
_cell_length_a                    30.580608
_cell_length_b                    7.244133
_cell_length_c                    25.982518
_cell_angle_alpha                 89.999422
_cell_angle_beta                  111.495314
_cell_angle_gamma                 90.00094
_cell_volume                      5355.5694995

loop_
_atom_site_label
_atom_site_type_symbol
_atom_type_description
_atom_site_fract_x
_atom_site_fract_y
_atom_site_fract_z
_atom_type_partial_charge
O1    O     O_R   0.295360 0.592990 0.320420 -0.540722
O2    O     O_R   0.704640 0.407010 0.679580 -0.538167
O3    O     O_R   0.204640 0.092990 0.179580 -0.540720
O4    O     O_R   0.795360 0.907010 0.820420 -0.538168
O5    O     O_R   0.294060 0.265620 0.213230 -0.541305
O6    O     O_R   0.705940 0.734380 0.786770 -0.545604
O7    O     O_R   0.205940 0.765620 0.286770 -0.541306
O8    O     O_R   0.794060 0.234380 0.713230 -0.545604
C1    C     C_R   0.303613 0.432211 0.198999 0.752111
C2    C     C_R   0.697144 0.567905 0.802260 0.704411
C3    C     C_R   0.196387 0.932207 0.301001 0.752112
C4    C     C_R   0.802856 0.067908 0.697739 0.704415
O9    O     O_R   0.300850 0.263360 0.322080 -0.539736
O10   O     O_R   0.699150 0.736640 0.677920 -0.527231
O11   O     O_R   0.199150 0.763360 0.177920 -0.539738
O12   O     O_R   0.800850 0.236640 0.822080 -0.527231
O13   O     O_R   0.211480 0.091820 0.289210 -0.536926
O14   O     O_R   0.788520 0.908180 0.710790 -0.536297
O15   O     O_R   0.288520 0.591820 0.210790 -0.536928
O16   O     O_R   0.711480 0.408180 0.789210 -0.536298
C5    C     C_R   0.313275 0.432075 0.342814 0.747843
C6    C     C_R   0.686413 0.567394 0.657122 0.705511
C7    C     C_R   0.186724 0.932074 0.157186 0.747843
C8    C     C_R   0.813587 0.067395 0.842878 0.705512
O17   O     O_3   0.220670 0.426670 0.239090 -0.382124
O18   O     O_3   0.779330 0.573330 0.760910 -0.374684
O19   O     O_3   0.279330 0.926670 0.260910 -0.382123
O20   O     O_3   0.720670 0.073330 0.739090 -0.374685
V1    V     V_3+5 0.255440 0.152290 0.252020 1.399073
V2    V     V_3+5 0.744560 0.847710 0.747980 1.400665
V3    V     V_3+5 0.244560 0.652290 0.247980 1.399068
V4    V     V_3+5 0.755440 0.347710 0.752020 1.400668
C9    C     C_R   0.851172 0.049167 0.898301 -0.107192
C10   C     C_R   0.149796 0.941864 0.101674 -0.106729
C11   C     C_R   0.648828 0.549165 0.601700 -0.107192
C12   C     C_R   0.350203 0.441866 0.398326 -0.106726
C13   C     C_R   0.869914 0.944737 0.992493 -0.161571
C14   C     C_R   0.129741 0.946298 0.002876 -0.156407
C15   C     C_R   0.630086 0.444728 0.507508 -0.161571
C16   C     C_R   0.370259 0.446313 0.497124 -0.156409
C17   C     C_R   0.837180 0.982261 0.940304 -0.248459
C18   C     C_R   0.163116 0.931386 0.055924 -0.261677
C19   C     C_R   0.662820 0.482256 0.559697 -0.248457
C20   C     C_R   0.336883 0.431399 0.444076 -0.261680
C21   C     C_R   0.900229 0.069924 0.908464 0.393171
C22   C     C_R   0.102112 0.970268 0.094353 0.370908
C23   C     C_R   0.599772 0.569924 0.591535 0.393172
C24   C     C_R   0.397888 0.470263 0.405647 0.370910
C25   C     C_R   0.934362 0.010866 0.960649 0.002361
C26   C     C_R   0.066527 0.967803 0.039695 -0.016542
C27   C     C_R   0.565638 0.510862 0.539351 0.002361
C28   C     C_R   0.433473 0.467801 0.460305 -0.016542
C29   C     C_R   0.918033 0.958434 0.003094 0.089011
C30   C     C_R   0.081979 0.964679 0.994350 0.090275
C31   C     C_R   0.581966 0.458425 0.496906 0.089012
C32   C     C_R   0.418021 0.464686 0.505650 0.090275
C33   C     C_R   0.984153 0.998468 0.972316 0.073823
C34   C     C_R   0.016612 0.968381 0.027842 0.048674
C35   C     C_R   0.515847 0.498466 0.527684 0.073823
C36   C     C_R   0.483388 0.468375 0.472158 0.048675
C37   C     C_R   0.997883 0.921691 0.068242 -0.157513
C38   C     C_R   0.002084 0.993613 0.929588 -0.121038
C39   C     C_R   0.502117 0.421679 0.431759 -0.157512
C40   C     C_R   0.497916 0.493617 0.570412 -0.121039
C41   C     C_R   0.949761 0.914728 0.055853 -0.192793
C42   C     C_R   0.049702 0.975948 0.940325 -0.192848
C43   C     C_R   0.550239 0.414715 0.444148 -0.192793
C44   C     C_R   0.450298 0.475957 0.559675 -0.192848
H1    H     H_    0.937192 0.872363 0.088024 0.132407
H2    H     H_    0.061348 0.968884 0.905651 0.130669
H3    H     H_    0.562808 0.372346 0.411977 0.132406
H4    H     H_    0.438651 0.468898 0.594349 0.130670
H5    H     H_    0.199755 0.916207 0.061349 0.129143
H6    H     H_    0.800234 0.961209 0.932758 0.133884
H7    H     H_    0.300244 0.416226 0.438651 0.129144
H8    H     H_    0.699766 0.461205 0.567243 0.133884
H9    H     H_    0.857459 0.899264 0.024461 0.130744
H10   H     H_    0.141340 0.941488 0.968158 0.129756
H11   H     H_    0.642541 0.399253 0.475540 0.130744
H12   H     H_    0.358658 0.441510 0.531842 0.129758
H13   H     H_    0.019468 0.874806 0.108933 0.192003
H14   H     H_    0.979761 0.986443 0.886893 0.164903
H15   H     H_    0.480531 0.374789 0.391069 0.192004
H16   H     H_    0.520239 0.486449 0.613107 0.164903
C45   C     C_R   0.081872 0.861168 0.468792 0.554743
C46   C     C_R   0.915029 0.134146 0.526055 0.584901
C47   C     C_R   0.418138 0.361195 0.031222 0.554752
C48   C     C_R   0.584980 0.634150 0.973951 0.584918
N1    N     N_R   0.071282 0.959687 0.420973 -0.528185
N2    N     N_R   0.927741 0.051767 0.576520 -0.522751
N3    N     N_R   0.428724 0.459736 0.079036 -0.528194
N4    N     N_R   0.572264 0.551763 0.923488 -0.522751
C49   C     C_R   0.031806 0.065907 0.401336 0.610019
C50   C     C_R   0.968993 0.957014 0.598637 0.580522
C51   C     C_R   0.468201 0.565964 0.098673 0.610014
C52   C     C_R   0.531014 0.456991 0.901378 0.580515
C53   C     C_R   0.000267 0.075806 0.429889 -0.065547
C54   C     C_R   0.996510 0.915308 0.565952 -0.086784
C55   C     C_R   0.499743 0.575848 0.070123 -0.065549
C56   C     C_R   0.503506 0.415268 0.934073 -0.086780
C57   C     C_R   0.012332 0.983325 0.481413 -0.079012
C58   C     C_R   0.984286 0.006422 0.514011 -0.082987
C59   C     C_R   0.487682 0.483336 0.018605 -0.079019
C60   C     C_R   0.515729 0.506417 0.986007 -0.082989
C61   C     C_R   0.051212 0.861703 0.498842 -0.080847
C62   C     C_R   0.945054 0.127680 0.495652 -0.052786
C63   C     C_R   0.448806 0.361698 0.001182 -0.080836
C64   C     C_R   0.554959 0.627688 0.004359 -0.052796
C65   C     C_R   0.957648 0.177957 0.409202 0.095916
C66   C     C_R   0.033759 0.781105 0.581559 0.090427
C67   C     C_R   0.542363 0.677998 0.090809 0.095922
C68   C     C_R   0.466268 0.281012 0.918481 0.090420
C69   C     C_R   0.935845 0.231586 0.446300 0.105902
C70   C     C_R   0.057890 0.743204 0.544888 0.107851
C71   C     C_R   0.564170 0.731604 0.053711 0.105886
C72   C     C_R   0.442139 0.243136 0.955154 0.107866
O21   O     O_2   0.123013 0.769251 0.488019 -0.540763
O22   O     O_2   0.872725 0.217076 0.504963 -0.544600
O23   O     O_2   0.376995 0.269285 0.011989 -0.540731
O24   O     O_2   0.627284 0.717086 0.995038 -0.544599
O25   O     O_2   0.024661 0.168580 0.355768 -0.548154
O26   O     O_2   0.982707 0.905864 0.652002 -0.538592
O27   O     O_2   0.475342 0.668657 0.144235 -0.548159
O28   O     O_2   0.517289 0.405848 0.848012 -0.538583
C73   C     C_R   0.899303 0.197168 0.644661 0.528253
C74   C     C_R   0.090383 0.856658 0.340675 0.490103
C75   C     C_R   0.600701 0.697167 0.855344 0.528268
C76   C     C_R   0.409622 0.356704 0.159333 0.490089
C77   C     C_R   0.869185 0.195152 0.674591 -0.358081
C78   C     C_R   0.121343 0.852372 0.311984 -0.309809
C79   C     C_R   0.630817 0.695145 0.825410 -0.358091
C80   C     C_R   0.378660 0.352402 0.188021 -0.309808
H17   H     H_    0.873624 0.300117 0.705755 0.151613
H18   H     H_    0.110737 0.781478 0.272558 0.160304
H19   H     H_    0.626379 0.800112 0.794248 0.151609
H20   H     H_    0.389265 0.281509 0.227447 0.160308
C81   C     C_R   0.833720 0.060844 0.664590 -0.115529
C82   C     C_R   0.165279 0.940373 0.333252 -0.121373
C83   C     C_R   0.666280 0.560835 0.835410 -0.115525
C84   C     C_R   0.334723 0.440386 0.166750 -0.121372
C85   C     C_R   0.827934 0.928207 0.622027 0.115647
C86   C     C_R   0.178513 0.033846 0.384804 0.099311
C87   C     C_R   0.672065 0.428195 0.877973 0.115652
C88   C     C_R   0.321489 0.533860 0.115197 0.099312
C89   C     C_R   0.859960 0.926523 0.594470 -0.260911
C90   C     C_R   0.146779 0.040196 0.412662 -0.201261
C91   C     C_R   0.640040 0.426511 0.905531 -0.260935
C92   C     C_R   0.353226 0.540225 0.087342 -0.201247
H21   H     H_    0.856387 0.825653 0.562392 0.133545
H22   H     H_    0.156258 0.111608 0.451892 0.144431
H23   H     H_    0.643614 0.325641 0.937609 0.133541
H24   H     H_    0.343746 0.611635 0.048112 0.144432
C93   C     C_R   0.895918 0.057440 0.606143 0.294037
C94   C     C_R   0.102863 0.953216 0.390982 0.272844
C95   C     C_R   0.604084 0.557432 0.893860 0.294030
C96   C     C_R   0.397143 0.453261 0.109026 0.272830
C97   C     C_3   0.786548 0.796420 0.601632 -0.347404
C98   C     C_3   0.740668 0.900608 0.572071 -0.703858
H25   H     H_    0.731031 0.987781 0.601376 0.220950
H26   H     H_    0.744091 0.989457 0.538894 0.226657
H27   H     H_    0.711768 0.801078 0.552794 0.214235
H28   H     H_    0.791214 0.696346 0.571590 0.168877
H29   H     H_    0.784014 0.710856 0.635767 0.189781
C99   C     C_3   0.226346 0.122882 0.412024 -0.355485
C100  C     C_3   0.265290 0.978503 0.433472 -0.719469
H30   H     H_    0.257643 0.882712 0.462497 0.231100
H31   H     H_    0.268952 0.897825 0.398994 0.216619
H32   H     H_    0.299301 0.048279 0.455886 0.217974
H33   H     H_    0.233803 0.218157 0.382887 0.184178
H34   H     H_    0.227127 0.209044 0.447771 0.173431
C101  C     C_3   0.713450 0.296408 0.898366 -0.347410
C102  C     C_3   0.759331 0.400596 0.927928 -0.703850
H35   H     H_    0.768969 0.487770 0.898623 0.220950
H36   H     H_    0.755908 0.489444 0.961105 0.226657
H37   H     H_    0.788230 0.301066 0.947206 0.214233
H38   H     H_    0.708783 0.196331 0.928408 0.168875
H39   H     H_    0.715983 0.210847 0.864231 0.189780
C103  C     C_3   0.273656 0.622882 0.087975 -0.355486
C104  C     C_3   0.234714 0.478491 0.066527 -0.719472
H40   H     H_    0.242363 0.382707 0.037502 0.231103
H41   H     H_    0.231051 0.397807 0.101004 0.216618
H42   H     H_    0.200702 0.548258 0.044111 0.217972
H43   H     H_    0.266196 0.718151 0.117111 0.184178
H44   H     H_    0.272874 0.709047 0.052229 0.173430
O29   O     O_3   0.091813 0.006351 0.140931 -0.577811
C105  C     C_3   0.087601 0.199038 0.145575 -0.253480
H45   H     H_    0.057331 0.255085 0.110379 0.147585
H46   H     H_    0.120491 0.272079 0.148649 0.152995
H47   H     H_    0.081109 0.228144 0.184085 0.170798
O30   O     O_3   0.915184 0.177672 0.873783 -0.554760
C106  C     C_3   0.901011 0.103639 0.819849 -0.276696
H48   H     H_    0.929921 0.122650 0.804160 0.169740
H49   H     H_    0.871121 0.184543 0.792295 0.166625
H50   H     H_    0.892446 0.953411 0.817238 0.111770
O31   O     O_3   0.408188 0.506335 0.359068 -0.577812
C107  C     C_3   0.412401 0.699021 0.354421 -0.253491
H51   H     H_    0.442672 0.755072 0.389616 0.147588
H52   H     H_    0.379512 0.772065 0.351345 0.152996
H53   H     H_    0.418894 0.728118 0.315912 0.170802
O32   O     O_3   0.584817 0.677675 0.626215 -0.554760
C108  C     C_3   0.598989 0.603645 0.680151 -0.276697
H54   H     H_    0.570079 0.622656 0.695839 0.169734
H55   H     H_    0.628879 0.684553 0.707704 0.166629
H56   H     H_    0.607554 0.453418 0.682763 0.111766
C109  C     C_3   0.931258 0.207997 0.347164 -0.326349
C110  C     C_3   0.921090 0.025481 0.315143 -0.684357
H57   H     H_    0.953719 0.955153 0.316707 0.265487
H58   H     H_    0.901227 0.931389 0.332419 0.207639
H59   H     H_    0.899434 0.052548 0.271055 0.208622
H60   H     H_    0.896059 0.269152 0.338663 0.157911
H61   H     H_    0.949979 0.306231 0.329784 0.211852
C111  C     C_3   0.047665 0.675170 0.636201 -0.279618
C112  C     C_3   0.082616 0.786127 0.683614 -0.662897
H62   H     H_    0.116233 0.802346 0.676916 0.202583
H63   H     H_    0.069087 0.925965 0.686801 0.256505
H64   H     H_    0.089719 0.712294 0.723309 0.210906
H65   H     H_    0.016663 0.632073 0.645381 0.214141
H66   H     H_    0.063931 0.540115 0.635591 0.163331
C113  C     C_3   0.568750 0.708050 0.152846 -0.326357
C114  C     C_3   0.578912 0.525542 0.184873 -0.684358
H67   H     H_    0.546281 0.455228 0.183308 0.265492
H68   H     H_    0.598774 0.431435 0.167601 0.207640
H69   H     H_    0.600567 0.552617 0.228960 0.208621
H70   H     H_    0.603951 0.769194 0.161350 0.157912
H71   H     H_    0.550028 0.806297 0.170221 0.211850
C115  C     C_3   0.452381 0.174967 0.863861 -0.279619
C116  C     C_3   0.417400 0.285747 0.816430 -0.662932
H72   H     H_    0.383785 0.301896 0.823137 0.202611
H73   H     H_    0.430900 0.425606 0.813205 0.256514
H74   H     H_    0.410305 0.211824 0.776752 0.210915
H75   H     H_    0.483388 0.131965 0.854680 0.214153
H76   H     H_    0.436150 0.039861 0.864506 0.163354
C117  C     C_3   0.908457 0.413592 0.435874 -0.319044
C118  C     C_3   0.930005 0.551524 0.483023 -0.724528
H77   H     H_    0.928290 0.501785 0.522542 0.239150
H78   H     H_    0.967299 0.576383 0.488781 0.217500
H79   H     H_    0.910773 0.684717 0.472518 0.213401
H80   H     H_    0.909816 0.485498 0.398807 0.157053
H81   H     H_    0.870675 0.390830 0.427677 0.222438
C119  C     C_3   0.083631 0.559267 0.548720 -0.301977
C120  C     C_3   0.134465 0.563127 0.590246 -0.651861
H82   H     H_    0.151337 0.698594 0.589978 0.251141
H83   H     H_    0.136221 0.535268 0.632856 0.195044
H84   H     H_    0.155093 0.453911 0.579412 0.211565
H85   H     H_    0.063878 0.444049 0.558221 0.146112
H86   H     H_    0.083217 0.516824 0.507504 0.196717
C121  C     C_3   0.591566 0.913594 0.064137 -0.319032
C122  C     C_3   0.570023 0.051536 0.016990 -0.724538
H87   H     H_    0.571728 0.001786 0.977467 0.239162
H88   H     H_    0.532731 0.076430 0.011240 0.217496
H89   H     H_    0.589264 0.184711 0.027492 0.213401
H90   H     H_    0.590211 0.985508 0.101204 0.157049
H91   H     H_    0.629346 0.890808 0.072332 0.222439
C123  C     C_3   0.416418 0.059168 0.951355 -0.301997
C124  C     C_3   0.365589 0.062890 0.909817 -0.651852
H92   H     H_    0.348719 0.198409 0.910002 0.251088
H93   H     H_    0.363845 0.034712 0.867230 0.195043
H94   H     H_    0.344954 0.953831 0.920704 0.211611
H95   H     H_    0.436189 0.943952 0.941888 0.146122
H96   H     H_    0.416825 0.016813 0.992575 0.196695
O33   O     O_3   0.932963 0.333114 0.653509 -0.544137
C125  C     C_3   0.910108 0.502278 0.633759 -0.249122
H97   H     H_    0.882392 0.489236 0.591683 0.139964
H98   H     H_    0.895023 0.560970 0.663155 0.149883
H99   H     H_    0.936268 0.601539 0.630271 0.187813
O34   O     O_3   0.046589 0.775910 0.317748 -0.553592
C126  C     C_3   0.050675 0.588201 0.332955 -0.200852
H100  H     H_    0.062988 0.571439 0.378675 0.148934
H101  H     H_    0.074401 0.513210 0.316279 0.143518
H102  H     H_    0.015405 0.523867 0.314932 0.186607
O35   O     O_3   0.567048 0.833136 0.846505 -0.544137
C127  C     C_3   0.589914 0.002290 0.866247 -0.249132
H103  H     H_    0.617635 0.989243 0.908319 0.139974
H104  H     H_    0.604996 0.060955 0.836844 0.149872
H105  H     H_    0.563763 0.101580 0.869740 0.187798
O36   O     O_3   0.453417 0.275971 0.182263 -0.553597
C128  C     C_3   0.449335 0.088262 0.167057 -0.200849
H106  H     H_    0.437025 0.071503 0.121337 0.148923
H107  H     H_    0.425609 0.013260 0.183729 0.143525
H108  H     H_    0.484605 0.023939 0.185082 0.186601

loop_
_geom_bond_atom_site_label_1
_geom_bond_atom_site_label_2
_ccdc_geom_bond_type
O17   V3    S    
C55   C59   A    
C101  C102  S    
C124  H93   S    
O1    C5    A    
O30   C106  S    
C54   C66   A    
C47   N3    A    
O19   V1    S    
C9    C21   A    
C108  H54   S    
C86   C90   A    
O3    C7    A    
C10   C18   A    
C56   C60   A    
C88   C92   A    
C11   C23   A    
C125  H99   S    
C114  H68   S    
C103  C104  S    
C33   C34   A    
C33   C38   A    
C5    C12   S    
C72   C123  S    
C121  H90   S    
C102  H35   S    
O18   V4    S    
C6    C11   S    
C121  H91   S    
C35   C40   A    
C100  H30   S    
C118  H78   S    
C36   C39   A    
C40   C44   A    
C64   C71   A    
O9    V1    S    
C99   C100  S    
C3    C82   S    
C49   O25   S    
C14   C18   A    
C79   H19   S    
C86   C99   S    
O33   C125  S    
O4    C8    A    
C126  H102  S    
C51   C55   A    
C43   H3    S    
C111  H65   S    
C109  H61   S    
C115  H75   S    
C60   C64   A    
O1    V3    S    
C25   C33   A    
O2    V4    S    
C120  H82   S    
C49   C53   A    
O3    V1    S    
O12   V4    S    
C76   O36   S    
C89   H21   S    
C28   C36   A    
C98   H27   S    
C113  H70   S    
C90   H22   S    
C99   H34   S    
C1    O15   A    
C97   C98   S    
C15   C31   A    
C59   C63   A    
C48   N4    A    
C122  H88   S    
O32   C108  S    
C16   C32   A    
C90   C94   A    
O2    C6    A    
C16   H12   S    
C58   C62   A    
C10   C22   A    
C2    O16   A    
C21   C25   A    
C48   O24   S    
C11   C19   A    
C117  C118  S    
C97   H29   S    
C16   C20   A    
C71   C121  S    
C103  H43   S    
C102  H37   S    
O8    C4    A    
C104  H42   S    
C13   C29   A    
C101  H39   S    
C34   C37   A    
O11   C7    A    
C38   H14   S    
C124  H94   S    
O15   V3    S    
C35   C36   A    
O12   C8    A    
C75   O35   S    
C128  H106  S    
C17   H6    S    
C98   H26   S    
C108  H55   S    
C99   H33   S    
C78   H18   S    
C67   C113  S    
O10   V2    S    
C107  H53   S    
C45   C61   A    
C76   C80   A    
C114  H67   S    
C77   C81   A    
C102  H36   S    
C103  H44   S    
N2    C50   A    
O5    V1    S    
C112  H63   S    
N4    C52   A    
C57   C61   A    
C39   C43   A    
O7    V3    S    
C38   C42   A    
C62   C69   A    
C28   C32   A    
C106  H48   S    
C26   C34   A    
C57   C58   A    
C84   C88   A    
C61   C70   A    
C68   C115  S    
C107  H52   S    
C82   C86   A    
C75   C95   A    
C113  C114  S    
C52   O28   S    
C110  H57   S    
C127  H103  S    
C100  H31   S    
C125  H98   S    
C14   H10   S    
C32   C44   A    
C13   H9    S    
C119  H86   S    
N1    C49   A    
O31   C107  S    
C39   H15   S    
C44   H4    S    
C120  H83   S    
C118  H79   S    
O8    V4    S    
C37   H13   S    
C20   H7    S    
O7    C3    A    
C117  H80   S    
C106  H49   S    
C47   O23   S    
C123  C124  S    
C73   C77   A    
C53   C65   A    
C53   C57   A    
C31   C43   A    
C116  H72   S    
C14   C30   A    
C123  H96   S    
C80   H20   S    
C7    C10   S    
C55   C67   A    
O9    C5    A    
C83   C87   A    
C46   O22   S    
C26   C30   A    
C109  H60   S    
C113  H71   S    
N2    C93   S    
C65   C109  S    
C112  H62   S    
C77   H17   S    
C74   C94   A    
C109  C110  S    
C85   C97   S    
O6    V2    S    
C88   C103  S    
C56   C68   A    
C100  H32   S    
C42   H2    S    
C128  H107  S    
C24   O31   S    
C46   N2    A    
C98   H25   S    
C108  H56   S    
C23   O32   S    
C12   C20   A    
C45   O21   S    
C27   C35   A    
C2    C83   S    
C73   O33   S    
C124  H92   S    
C78   C82   A    
C50   O26   S    
C87   C91   A    
C68   C72   A    
C29   C41   A    
C122  H87   S    
C70   C119  S    
O16   V4    S    
C112  H64   S    
C51   O27   S    
C19   H8    S    
C41   H1    S    
C81   C85   A    
C3    O13   A    
C18   H5    S    
C45   N1    A    
C116  H73   S    
C66   C111  S    
C92   H24   S    
O5    C1    A    
C107  H51   S    
C119  H85   S    
O6    C2    A    
C23   C27   A    
C126  H100  S    
C122  H89   S    
O11   V3    S    
C125  H97   S    
C30   C42   A    
C65   C69   A    
C91   C95   A    
C80   C84   A    
C101  H38   S    
C22   C26   A    
O29   C105  S    
C8    C9    S    
C40   H16   S    
C120  H84   S    
C9    C17   A    
C66   C70   A    
C73   C93   A    
C105  H47   S    
O20   V2    S    
C46   C62   A    
C117  H81   S    
C106  H50   S    
C89   C93   A    
N3    C96   S    
C54   C58   A    
O13   V1    S    
C119  C120  S    
O36   C128  S    
C126  H101  S    
C110  H59   S    
O10   C6    A    
N1    C94   S    
C69   C117  S    
C111  H66   S    
C123  H95   S    
C127  H105  S    
C115  H76   S    
C91   H23   S    
C52   C56   A    
C85   C89   A    
C1    C84   S    
C12   C24   A    
N4    C95   S    
C27   C31   A    
C50   C54   A    
C22   O29   S    
C13   C17   A    
C75   C79   A    
C63   C72   A    
C25   C29   A    
C79   C83   A    
O34   C126  S    
C76   C96   A    
O14   V2    S    
C87   C101  S    
C104  H40   S    
C48   C64   A    
C37   C41   A    
C21   O30   S    
C24   C28   A    
C116  H74   S    
C47   C63   A    
C111  C112  S    
C15   C19   A    
N3    C51   A    
C127  H104  S    
C115  C116  S    
C118  H77   S    
C128  H108  S    
C4    O14   A    
C59   C60   A    
C74   C78   A    
C4    C81   S    
C74   O34   S    
C67   C71   A    
C92   C96   A    
C105  H45   S    
C110  H58   S    
C105  H46   S    
C97   H28   S    
C114  H69   S    
O4    V2    S    
O35   C127  S    
C121  C122  S    
C15   H11   S    
C104  H41   S    
