data_mof_unit_20086.cif
_audit_creation_date              2012-10-26T19:46:04-0400
_audit_creation_method            fapswitch 2.2
_symmetry_space_group_name_H-M    P1
_symmetry_Int_Tables_number       1
_space_group_crystal_system       triclinic
_cell_length_a                    10.800069
_cell_length_b                    9.610998
_cell_length_c                    15.911086
_cell_angle_alpha                 89.474648
_cell_angle_beta                  96.312026
_cell_angle_gamma                 88.900158
_cell_volume                      1641.14175736

loop_
_atom_site_label
_atom_site_type_symbol
_atom_type_description
_atom_site_fract_x
_atom_site_fract_y
_atom_site_fract_z
_atom_type_partial_charge
C1    C     C_R   0.265055 0.501382 0.511412 0.621860
C2    C     C_R   0.933444 0.623869 0.501469 -0.128938
C3    C     C_R   0.873733 0.498149 0.509548 -0.033592
C4    C     C_R   0.133448 0.505585 0.528584 -0.023662
C5    C     C_R   0.415476 0.079294 0.442353 0.326769
C6    C     C_R   0.416152 0.926771 0.441674 0.329698
C7    C     C_R   0.504486 0.500517 0.340759 0.602642
C8    C     C_R   0.579220 0.923774 0.555866 -0.002052
C9    C     C_R   0.579895 0.071097 0.555415 -0.007844
C10   C     C_R   0.738229 0.498839 0.501856 0.523534
C11   C     C_R   0.501044 0.499418 0.659570 0.545388
C12   C     C_3   0.625933 0.482489 0.959218 -0.251496
C13   C     C_3   0.424447 0.635413 0.043039 -0.084809
C14   C     C_3   0.429266 0.370123 0.047737 -0.099156
C15   C     C_3   0.410413 0.372562 0.946318 0.016541
C16   C     C_3   0.435603 0.647607 0.944037 0.018871
C17   C     C_1   0.497963 0.498323 0.748585 0.127102
C18   C     C_3   0.498653 0.503751 0.082836 -0.067142
C19   C     C_3   0.488795 0.499981 0.915644 -0.067175
C20   C     C_2   0.306885 0.688257 0.897162 0.614233
C21   C     C_2   0.272719 0.390982 0.911088 0.575297
C22   C     C_2   0.490534 0.236699 0.087552 0.606288
C23   C     C_3   0.631702 0.503721 0.055592 -0.214332
C24   C     C_2   0.448558 0.771402 0.090095 0.663126
C25   C     C_2   0.447748 0.230814 0.910648 0.646556
C26   C     C_2   0.524407 0.763370 0.920837 0.588779
C27   C     C_2   0.139702 0.265759 0.600522 0.609417
C28   C     C_2   0.113533 0.772012 0.526475 0.619236
C29   C     C_1   0.494002 0.498425 0.823567 0.090635
C30   C     C_1   0.503339 0.503238 0.175734 0.007697
C31   C     C_1   0.504752 0.501996 0.251261 0.064252
C32   C     C_R   0.073145 0.382590 0.551071 0.031835
C33   C     C_R   0.061938 0.630847 0.515829 0.031808
C34   C     C_R   0.943053 0.378729 0.536898 -0.121316
Cu1   Cu    Cu3+1 0.500020 0.640660 0.500000 1.102235
Cu2   Cu    Cu3+1 0.500020 0.359340 0.500000 1.096757
H1    H     H_    0.643757 0.866765 0.601023 0.138046
H2    H     H_    0.879113 0.719097 0.488135 0.185606
H3    H     H_    0.130835 0.759937 0.902933 0.362924
H4    H     H_    0.146793 0.397190 0.807179 0.359317
H5    H     H_    0.636346 0.100631 0.097792 0.360163
H6    H     H_    0.561946 0.884434 0.171360 0.374674
H7    H     H_    0.557226 0.118328 0.840319 0.368715
H8    H     H_    0.671527 0.885203 0.955090 0.357340
H9    H     H_    0.132189 0.070906 0.647795 0.375005
H10   H     H_    0.095752 0.973910 0.494206 0.395386
H11   H     H_    0.206610 0.360060 0.311994 0.357022
H12   H     H_    0.644854 0.123993 0.600277 0.134827
H13   H     H_    0.244527 0.653320 0.295728 0.353569
H14   H     H_    0.326402 0.612972 0.052821 0.154236
H15   H     H_    0.336870 0.374534 0.072289 0.167531
H16   H     H_    0.677751 0.603115 0.073005 0.222729
H17   H     H_    0.692166 0.422058 0.089728 0.184473
H18   H     H_    0.689233 0.556743 0.932347 0.156672
H19   H     H_    0.665510 0.378093 0.947705 0.217327
H20   H     H_    0.895038 0.285219 0.551814 0.181681
N1    N     N_R   0.500030 0.852070 0.500020 -0.267205
N2    N     N_R   0.500030 0.147930 0.500020 -0.273423
O1    O     O_R   0.319660 0.618740 0.500000 -0.416776
O2    O     O_R   0.209478 0.735504 0.941487 -0.638435
O3    O     O_2   0.190965 0.410043 0.957461 -0.498847
O4    O     O_R   0.239655 0.383718 0.823663 -0.629008
O5    O     O_2   0.435859 0.168463 0.136606 -0.405299
O6    O     O_R   0.607373 0.190751 0.067646 -0.694708
O7    O     O_2   0.373779 0.868385 0.076907 -0.361345
O8    O     O_R   0.555985 0.787732 0.146565 -0.659618
O9    O     O_2   0.389843 0.127120 0.926450 -0.407361
O10   O     O_R   0.544270 0.217511 0.859200 -0.704315
O11   O     O_2   0.515337 0.810739 0.848641 -0.476780
O12   O     O_R   0.319660 0.381260 0.500000 -0.413938
O13   O     O_R   0.620261 0.810480 0.979316 -0.687716
O14   O     O_2   0.243176 0.282088 0.638229 -0.453414
O15   O     O_R   0.079313 0.140282 0.610386 -0.706684
O16   O     O_2   0.198062 0.794553 0.582097 -0.471206
O17   O     O_R   0.056898 0.882070 0.477931 -0.638633
O18   O     O_2   0.301087 0.117324 0.281745 -0.161285
O19   O     O_2   0.172690 0.140650 0.399135 -0.278097
O20   O     O_3   0.284123 0.345195 0.350786 -0.496800
O21   O     O_2   0.192326 0.907533 0.337384 -0.168273
O22   O     O_2   0.386443 0.861460 0.277466 -0.250658
O23   O     O_R   0.500020 0.618840 0.379440 -0.432818
O24   O     O_3   0.281333 0.672598 0.354202 -0.494558
O25   O     O_R   0.500020 0.381160 0.379440 -0.438484
O26   O     O_R   0.680370 0.618830 0.500010 -0.529637
O27   O     O_R   0.680370 0.381170 0.500010 -0.524734
O28   O     O_R   0.500010 0.618730 0.620560 -0.493542
O29   O     O_R   0.500010 0.381270 0.620560 -0.485913
O30   O     O_2   0.289829 0.684833 0.819876 -0.444481
S1    S     S_3+6 0.295992 0.173118 0.369117 0.116238
S2    S     S_3+6 0.319113 0.840783 0.354222 0.121466

loop_
_geom_bond_atom_site_label_1
_geom_bond_atom_site_label_2
_ccdc_geom_bond_type
C7    O25   A    
C10   O27   A    
C34   H20   S    
C17   C29   T    
C14   C18   S    
Cu1   Cu2   S    
C25   O9    D    
C28   O16   D    
Cu1   O23   S    
C15   C19   S    
C12   C23   S    
O19   S1    D    
C13   C18   S    
Cu1   O1    S    
Cu2   N2    S    
C1    O1    A    
C5    C6    A    
Cu1   O28   S    
C15   C25   S    
Cu2   O25   S    
H4    O4    S    
H8    O13   S    
H9    O15   S    
C9    N2    A    
O21   S2    D    
C22   O5    D    
C11   O29   A    
H7    O10   S    
C18   C30   S    
C20   O2    S    
C21   O3    D    
C24   O8    S    
O18   S1    D    
O20   S1    S    
C26   O13   S    
C6    N1    A    
C25   O10   S    
H10   O17   S    
Cu2   O12   S    
C23   H17   S    
Cu2   O29   S    
C16   C26   S    
C7    C31   S    
C18   C23   S    
C8    C9    A    
C3    C34   A    
C6    S2    S    
C13   C24   S    
C32   C34   A    
H13   O24   S    
C8    N1    A    
C2    H2    S    
C14   H15   S    
C16   C20   S    
C21   O4    S    
C4    C32   A    
C24   O7    D    
C5    N2    A    
C2    C33   A    
C7    O23   A    
C28   C33   S    
H11   O20   S    
C8    H1    S    
C19   C29   S    
C4    C33   A    
C11   C17   S    
C27   C32   S    
Cu1   O26   S    
Cu2   O27   S    
C1    O12   A    
O24   S2    S    
Cu1   N1    S    
C1    C4    S    
C14   C22   S    
C2    C3    A    
C3    C10   S    
C23   H16   S    
C30   C31   T    
C16   C19   S    
H3    O2    S    
C20   O30   D    
C12   C19   S    
C10   O26   A    
O22   S2    D    
C5    S1    S    
C12   H19   S    
C22   O6    S    
C13   H14   S    
C15   C21   S    
C9    H12   S    
C13   C16   S    
H6    O8    S    
C26   O11   D    
C14   C15   S    
C11   O28   A    
H5    O6    S    
C27   O15   S    
C28   O17   S    
C12   H18   S    
C27   O14   D    
