data_mof_unit_21615.cif
_audit_creation_date              2012-12-10T19:01:22-0500
_audit_creation_method            fapswitch 2.2
_symmetry_space_group_name_H-M    P1
_symmetry_Int_Tables_number       1
_space_group_crystal_system       triclinic
_cell_length_a                    9.554893
_cell_length_b                    10.84
_cell_length_c                    15.49189
_cell_angle_alpha                 89.795726
_cell_angle_beta                  73.997216
_cell_angle_gamma                 90.575306
_cell_volume                      1542.28196187

loop_
_atom_site_label
_atom_site_type_symbol
_atom_type_description
_atom_site_fract_x
_atom_site_fract_y
_atom_site_fract_z
_atom_type_partial_charge
C1    C     C_R   0.998282 0.262441 0.502250 0.802316
C2    C     C_R   0.665993 0.542793 0.902605 0.112581
C3    C     C_R   0.762730 0.592022 0.948710 0.151099
C4    C     C_R   0.513894 0.534244 0.946463 -0.133170
C5    C     C_R   0.466849 0.548543 0.041119 0.021377
C6    C     C_R   0.566843 0.597350 0.085134 -0.168981
C7    C     C_R   0.711092 0.621391 0.039099 -0.236999
C8    C     C_R   0.407070 0.512938 0.899360 0.349636
C9    C     C_R   0.265510 0.477642 0.945593 0.356309
C10   C     C_R   0.218646 0.485603 0.040102 -0.036474
C11   C     C_R   0.320248 0.518543 0.088256 0.039982
C12   C     C_R   0.917834 0.502501 0.672045 0.799970
C13   C     C_R   0.070712 0.467934 0.087366 -0.183969
C14   C     C_R   0.025252 0.475056 0.180600 -0.189032
C15   C     C_R   0.272754 0.516925 0.182733 -0.202843
C16   C     C_R   0.113063 0.065524 0.521319 0.131232
C17   C     C_R   0.992096 0.129542 0.512230 -0.100636
C18   C     C_R   0.863408 0.063128 0.516053 -0.216424
C19   C     C_R   0.864574 0.934432 0.515478 -0.213301
C20   C     C_R   0.994458 0.871113 0.510972 -0.101063
C21   C     C_R   0.114472 0.938498 0.520727 0.133567
C22   C     C_3   0.270603 0.936647 0.467312 -0.491488
C23   C     C_R   0.999593 0.737826 0.501665 0.799841
C24   C     C_3   0.268782 0.076407 0.468450 -0.452109
C25   C     C_R   0.608160 0.531939 0.424386 0.250535
C26   C     C_R   0.541724 0.455631 0.571377 -0.056460
C27   C     C_R   0.393036 0.455881 0.571456 -0.060326
C28   C     C_R   0.460807 0.532063 0.424406 0.261323
C29   C     C_3   0.479371 0.653353 0.376986 -0.512833
C30   C     C_3   0.638523 0.652130 0.375782 -0.494522
C31   C     C_R   0.082088 0.499016 0.327710 0.789005
C32   C     C_R   0.871366 0.521868 0.769265 -0.084917
C33   C     C_R   0.126642 0.497023 0.228937 -0.053359
C34   C     C_R   0.910497 0.610509 0.903807 -0.184399
C35   C     C_R   0.963827 0.578332 0.813745 -0.111379
C36   C     C_R   0.726013 0.498219 0.815442 -0.259189
Cu1   Cu    Cu3+1 0.140670 0.499980 0.500000 0.945944
Cu2   Cu    Cu3+1 0.859330 0.500020 0.500000 0.941650
H1    H     H_    0.783502 0.660067 0.075177 0.139712
H2    H     H_    0.987757 0.451413 0.053231 0.147879
H3    H     H_    0.764413 0.109865 0.514571 0.166203
H4    H     H_    0.765984 0.885426 0.513910 0.162372
H5    H     H_    0.341424 0.897948 0.506608 0.198514
H6    H     H_    0.285526 0.898191 0.398941 0.198140
H7    H     H_    0.337844 0.117371 0.508374 0.198832
H8    H     H_    0.282960 0.118507 0.400943 0.201175
H9    H     H_    0.570074 0.420800 0.629715 0.168378
H10   H     H_    0.311183 0.421755 0.629864 0.172833
H11   H     H_    0.462181 0.647557 0.309358 0.180784
H12   H     H_    0.348524 0.527987 0.222137 0.136515
H13   H     H_    0.417368 0.726138 0.420130 0.214616
H14   H     H_    0.713480 0.642215 0.307204 0.189733
H15   H     H_    0.668454 0.726637 0.416714 0.213507
H16   H     H_    0.910962 0.461088 0.214854 0.147870
H17   H     H_    0.984239 0.651340 0.938032 0.155395
H18   H     H_    0.076453 0.598757 0.778791 0.190884
H19   H     H_    0.660857 0.444534 0.782055 0.192349
H20   H     H_    0.535718 0.622984 0.154708 0.126753
N1    N     N_R   0.648210 0.500930 0.499430 -0.194072
N2    N     N_R   0.352300 0.500890 0.499430 -0.195306
O1    O     O_R   0.118810 0.319640 0.500000 -0.578553
O2    O     O_R   0.881230 0.319680 0.499990 -0.586063
O3    O     O_R   0.055580 0.499970 0.629840 -0.583191
O4    O     O_R   0.818000 0.500010 0.629830 -0.586439
O5    O     O_R   0.118770 0.680320 0.500010 -0.575608
O6    O     O_R   0.881190 0.680360 0.500000 -0.582964
O7    O     O_R   0.182000 0.499990 0.370170 -0.584379
O8    O     O_R   0.944420 0.500030 0.370160 -0.581509
O9    O     O_3   0.175001 0.439554 0.894950 -0.708213
H21   H     H_    0.109951 0.373273 0.928170 0.313383
O10   O     O_3   0.432711 0.535006 0.808544 -0.721488
H22   H     H_    0.499760 0.607113 0.792707 0.319462

loop_
_geom_bond_atom_site_label_1
_geom_bond_atom_site_label_2
_ccdc_geom_bond_type
C27   H10   S    
C8    C9    A    
C16   C21   A    
C6    H20   S    
C19   C20   A    
C4    C8    A    
C1    O2    A    
C14   C33   A    
C29   H11   S    
C25   C28   A    
C31   O7    A    
C26   C27   A    
C29   C30   S    
C24   H7    S    
C32   C36   A    
C23   O6    A    
C28   C29   S    
C9    O9    S    
C5    C11   A    
C3    C7    A    
C27   N2    A    
C29   H13   S    
C5    C6    A    
C12   O4    A    
C34   C35   A    
C15   H12   S    
C13   H2    S    
C11   C15   A    
C22   H6    S    
Cu2   O6    S    
C16   C17   A    
Cu1   O5    S    
C31   C33   S    
C26   N1    A    
C19   H4    S    
C34   H17   S    
C16   C24   S    
C21   C22   S    
C12   C32   S    
Cu1   O3    S    
Cu2   O4    S    
C28   N2    A    
C31   O8    A    
C30   H15   S    
C32   C35   A    
C36   H19   S    
C18   H3    S    
C12   O3    A    
C18   C19   A    
C3    C34   A    
C2    C4    A    
Cu1   Cu2   S    
C22   H5    S    
C20   C23   S    
C17   C18   A    
C26   H9    S    
C14   H16   S    
Cu2   O8    S    
C22   C24   S    
C9    C10   A    
C2    C36   A    
C25   C30   S    
C30   H14   S    
C8    O10   S    
C35   H18   S    
C4    C5    A    
C10   C13   A    
C1    O1    A    
Cu1   O1    S    
C6    C7    A    
C1    C17   S    
C24   H8    S    
C23   O5    A    
C2    C3    A    
O10   H22   S    
Cu1   O7    S    
O9    H21   S    
Cu1   N2    S    
C10   C11   A    
Cu2   N1    S    
C20   C21   A    
C7    H1    S    
C25   N1    A    
C13   C14   A    
C15   C33   A    
Cu2   O2    S    
