data_mof_unit_50490.cif
_audit_creation_date              2013-03-05T15:41:57-0500
_audit_creation_method            fapswitch 2.2
_symmetry_space_group_name_H-M    P1
_symmetry_Int_Tables_number       1
_space_group_crystal_system       triclinic
_cell_length_a                    24.839153
_cell_length_b                    16.78472
_cell_length_c                    15.561504
_cell_angle_alpha                 90.030701
_cell_angle_beta                  50.488824
_cell_angle_gamma                 90.019676
_cell_volume                      5005.39781475

loop_
_atom_site_label
_atom_site_type_symbol
_atom_site_description
_atom_site_fract_x
_atom_site_fract_y
_atom_site_fract_z
_atom_type_partial_charge
C1    C     C_R   0.333712 0.108335 0.803451 -0.102825
C2    C     C_R   0.664132 0.884808 0.200588 -0.119293
C3    C     C_R   0.666633 0.106892 0.195879 -0.106419
C4    C     C_R   0.335288 0.887488 0.801978 -0.124410
C5    C     C_R   0.861221 0.652938 0.736033 -0.143783
C6    C     C_R   0.142481 0.348909 0.254856 -0.122506
C7    C     C_R   0.141713 0.651151 0.257203 -0.123841
C8    C     C_R   0.857397 0.349003 0.745053 -0.123907
H1    H     H_    0.281510 0.100838 0.831548 0.073682
H2    H     H_    0.716604 0.883516 0.172632 0.084216
H3    H     H_    0.718769 0.098929 0.167949 0.074482
H4    H     H_    0.282557 0.887392 0.830899 0.085628
H5    H     H_    0.817436 0.672101 0.741939 0.125133
H6    H     H_    0.187021 0.331603 0.247579 0.129270
H7    H     H_    0.185961 0.669974 0.250291 0.127034
H8    H     H_    0.812918 0.331850 0.752085 0.128766
N1    N     N_R   0.389620 0.081040 0.705440 -0.038542
N2    N     N_R   0.610380 0.918960 0.294560 -0.036989
N3    N     N_R   0.610380 0.081040 0.294560 -0.038135
N4    N     N_R   0.389620 0.918960 0.705440 -0.037502
N5    N     N_R   0.889620 0.581040 0.705440 -0.045279
N6    N     N_R   0.110380 0.418960 0.294560 -0.045074
N7    N     N_R   0.110380 0.581040 0.294560 -0.045280
N8    N     N_R   0.889620 0.418960 0.705440 -0.045075
C9    C     C_R   0.585655 0.150022 0.592751 -0.120849
C10   C     C_R   0.412173 0.851648 0.406856 -0.096249
C11   C     C_R   0.414468 0.150156 0.407398 -0.123259
C12   C     C_R   0.588342 0.851815 0.592827 -0.098119
C13   C     C_R   0.115405 0.604288 0.593271 -0.095636
C14   C     C_R   0.885855 0.390219 0.406964 -0.148082
C15   C     C_R   0.883958 0.603306 0.407382 -0.061870
C16   C     C_R   0.114149 0.390126 0.592979 -0.145857
H9    H     H_    0.558178 0.165646 0.678915 0.116643
H10   H     H_    0.439408 0.836553 0.320727 0.096512
H11   H     H_    0.442123 0.165903 0.321221 0.118136
H12   H     H_    0.561100 0.836433 0.678896 0.100943
H13   H     H_    0.094149 0.603315 0.679223 0.091838
H14   H     H_    0.906309 0.391213 0.321436 0.105497
H15   H     H_    0.905025 0.602817 0.321503 0.090011
H16   H     H_    0.093706 0.391089 0.678507 0.107438
N9    N     N_R   0.582320 0.079840 0.556630 -0.050130
N10   N     N_R   0.417680 0.920160 0.443370 -0.048702
N11   N     N_R   0.417680 0.079840 0.443370 -0.049923
N12   N     N_R   0.582320 0.920160 0.556630 -0.049913
N13   N     N_R   0.082320 0.579840 0.556630 -0.044281
N14   N     N_R   0.917680 0.420160 0.443370 -0.046789
N15   N     N_R   0.917680 0.579840 0.443370 -0.046871
N16   N     N_R   0.082320 0.420160 0.556630 -0.046099
C17   C     C_R   0.660270 0.149119 0.407048 -0.105250
C18   C     C_R   0.337547 0.852242 0.592865 -0.127699
C19   C     C_R   0.339687 0.149089 0.593061 -0.104884
C20   C     C_R   0.663399 0.852980 0.406946 -0.125728
C21   C     C_R   0.190078 0.602910 0.408343 -0.103326
C22   C     C_R   0.810866 0.392963 0.592142 -0.098657
C23   C     C_R   0.809664 0.601993 0.592179 -0.127003
C24   C     C_R   0.189119 0.392855 0.407813 -0.101581
H17   H     H_    0.702257 0.164224 0.321029 0.122577
H18   H     H_    0.295498 0.837140 0.678799 0.111544
H19   H     H_    0.297528 0.164049 0.679059 0.123893
H20   H     H_    0.705772 0.838380 0.321052 0.104093
H21   H     H_    0.237991 0.601615 0.322941 0.096972
H22   H     H_    0.762677 0.395066 0.677222 0.113762
H23   H     H_    0.761998 0.600812 0.677828 0.099297
H24   H     H_    0.237300 0.395015 0.322735 0.116404
N17   N     N_R   0.627920 0.078930 0.443400 -0.056260
N18   N     N_R   0.372080 0.921070 0.556600 -0.050430
N19   N     N_R   0.372080 0.078930 0.556600 -0.056972
N20   N     N_R   0.627920 0.921070 0.443400 -0.049122
N21   N     N_R   0.127920 0.578930 0.443400 -0.043924
N22   N     N_R   0.872080 0.421070 0.556600 -0.047709
N23   N     N_R   0.872080 0.578930 0.556600 -0.042424
N24   N     N_R   0.127920 0.421070 0.443400 -0.048648
C25   C     C_R   0.578140 0.103926 0.194613 -0.134393
C26   C     C_R   0.425329 0.890547 0.800113 -0.125558
C27   C     C_R   0.422410 0.105581 0.804327 -0.137437
C28   C     C_R   0.574765 0.888604 0.200543 -0.145287
C29   C     C_R   0.053345 0.647385 0.253460 -0.088035
C30   C     C_R   0.945966 0.353122 0.747794 -0.110101
C31   C     C_R   0.947758 0.648298 0.743659 -0.117061
C32   C     C_R   0.053925 0.353257 0.252086 -0.106129
H25   H     H_    0.549014 0.097392 0.165112 0.105403
H26   H     H_    0.455901 0.893818 0.827115 0.094817
H27   H     H_    0.451672 0.099536 0.833626 0.104880
H28   H     H_    0.545348 0.891660 0.171224 0.093260
H29   H     H_    0.016214 0.663281 0.241877 0.118783
H30   H     H_    0.983201 0.338206 0.759327 0.108007
H31   H     H_    0.983783 0.663381 0.757857 0.106299
H32   H     H_    0.016725 0.338555 0.240393 0.107674
N25   N     N_R   0.555090 0.077730 0.294590 -0.039521
N26   N     N_R   0.444910 0.922270 0.705410 -0.038847
N27   N     N_R   0.444910 0.077730 0.705410 -0.039799
N28   N     N_R   0.555090 0.922270 0.294590 -0.035036
N29   N     N_R   0.055090 0.577730 0.294590 -0.048151
N30   N     N_R   0.944910 0.422270 0.705410 -0.044982
N31   N     N_R   0.944910 0.577730 0.705410 -0.045121
N32   N     N_R   0.055090 0.422270 0.294590 -0.045527
C33   C     C_R   0.352071 0.124053 0.869132 0.100790
C34   C     C_R   0.643025 0.864799 0.139864 0.055659
C35   C     C_R   0.648716 0.121085 0.129408 0.100600
C36   C     C_R   0.356401 0.869394 0.863504 0.076334
C37   C     C_R   0.896624 0.696998 0.761008 0.106315
C38   C     C_R   0.106822 0.304543 0.229591 0.079074
C39   C     C_R   0.106912 0.694425 0.230400 0.045474
C40   C     C_R   0.892910 0.304521 0.770334 0.079173
C41   C     C_R   0.634257 0.195041 0.499800 0.163744
C42   C     C_R   0.361967 0.807823 0.499700 0.143577
C43   C     C_R   0.365846 0.195199 0.500471 0.162315
C44   C     C_R   0.639064 0.808311 0.499744 0.148074
C45   C     C_R   0.182995 0.617774 0.501547 0.108910
C46   C     C_R   0.819121 0.372439 0.499221 0.126723
C47   C     C_R   0.816091 0.615451 0.499537 0.097689
C48   C     C_R   0.180882 0.372198 0.500690 0.124253
Ni1   Ni    Ni4+2 0.382970 0.000000 0.629840 0.218534
Ni2   Ni    Ni4+2 0.617030 0.000000 0.370160 0.220135
Ni3   Ni    Ni4+2 0.882970 0.500000 0.629840 0.224789
Ni4   Ni    Ni4+2 0.117030 0.500000 0.370160 0.227136
Ni5   Ni    Ni4+2 0.514540 0.000000 0.629840 0.223679
Ni6   Ni    Ni4+2 0.485460 0.000000 0.370160 0.225763
Ni7   Ni    Ni4+2 0.014540 0.500000 0.629840 0.220912
Ni8   Ni    Ni4+2 0.985460 0.500000 0.370160 0.221777
C49   C     C_3   0.342884 0.302661 0.399730 -0.276639
C50   C     C_3   0.684680 0.744184 0.595080 -0.272154
C51   C     C_3   0.657706 0.300464 0.601789 -0.276496
C52   C     C_3   0.328365 0.726403 0.395352 -0.269573
C53   C     C_3   0.761143 0.657701 0.404146 -0.261199
C54   C     C_3   0.214544 0.288647 0.602105 -0.299506
C55   C     C_3   0.227024 0.675111 0.606755 -0.264593
C56   C     C_3   0.784974 0.290855 0.396832 -0.301312
C57   C     C_3   0.760978 0.750023 0.410467 -0.303280
C58   C     C_3   0.258863 0.218951 0.521974 -0.289934
C59   C     C_3   0.242254 0.763392 0.569339 -0.304752
C60   C     C_3   0.742522 0.219466 0.474524 -0.288469
C61   C     C_3   0.297816 0.373507 0.479826 -0.251297
C62   C     C_3   0.684692 0.651787 0.589290 -0.305440
C63   C     C_3   0.700867 0.372997 0.524142 -0.247713
C64   C     C_3   0.313055 0.637519 0.432386 -0.294010
H33   H     H_    0.792875 0.791333 0.338584 0.157948
H34   H     H_    0.243428 0.155140 0.537192 0.169239
H35   H     H_    0.213292 0.815947 0.623449 0.160131
H36   H     H_    0.759081 0.156037 0.456224 0.170772
H37   H     H_    0.311701 0.437710 0.465053 0.167056
H38   H     H_    0.654714 0.609582 0.660364 0.159154
H39   H     H_    0.685914 0.436868 0.542007 0.174811
H40   H     H_    0.340379 0.584387 0.378717 0.157247
H41   H     H_    0.395595 0.307262 0.317049 0.176903
H42   H     H_    0.654728 0.780448 0.672415 0.160005
H43   H     H_    0.605465 0.303315 0.685500 0.177209
H44   H     H_    0.368864 0.747908 0.308834 0.155292
H45   H     H_    0.792125 0.620392 0.327790 0.179057
H46   H     H_    0.162180 0.283439 0.685265 0.155126
H47   H     H_    0.185941 0.652472 0.692412 0.168919
H48   H     H_    0.836874 0.287476 0.312653 0.155415
C65   C     C_3   0.680694 0.748334 0.500132 -0.013594
C66   C     C_3   0.323909 0.254875 0.500310 -0.025041
C67   C     C_3   0.321123 0.746851 0.499027 -0.015253
C68   C     C_3   0.676108 0.254723 0.500148 -0.027068
C69   C     C_3   0.233371 0.336233 0.501576 -0.020406
C70   C     C_3   0.764734 0.654171 0.499285 -0.031647
C71   C     C_3   0.766693 0.336391 0.498379 -0.025233
C72   C     C_3   0.234508 0.655180 0.502886 -0.031336
C73   C     C_3   0.277570 0.267417 0.423720 0.464352
C74   C     C_3   0.763910 0.744748 0.505156 0.468579
C75   C     C_3   0.724336 0.265925 0.573874 0.463127
C76   C     C_3   0.250141 0.742015 0.466832 0.466509
C77   C     C_3   0.680868 0.657850 0.494292 0.441629
C78   C     C_3   0.279820 0.323705 0.578692 0.445392
C79   C     C_3   0.306049 0.660065 0.535488 0.441963
C80   C     C_3   0.718357 0.325192 0.424159 0.450031
H49   H     H_    0.220984 0.890558 0.019034 0.126387
H50   H     H_    0.775193 0.170192 0.017609 0.128712
H51   H     H_    0.778137 0.884972 0.985392 0.112070
H52   H     H_    0.224323 0.169712 0.982614 0.127000
H53   H     H_    0.795249 0.210367 0.808517 0.153268
H54   H     H_    0.229873 0.716430 0.061752 0.125110
H55   H     H_    0.202231 0.208926 0.194895 0.152905
H56   H     H_    0.775052 0.711009 0.933968 0.140609
C81   C     C_2   0.698991 0.132607 0.007047 0.152818
C82   C     C_2   0.312480 0.838553 0.977196 0.173863
C83   C     C_2   0.302433 0.137834 0.991112 0.151629
C84   C     C_2   0.687036 0.829017 0.029423 0.195699
C85   C     C_2   0.132300 0.770258 0.171739 0.178741
C86   C     C_2   0.874033 0.223990 0.820339 0.195775
C87   C     C_2   0.869189 0.771831 0.822721 0.185930
C88   C     C_2   0.125497 0.224064 0.179427 0.193794
C89   C     C_2   0.763435 0.158852 0.962568 -0.213528
C90   C     C_2   0.243126 0.843811 0.036253 -0.175684
C91   C     C_2   0.236940 0.160746 0.036878 -0.202799
C92   C     C_2   0.756352 0.836805 0.969349 -0.162738
C93   C     C_2   0.201417 0.772610 0.090500 -0.154300
C94   C     C_2   0.815059 0.190757 0.849662 -0.145907
C95   C     C_2   0.800720 0.768791 0.907985 -0.211306
C96   C     C_2   0.184151 0.190621 0.150816 -0.146036
N33   N     N_R   0.275434 0.235558 0.338879 0.218236
O1    O     O_R   0.330586 0.238912 0.234350 -0.456814
O2    O     O_R   0.218639 0.202783 0.367510 -0.435415
N34   N     N_R   0.810896 0.792680 0.510074 0.233241
O3    O     O_R   0.786133 0.837874 0.595874 -0.414631
O4    O     O_R   0.877570 0.792638 0.426777 -0.423155
N35   N     N_R   0.728780 0.232443 0.655544 0.219527
O5    O     O_R   0.674481 0.233042 0.760778 -0.456039
O6    O     O_R   0.786847 0.200925 0.623297 -0.428904
N36   N     N_R   0.217614 0.787525 0.430950 0.233588
O7    O     O_R   0.255617 0.818567 0.331932 -0.435545
O8    O     O_R   0.150542 0.799001 0.498952 -0.425104
N37   N     N_R   0.632937 0.612280 0.489637 0.235268
O9    O     O_R   0.656711 0.565657 0.405516 -0.328213
O10   O     O_R   0.566022 0.618013 0.569949 -0.359060
N38   N     N_R   0.281451 0.355538 0.664067 0.241585
O11   O     O_R   0.239392 0.413018 0.728110 -0.358349
O12   O     O_R   0.326042 0.328634 0.674665 -0.376990
N39   N     N_R   0.339202 0.616972 0.571885 0.238987
O13   O     O_R   0.301728 0.587423 0.671858 -0.336271
O14   O     O_R   0.406627 0.608398 0.504594 -0.344590
N40   N     N_R   0.714676 0.358484 0.341641 0.244745
O15   O     O_R   0.755275 0.417364 0.279287 -0.370474
O16   O     O_R   0.670071 0.330990 0.331378 -0.375890
C97   C     C_3   0.345882 0.786604 0.012636 -0.338451
C98   C     C_3   0.369775 0.836382 0.064933 -0.823907
H57   H     H_    0.413623 0.876119 0.002968 0.228258
H58   H     H_    0.325866 0.872957 0.133857 0.305142
H59   H     H_    0.387741 0.796402 0.099070 0.254511
H60   H     H_    0.309691 0.741010 0.075130 0.197950
H61   H     H_    0.391281 0.753876 0.939486 0.193030
C99   C     C_3   0.676708 0.113384 0.938101 -0.273734
C100  C     C_3   0.668839 0.023671 0.933351 -0.892232
H62   H     H_    0.718954 0.993068 0.896595 0.274395
H63   H     H_    0.627580 0.999154 0.017525 0.245773
H64   H     H_    0.654196 0.011244 0.880487 0.266240
H65   H     H_    0.626512 0.143619 0.974663 0.197593
H66   H     H_    0.714307 0.134000 0.851030 0.249279
C101  C     C_3   0.654154 0.773633 0.996328 -0.370326
C102  C     C_3   0.674159 0.797296 0.884515 -0.817500
H67   H     H_    0.655647 0.858528 0.889215 0.261074
H68   H     H_    0.731577 0.794535 0.817280 0.285956
H69   H     H_    0.649468 0.755665 0.863169 0.238003
H70   H     H_    0.669030 0.710739 0.992821 0.190107
H71   H     H_    0.596372 0.774986 0.059720 0.187204
C103  C     C_3   0.326813 0.123739 0.058116 -0.278101
C104  C     C_3   0.332845 0.034878 0.070442 -0.885539
H72   H     H_    0.281229 0.005670 0.114723 0.275751
H73   H     H_    0.370965 0.006369 0.987846 0.246348
H74   H     H_    0.350738 0.025864 0.119440 0.271133
H75   H     H_    0.378114 0.153022 0.016199 0.195530
H76   H     H_    0.291720 0.148960 0.142747 0.252941
C105  C     C_3   0.914967 0.186324 0.852043 -0.387886
C106  C     C_3   0.986289 0.157424 0.748628 -0.836185
H77   H     H_    0.979656 0.111295 0.704781 0.268375
H78   H     H_    0.017874 0.207068 0.690130 0.260369
H79   H     H_    0.015280 0.130705 0.773823 0.243293
H80   H     H_    0.921459 0.229950 0.898557 0.187227
H81   H     H_    0.887773 0.133497 0.906545 0.196121
C107  C     C_3   0.084605 0.841588 0.212955 -0.302374
C108  C     C_3   0.066089 0.858421 0.138170 -0.870747
H82   H     H_    0.113717 0.871038 0.051568 0.242775
H83   H     H_    0.038579 0.806427 0.137717 0.262583
H84   H     H_    0.031106 0.911064 0.170294 0.262038
H85   H     H_    0.035484 0.829955 0.298730 0.224444
H86   H     H_    0.109338 0.894906 0.217289 0.195991
C109  C     C_3   0.085098 0.186978 0.146347 -0.392816
C110  C     C_3   0.013471 0.158053 0.248926 -0.824832
H87   H     H_    0.019612 0.111558 0.292922 0.270210
H88   H     H_    0.981751 0.207566 0.307641 0.259400
H89   H     H_    0.984882 0.131770 0.222726 0.243343
H90   H     H_    0.079142 0.230943 0.099567 0.189074
H91   H     H_    0.112369 0.134193 0.091735 0.197495
C111  C     C_3   0.910684 0.848781 0.784685 -0.423114
C112  C     C_3   0.986703 0.840204 0.679511 -0.719264
H92   H     H_    0.015245 0.800701 0.695586 0.256625
H93   H     H_    0.989928 0.815839 0.609958 0.266601
H94   H     H_    0.012241 0.899588 0.654416 0.253334
H95   H     H_    0.885388 0.893713 0.768142 0.218807
H96   H     H_    0.909642 0.871736 0.852727 0.188779

loop_
_geom_bond_atom_site_label_1
_geom_bond_atom_site_label_2
_geom_bond_distance
_ccdc_geom_bond_type
C97   H61   1.111557 S    
C40   C86   1.479480 S    
C105  H80   1.110863 S    
C84   C101  1.526657 S    
C8    N8    1.331053 A    
N18   Ni1   1.875557 S    
C2    N2    1.328496 A    
C72   C76   1.520910 S    
N17   Ni2   1.875555 S    
C82   C97   1.528420 S    
C104  H72   1.111165 S    
N1    N27   1.374200 A    
C3    H3    1.080600 S    
N5    Ni3   1.872687 S    
C36   C82   1.460434 S    
C99   C100  1.526169 S    
N2    Ni2   1.872687 S    
C31   H31   1.079322 S    
C98   H57   1.106679 S    
N1    Ni1   1.872687 S    
C89   C94   1.466891 S    
N21   Ni4   1.875555 S    
N37   O9    1.300116 A    
C2    C34   1.382229 A    
C49   C66   1.541963 S    
C52   H44   1.109859 S    
C14   H14   1.081395 S    
C87   C111  1.518055 S    
N36   O8    1.299703 A    
C11   H11   1.080826 S    
C14   C46   1.367420 A    
C92   C95   1.445759 S    
C109  H91   1.110462 S    
N14   Ni8   1.867539 S    
C13   C45   1.363095 A    
C47   C70   1.434083 S    
C26   H26   1.078053 S    
H49   C90   1.085343 S    
C35   C81   1.482253 S    
C83   C103  1.521081 S    
C99   H66   1.103598 S    
C111  H95   1.111841 S    
N12   N20   1.359548 A    
N4    Ni1   1.873685 S    
C112  H94   1.110477 S    
N40   O16   1.300276 A    
C33   C83   1.482737 S    
C83   C91   1.351833 D    
C54   C58   1.545264 S    
H52   C91   1.082056 S    
C28   C34   1.374379 A    
C6    N6    1.331531 A    
C103  H76   1.101086 S    
H53   C94   1.077790 S    
C27   C33   1.386989 A    
C100  H64   1.110406 S    
C81   C89   1.351122 D    
C22   C46   1.368895 A    
C80   N40   1.455936 S    
C78   N38   1.455993 S    
N28   Ni6   1.867696 S    
C50   C62   1.553423 S    
C55   C59   1.548561 S    
C84   C92   1.344354 D    
C29   H29   1.079853 S    
C55   H47   1.109930 S    
N7    Ni4   1.873685 S    
C103  C104  1.523440 S    
C12   C44   1.376950 A    
C21   H21   1.081875 S    
C10   H10   1.079002 S    
C44   C65   1.446175 S    
C67   C79   1.521269 S    
N38   O11   1.300111 A    
C24   N24   1.330713 A    
C23   H23   1.081961 S    
C63   C80   1.546671 S    
C88   C96   1.345679 D    
C3    N3    1.329959 A    
C101  H70   1.108365 S    
N29   Ni8   1.867746 S    
C18   C42   1.380519 A    
C32   N32   1.343002 A    
C20   H20   1.078949 S    
C5    H5    1.080637 S    
C20   N20   1.329841 A    
C27   N27   1.343529 A    
C23   C47   1.364678 A    
C30   H30   1.077849 S    
C63   H39   1.110449 S    
C105  H81   1.110502 S    
C21   N21   1.330959 A    
N35   O5    1.300177 A    
C8    H8    1.077699 S    
C15   N15   1.329568 A    
C105  C106  1.528265 S    
C32   H32   1.077739 S    
C6    C38   1.391405 A    
C52   C76   1.526800 S    
C16   N16   1.329954 A    
C10   C42   1.375342 A    
H54   C93   1.089282 S    
C24   C48   1.369371 A    
C85   C93   1.336212 D    
N16   N24   1.359548 A    
C110  H89   1.110468 S    
C56   C60   1.545279 S    
C25   H25   1.081067 S    
C56   H48   1.110067 S    
C107  H85   1.111873 S    
N16   Ni7   1.867493 S    
C5    C37   1.380353 A    
C51   C68   1.542433 S    
N37   O10   1.300220 A    
C19   H19   1.080359 S    
C51   C63   1.563294 S    
C100  H63   1.107948 S    
C106  H78   1.109098 S    
C28   H28   1.081192 S    
N20   Ni2   1.876549 S    
C88   C109  1.521827 S    
C63   C71   1.542061 S    
N36   O7    1.298663 A    
C52   C64   1.556972 S    
N13   N21   1.359535 A    
C18   H18   1.079968 S    
N26   Ni5   1.867746 S    
C1    H1    1.080230 S    
N34   O4    1.300520 A    
C109  H90   1.110876 S    
C48   C69   1.444955 S    
C86   C105  1.521818 S    
C9    N9    1.330017 A    
H55   C96   1.076211 S    
C108  H83   1.111004 S    
C49   H41   1.110017 S    
C53   C70   1.539958 S    
N10   Ni6   1.867539 S    
H56   C95   1.087468 S    
C17   C41   1.381054 A    
C7    H7    1.081077 S    
N5    N31   1.374200 A    
N3    Ni2   1.873685 S    
N33   O2    1.300488 A    
C97   C98   1.525154 S    
N4    N26   1.374162 A    
C103  H75   1.110441 S    
C12   N12   1.328031 A    
C102  H69   1.110594 S    
N7    N29   1.374165 A    
C13   N13   1.328391 A    
C5    N5    1.324090 A    
C64   C72   1.540904 S    
N9    Ni5   1.867540 S    
C53   C77   1.544192 S    
C25   N25   1.344888 A    
C31   N31   1.347233 A    
N3    N25   1.374165 A    
C82   C90   1.343701 D    
N8    N30   1.374162 A    
C62   H38   1.110007 S    
C51   C75   1.532807 S    
N30   Ni7   1.867746 S    
C98   H58   1.108174 S    
N39   O13   1.300227 A    
C22   N22   1.330451 A    
C11   C43   1.378979 A    
N23   Ni3   1.876551 S    
C49   C73   1.533022 S    
C110  H88   1.108999 S    
C102  H68   1.110029 S    
C100  H62   1.111170 S    
C62   C77   1.543886 S    
C73   N33   1.456086 S    
C104  H73   1.108423 S    
C55   C79   1.541663 S    
C19   N19   1.332327 A    
N25   Ni6   1.867746 S    
C8    C40   1.390219 A    
N15   N23   1.359547 A    
C91   C96   1.468220 S    
C17   N17   1.332397 A    
C28   N28   1.337614 A    
H51   C92   1.086342 S    
C58   C73   1.520694 S    
N11   N19   1.359547 A    
N15   Ni8   1.867493 S    
N39   O14   1.300222 A    
C51   H43   1.110006 S    
N27   Ni5   1.867696 S    
C42   C67   1.445510 S    
C1    C33   1.383817 A    
C4    C36   1.386809 A    
C53   C57   1.552504 S    
C76   N36   1.457038 S    
C13   H13   1.081433 S    
C50   C65   1.544020 S    
C71   C75   1.521141 S    
N2    N28   1.374203 A    
C29   C39   1.383668 A    
C4    H4    1.080764 S    
N13   Ni7   1.867540 S    
C34   C84   1.455384 S    
C109  C110  1.528279 S    
C2    H2    1.080253 S    
C65   C77   1.521252 S    
C69   C73   1.521236 S    
C16   H16   1.081443 S    
C10   N10   1.327427 A    
C98   H59   1.110794 S    
N10   N18   1.359534 A    
C107  H86   1.111364 S    
C54   C69   1.540817 S    
C21   C45   1.368134 A    
C97   H60   1.107894 S    
C25   C35   1.386455 A    
C11   N11   1.330508 A    
C106  H77   1.111115 S    
C54   H46   1.110112 S    
C38   C88   1.479120 S    
C16   C48   1.367996 A    
C62   C70   1.540401 S    
C39   C85   1.455769 S    
N6    Ni4   1.872687 S    
N6    N32   1.374203 A    
N32   Ni8   1.867696 S    
C66   C78   1.523618 S    
N34   O3    1.300270 A    
C54   C78   1.534873 S    
C85   C107  1.510489 S    
C87   C95   1.335732 D    
C17   H17   1.080542 S    
C26   C36   1.371627 A    
C112  H92   1.109505 S    
C18   N18   1.331508 A    
C30   N30   1.343737 A    
C64   C79   1.546547 S    
N22   Ni3   1.875557 S    
C60   H36   1.111148 S    
C22   H22   1.081811 S    
N24   Ni4   1.876549 S    
C1    N1    1.330103 A    
C50   C74   1.525470 S    
C14   N14   1.329548 A    
C101  H71   1.109964 S    
N31   Ni7   1.867696 S    
C26   N26   1.334366 A    
C108  H84   1.110411 S    
C59   C67   1.544224 S    
N19   Ni1   1.876551 S    
C60   C75   1.520750 S    
C79   N39   1.454803 S    
C6    H6    1.077941 S    
C64   H40   1.109865 S    
N38   O12   1.300281 A    
C111  H96   1.111289 S    
C99   H65   1.110536 S    
C110  H87   1.111110 S    
C57   C65   1.543974 S    
C112  H93   1.111030 S    
C27   H27   1.080852 S    
C24   H24   1.081788 S    
C108  H82   1.109967 S    
C59   C76   1.521004 S    
C90   C93   1.449682 S    
C7    N7    1.323976 A    
N40   O15   1.300166 A    
H50   C89   1.083160 S    
C29   N29   1.347057 A    
C102  H67   1.109282 S    
C60   C68   1.547262 S    
C15   H15   1.081661 S    
C57   C74   1.523500 S    
C30   C40   1.391626 A    
C104  H74   1.110476 S    
C61   C69   1.542240 S    
C50   H42   1.110194 S    
C81   C99   1.522069 S    
N9    N17   1.359535 A    
C53   H45   1.110054 S    
N35   O6    1.300484 A    
C9    C41   1.378121 A    
N14   N22   1.359534 A    
C43   C66   1.446524 S    
C59   H35   1.110651 S    
C111  C112  1.527214 S    
C70   C74   1.522363 S    
N11   Ni6   1.867493 S    
C75   N35   1.456883 S    
C4    N4    1.333324 A    
C68   C80   1.523225 S    
C3    C35   1.382355 A    
C41   C68   1.445896 S    
C57   H33   1.110179 S    
C37   C87   1.459750 S    
C12   H12   1.079558 S    
N8    Ni3   1.873685 S    
C19   C43   1.380860 A    
N33   O1    1.300134 A    
C52   C67   1.543774 S    
C32   C38   1.390190 A    
C101  C102  1.527295 S    
C56   C80   1.534951 S    
C15   C47   1.365167 A    
C31   C37   1.385072 A    
C20   C44   1.379501 A    
C7    C39   1.381425 A    
C61   H37   1.110058 S    
C86   C94   1.346989 D    
C49   C61   1.563531 S    
C74   N34   1.458826 S    
C61   C78   1.546475 S    
C45   C72   1.437092 S    
C77   N37   1.454918 S    
C55   C72   1.541483 S    
C58   C66   1.547294 S    
C23   N23   1.329648 A    
C46   C71   1.443358 S    
C56   C71   1.540567 S    
C9    H9    1.080604 S    
C107  C108  1.525548 S    
N12   Ni5   1.867493 S    
C106  H79   1.110437 S    
C58   H34   1.111158 S    
