data_mof_unit_9414.cif
_audit_creation_date              2012-12-11T18:44:37-0500
_audit_creation_method            fapswitch 2.2
_symmetry_space_group_name_H-M    P1
_symmetry_Int_Tables_number       1
_space_group_crystal_system       triclinic
_cell_length_a                    8.20927
_cell_length_b                    14.375202
_cell_length_c                    18.780494
_cell_angle_alpha                 96.77978
_cell_angle_beta                  90.612516
_cell_angle_gamma                 91.945707
_cell_volume                      2199.27641614

loop_
_atom_site_label
_atom_site_type_symbol
_atom_type_description
_atom_site_fract_x
_atom_site_fract_y
_atom_site_fract_z
_atom_type_partial_charge
Ba1   Ba    Ba6+2 0.843240 0.541620 0.463500 1.684344
Ba2   Ba    Ba6+2 0.346570 0.458460 0.536510 1.674281
C1    C     C_3   0.624453 0.877073 0.271981 -0.330380
C2    C     C_3   0.605012 0.780974 0.297700 0.338420
C3    C     C_3   0.503866 0.308852 0.322010 0.318532
C4    C     C_3   0.489433 0.279191 0.241578 0.232730
C5    C     C_3   0.039783 0.204442 0.734397 0.218817
C6    C     C_3   0.082416 0.183657 0.810282 0.184331
C7    C     C_3   0.587355 0.215745 0.694883 0.397903
C8    C     C_3   0.567090 0.118424 0.718209 -0.275448
C9    C     C_R   0.006320 0.452297 0.052554 0.016889
C10   C     C_R   0.918859 0.406439 0.103137 0.033232
C11   C     C_R   0.765215 0.366607 0.085295 -0.051252
C12   C     C_3   0.091236 0.724801 0.257473 0.341905
C13   C     C_R   0.698634 0.370913 0.017908 -0.021934
C14   C     C_R   0.787106 0.411543 0.964035 0.025134
C15   C     C_R   0.941637 0.453431 0.981990 0.022623
C16   C     C_R   0.723270 0.409433 0.893396 -0.021056
C17   C     C_R   0.816574 0.447662 0.838184 -0.072210
C18   C     C_R   0.970746 0.493734 0.858179 0.020639
C19   C     C_R   0.030747 0.496827 0.930387 0.007660
C20   C     C_R   0.766906 0.441207 0.764023 -0.043929
C21   C     C_R   0.871705 0.476679 0.713252 -0.265927
C22   C     C_R   0.016356 0.528872 0.732529 0.064629
C23   C     C_3   0.078994 0.747676 0.180631 -0.338319
C24   C     C_R   0.065972 0.537677 0.806740 -0.016498
C25   C     C_R   0.157973 0.496382 0.072720 -0.003688
C26   C     C_R   0.218814 0.497623 0.144196 -0.002251
C27   C     C_R   0.126513 0.453192 0.195228 -0.029120
C28   C     C_R   0.982387 0.403073 0.171963 0.003438
C29   C     C_R   0.209709 0.588589 0.831318 -0.025543
C30   C     C_R   0.269397 0.589947 0.901816 0.067536
C31   C     C_R   0.181713 0.542731 0.951368 0.050272
C32   C     C_R   0.245645 0.541888 0.022138 0.031433
C33   C     C_R   0.419185 0.635795 0.922979 -0.056605
C34   C     C_3   0.253897 0.765665 0.662542 0.239088
C35   C     C_R   0.483353 0.633328 0.992012 -0.081374
C36   C     C_R   0.397421 0.586845 0.042253 0.031037
C37   C     C_R   0.370495 0.543897 0.164557 -0.040122
C38   C     C_R   0.459884 0.586287 0.112397 -0.116673
C39   C     C_R   0.424932 0.548017 0.236960 0.002204
C40   C     C_R   0.325713 0.510370 0.287561 -0.307396
C41   C     C_R   0.178558 0.462172 0.268188 0.046538
C42   C     C_R   0.692331 0.945990 0.546242 0.387439
C43   C     C_R   0.509302 0.803960 0.502642 0.026603
C44   C     C_R   0.370185 0.768409 0.463325 -0.298367
C45   C     C_3   0.334468 0.810825 0.732652 -0.260873
C46   C     C_R   0.269743 0.826942 0.429907 0.067580
C47   C     C_R   0.316743 0.920800 0.429378 -0.089546
C48   C     C_R   0.460662 0.957774 0.465065 -0.030417
C49   C     C_R   0.555876 0.901400 0.505840 -0.055451
C50   C     C_R   0.645763 0.093179 0.497873 -0.071708
C51   C     C_R   0.744594 0.037680 0.536504 -0.025257
C52   C     C_R   0.688518 0.189390 0.498597 0.029899
C53   C     C_R   0.826770 0.228027 0.536806 -0.278926
C54   C     C_R   0.932987 0.170820 0.567958 -0.049961
C55   C     C_R   0.893265 0.076368 0.567361 -0.101488
C56   C     C_3   0.014935 0.249696 0.388257 0.330494
C57   C     C_R   0.505335 0.052077 0.462097 -0.047361
C58   C     C_3   0.010078 0.143196 0.373268 -0.338889
C59   C     C_3   0.706356 0.669263 0.671845 0.296075
C60   C     C_3   0.710479 0.690664 0.753958 -0.213013
H1    H     H_    0.672643 0.782702 0.349389 0.082725
H2    H     H_    0.372955 0.757244 0.765608 0.087423
H3    H     H_    0.442475 0.855087 0.721451 0.149839
H4    H     H_    0.246835 0.855165 0.764533 0.171515
H5    H     H_    0.895131 0.273539 0.406960 -0.022049
H6    H     H_    0.109051 0.271488 0.430168 0.062717
H7    H     H_    0.910264 0.119124 0.334344 0.136883
H8    H     H_    0.989213 0.111186 0.423332 0.047276
H9    H     H_    0.128060 0.119086 0.350775 0.160310
H10   H     H_    0.830949 0.665209 0.651579 0.060770
H11   H     H_    0.640732 0.600611 0.657625 0.025221
H12   H     H_    0.755268 0.894079 0.263523 0.154125
H13   H     H_    0.792526 0.643719 0.778076 -0.050454
H14   H     H_    0.588116 0.675305 0.774219 0.033845
H15   H     H_    0.473473 0.766643 0.306249 -0.066532
H16   H     H_    0.576311 0.931197 0.312661 0.077471
H17   H     H_    0.382127 0.327926 0.342917 0.014587
H18   H     H_    0.588704 0.371099 0.330915 -0.004504
H19   H     H_    0.457052 0.339920 0.213576 -0.029782
H20   H     H_    0.607876 0.253024 0.221183 0.067943
H21   H     H_    0.555912 0.877994 0.220775 0.133593
H22   H     H_    0.120585 0.688088 0.143179 0.063931
H23   H     H_    0.991964 0.276325 0.737515 0.023395
H24   H     H_    0.945231 0.151791 0.711700 0.040277
H25   H     H_    0.176560 0.235981 0.833549 0.080084
H26   H     H_    0.719185 0.234946 0.694793 -0.116149
H27   H     H_    0.537015 0.213455 0.639606 0.069401
H28   H     H_    0.607788 0.119070 0.774782 0.211192
H29   H     H_    0.642059 0.069223 0.684136 0.107227
H30   H     H_    0.014819 0.660660 0.262108 0.091898
H31   H     H_    0.437783 0.093477 0.712380 0.165576
H32   H     H_    0.694291 0.333363 0.124033 0.061476
H33   H     H_    0.576746 0.340617 0.009080 0.107974
H34   H     H_    0.833899 0.469510 0.657500 0.054343
H35   H     H_    0.914275 0.362975 0.207400 0.095504
H36   H     H_    0.281195 0.624714 0.795225 0.078582
H37   H     H_    0.487922 0.673242 0.886022 0.077563
H38   H     H_    0.599892 0.668646 0.006283 0.077538
H39   H     H_    0.576978 0.620838 0.126020 0.107910
H40   H     H_    0.220319 0.711207 0.269406 -0.069402
H41   H     H_    0.366353 0.515870 0.342922 0.072656
H42   H     H_    0.334219 0.695098 0.462116 0.058909
H43   H     H_    0.239608 0.965291 0.401899 0.067196
H44   H     H_    0.980180 0.033970 0.591287 0.186896
H45   H     H_    0.857976 0.301950 0.537934 0.064567
H46   H     H_    0.428652 0.092780 0.431351 0.109154
H47   H     H_    0.950651 0.761182 0.166965 0.148435
H48   H     H_    0.156766 0.810757 0.174107 0.133484
H49   H     H_    0.338939 0.722136 0.629516 -0.037211
O1    O     O_2   0.887710 0.436190 0.327560 -0.477629
O2    O     O_3   0.627121 0.740201 0.641907 -0.603306
O3    O     O_3   0.035271 0.800691 0.303628 -0.603341
O4    O     O_2   0.301980 0.563840 0.672490 -0.480440
O5    O     O_3   0.054330 0.556590 0.583490 -0.502355
O6    O     O_3   0.555270 0.390630 0.635330 -0.485002
O7    O     O_3   0.114703 0.713527 0.678756 -0.629890
O8    O     O_3   0.637720 0.384870 0.467990 -0.478681
O9    O     O_3   0.145220 0.339960 0.601250 -0.462842
O10   O     O_2   0.268500 0.174070 0.560279 -0.472712
O11   O     O_3   0.180322 0.198787 0.692501 -0.588599
O12   O     O_3   0.135370 0.443490 0.416520 -0.505221
O13   O     O_3   0.551980 0.615210 0.532020 -0.496582
O14   O     O_2   0.394410 0.269100 0.474240 -0.468418
O15   O     O_3   0.564272 0.234480 0.355285 -0.630701
O16   O     O_2   0.423107 0.455330 0.754268 -0.440593
O17   O     O_3   0.502712 0.279633 0.741890 -0.548897
O18   O     O_3   0.634420 0.609440 0.364670 -0.491065
O19   O     O_2   0.765084 0.541879 0.241953 -0.503921
O20   O     O_3   0.050435 0.286792 0.324640 -0.595215
O21   O     O_3   0.668220 0.713371 0.246117 -0.603342
O22   O     O_2   0.795290 0.730930 0.525800 -0.408187
O23   O     O_3   0.044470 0.660110 0.398750 -0.497220
O24   O     O_2   0.929018 0.829154 0.433813 -0.444814
P1    P     P_3+3 0.061800 0.409390 0.339760 0.987852
P2    P     P_3+3 0.622760 0.718740 0.547830 1.046912
P3    P     P_3+3 0.070400 0.780055 0.392372 0.981798
P4    P     P_3+3 0.127890 0.590690 0.660240 0.967139
P5    P     P_3+3 0.129510 0.219486 0.605201 0.992427
P6    P     P_3+3 0.622846 0.601992 0.271262 0.930060
P7    P     P_3+3 0.574495 0.267474 0.447913 0.946396
P8    P     P_3+3 0.564255 0.393242 0.726847 1.008222
C61   C     C_2   0.765552 0.789652 0.780238 0.982139
O25   O     O_2   0.901347 0.818635 0.765793 -0.522155
O26   O     O_R   0.663093 0.847353 0.823253 -0.773210
H50   H     H_    0.713403 0.912370 0.837513 0.348553
Cl1   Cl    Cl    0.336202 0.188685 0.222078 -0.641284
Cl2   Cl    Cl    0.908335 0.195704 0.865773 -0.671502
C62   C     C_2   0.143811 0.086235 0.810432 0.944531
O27   O     O_2   0.059542 0.018357 0.784975 -0.534132
O28   O     O_R   0.296448 0.073653 0.840734 -0.757958
H51   H     H_    0.324739 0.005263 0.837903 0.321745
C63   C     C_2   0.562681 0.360779 0.881299 0.884706
O29   O     O_2   0.438890 0.405642 0.884991 -0.622712
O30   O     O_R   0.552769 0.263241 0.878934 -0.674489
H52   H     H_    0.436511 0.238002 0.880004 0.343946
Cl3   Cl    Cl    0.778757 0.904958 0.622738 -0.627728
C64   C     C_2   0.198458 0.841138 0.619369 0.897598
O31   O     O_2   0.238680 0.923620 0.635810 -0.590243
O32   O     O_R   0.096623 0.817025 0.560312 -0.684997
H53   H     H_    0.084999 0.746636 0.547735 0.279309

loop_
_geom_bond_atom_site_label_1
_geom_bond_atom_site_label_2
_ccdc_geom_bond_type
O24   P3    D    
C53   C54   A    
O22   P2    D    
O7    P4    S    
C4    H20   S    
C42   Cl3   S    
C39   C40   A    
C17   C18   A    
C40   H41   S    
O32   H53   S    
C5    C6    S    
C37   C39   A    
Ba2   O12   S    
C54   C55   A    
C10   C11   A    
C2    H1    S    
C26   C27   A    
C35   C36   A    
Ba2   P4    S    
O10   P5    D    
O30   H52   S    
C33   C35   A    
C22   C24   A    
C16   C17   A    
Ba1   O18   S    
C7    H26   S    
C13   H33   S    
C3    C4    S    
C54   P5    S    
C33   H37   S    
C12   H40   S    
C5    H24   S    
O18   P6    S    
C43   C49   A    
C56   C58   S    
C13   C14   A    
C21   H34   S    
C34   C45   S    
Ba1   Ba2   S    
Ba1   O8    S    
C29   H36   S    
O19   P6    D    
C1    H12   S    
C34   C64   S    
C38   H39   S    
Ba2   O5    S    
C42   C51   A    
C64   O31   D    
C14   C15   A    
C20   P8    S    
C23   H22   S    
C21   C22   A    
C64   O32   S    
O9    P5    S    
Ba1   O5    S    
C58   H8    S    
C3    H17   S    
Ba1   P1    S    
C34   O7    S    
C7    C8    S    
O14   P7    D    
C45   H4    S    
C63   O30   S    
C16   C63   S    
C23   H47   S    
O5    P4    S    
C10   C28   A    
C55   H44   S    
C24   C29   A    
C25   C32   A    
C4    H19   S    
C27   C41   A    
C60   H14   S    
C59   C60   S    
O1    P1    D    
Ba1   O22   S    
Ba2   O6    S    
C50   C52   A    
C48   C49   A    
C22   P4    S    
C44   C46   A    
C7    O17   S    
C30   C33   A    
O13   P2    S    
C17   C20   A    
C61   O26   S    
O20   P1    S    
C7    H27   S    
C45   H2    S    
C51   C55   A    
C47   H43   S    
C26   C37   A    
C59   H11   S    
C43   C44   A    
C44   H42   S    
O15   P7    S    
C15   C19   A    
C53   H45   S    
C3    O15   S    
C6    C62   S    
Ba1   O12   S    
C39   P6    S    
C27   C28   A    
C50   C57   A    
C4    Cl1   S    
Ba2   O4    S    
C29   C30   A    
C28   H35   S    
C9    C25   A    
C56   O20   S    
Ba2   O8    S    
C8    H31   S    
C34   H49   S    
C43   P2    S    
C31   C32   A    
O16   P8    D    
O28   H51   S    
C3    H18   S    
C12   H30   S    
C63   O29   D    
C23   H48   S    
C59   H10   S    
C56   H6    S    
C46   C47   A    
C52   P7    S    
O4    P4    D    
C8    H29   S    
C11   C13   A    
C59   O2    S    
O2    P2    S    
C60   H13   S    
C40   C41   A    
C48   C57   A    
C5    O11   S    
C1    C2    S    
C37   C38   A    
Ba1   P2    S    
C50   C51   A    
C42   C49   A    
O26   H50   S    
O21   P6    S    
C52   C53   A    
C9    C15   A    
Ba2   O9    S    
O6    P8    S    
C32   C36   A    
C1    H21   S    
C60   C61   S    
C61   O25   D    
O23   P3    S    
C9    C10   A    
Ba2   O13   S    
O12   P1    S    
C57   H46   S    
C58   H9    S    
C46   P3    S    
C11   H32   S    
C6    H25   S    
C30   C31   A    
C6    Cl2   S    
Ba1   O13   S    
O11   P5    S    
C2    H15   S    
Ba1   O1    S    
C12   O3    S    
C36   C38   A    
C2    O21   S    
C5    H23   S    
C18   C24   A    
C58   H7    S    
C62   O28   S    
O3    P3    S    
C12   C23   S    
C41   P1    S    
O17   P8    S    
Ba2   O14   S    
C56   H5    S    
C19   C31   A    
C18   C19   A    
C8    H28   S    
C14   C16   A    
C47   C48   A    
C25   C26   A    
O8    P7    S    
C20   C21   A    
C1    H16   S    
C45   H3    S    
C35   H38   S    
Ba1   O23   S    
C62   O27   D    
