data_mof_unit_6739.cif
_audit_creation_date              2012-12-11T14:58:23-0500
_audit_creation_method            fapswitch 2.2
_symmetry_space_group_name_H-M    P1
_symmetry_Int_Tables_number       1
_space_group_crystal_system       triclinic
_cell_length_a                    11.055696
_cell_length_b                    11.00913
_cell_length_c                    18.726348
_cell_angle_alpha                 90.191909
_cell_angle_beta                  90.470513
_cell_angle_gamma                 58.930111
_cell_volume                      1952.19928886

loop_
_atom_site_label
_atom_site_type_symbol
_atom_type_description
_atom_site_fract_x
_atom_site_fract_y
_atom_site_fract_z
_atom_type_partial_charge
C1    C     C_R   0.357833 0.774136 0.398317 0.527295
C2    C     C_R   0.613055 0.095549 0.171810 0.079101
C3    C     C_R   0.371893 0.334729 0.159487 0.005732
C4    C     C_R   0.510302 0.263953 0.269012 -0.164834
C5    C     C_R   0.501475 0.240171 0.197129 -0.026746
C6    C     C_R   0.088141 0.727617 0.284651 -0.024584
C7    C     C_R   0.962828 0.834542 0.315089 -0.111852
C8    C     C_R   0.580179 0.989068 0.166857 0.212483
C9    C     C_R   0.671102 0.862754 0.130448 -0.025160
C10   C     C_R   0.266486 0.456500 0.194070 0.325212
C11   C     C_R   0.272049 0.471562 0.267727 -0.036354
C12   C     C_R   0.416970 0.379681 0.382657 0.536657
C13   C     C_R   0.887112 0.799506 0.361350 -0.105451
C14   C     C_R   0.936337 0.657423 0.376928 -0.102366
C15   C     C_R   0.061628 0.550244 0.346561 -0.040922
C16   C     C_R   0.141081 0.584894 0.301936 0.113685
C17   C     C_R   0.395488 0.371757 0.305893 -0.084110
C18   C     C_R   0.912192 0.328611 0.308900 -0.119512
C19   C     C_R   0.957140 0.312625 0.238865 -0.130876
C20   C     C_R   0.859734 0.346830 0.183039 0.078715
C21   C     C_R   0.716067 0.409494 0.196425 -0.062441
C22   C     C_R   0.671575 0.425154 0.266552 -0.125937
C23   C     C_R   0.718058 0.413551 0.394623 0.524788
C24   C     C_R   0.769187 0.383853 0.322536 0.039697
C25   C     C_R   0.470362 0.753740 0.284022 -0.117391
C26   C     C_R   0.456245 0.764011 0.210305 -0.103991
C27   C     C_R   0.328602 0.867542 0.181058 0.103554
C28   C     C_R   0.215222 0.956378 0.226131 -0.119557
C29   C     C_R   0.224102 0.933715 0.298936 -0.164816
C30   C     C_R   0.351044 0.828166 0.327541 0.028156
C31   C     C_R   0.490765 0.280996 0.723869 0.292964
C32   C     C_R   0.469566 0.267189 0.795688 0.252766
C33   C     C_R   0.331184 0.344083 0.823190 -0.043778
C34   C     C_R   0.345975 0.764763 0.605710 0.540265
C35   C     C_R   0.221139 0.448434 0.781838 -0.180176
C36   C     C_R   0.243372 0.463386 0.710400 0.289392
C37   C     C_R   0.377826 0.374437 0.680376 0.006169
C38   C     C_R   0.885752 0.413172 0.710242 -0.132205
C39   C     C_R   0.918643 0.394339 0.781733 -0.168348
C40   C     C_R   0.922112 0.282941 0.819509 0.016220
C41   C     C_R   0.909605 0.178174 0.780883 0.239324
C42   C     C_R   0.879996 0.196885 0.707674 -0.023578
C43   C     C_R   0.853550 0.321636 0.674261 -0.020961
C44   C     C_R   0.219374 0.799199 0.718062 -0.110584
C45   C     C_R   0.405946 0.379668 0.604950 0.619421
C46   C     C_R   0.215840 0.806853 0.791585 -0.095612
C47   C     C_R   0.312464 0.830304 0.828035 0.022514
C48   C     C_R   0.422875 0.829578 0.790877 -0.126466
C49   C     C_R   0.429208 0.817280 0.717357 -0.129892
C50   C     C_R   0.325924 0.804584 0.680370 0.011320
C51   C     C_R   0.910819 0.317719 0.111389 0.546293
C52   C     C_R   0.331108 0.294596 0.091999 0.587964
C53   C     C_R   0.306824 0.898333 0.105292 0.556477
C54   C     C_R   0.947442 0.280089 0.896869 0.560108
C55   C     C_R   0.300252 0.294010 0.888563 0.570310
C56   C     C_R   0.771855 0.372119 0.607890 0.563926
C57   C     C_R   0.278153 0.890919 0.899044 0.544766
C58   C     C_R   0.804612 0.832274 0.110218 0.342603
C59   C     C_R   0.849669 0.924529 0.129593 -0.083394
C60   C     C_R   0.755455 0.054126 0.163269 0.160681
Cr1   Cr    Cr6+3 0.601770 0.606860 0.505860 1.009904
Cr2   Cr    Cr6+3 0.291380 0.601660 0.495070 1.063619
Cr3   Cr    Cr6+3 0.606880 0.291510 0.499120 1.049977
Cr4   Cr    Cr6+3 0.062440 0.063090 0.008210 1.043780
Cr5   Cr    Cr6+3 0.062880 0.375170 0.998920 1.137056
Cr6   Cr    Cr6+3 0.374700 0.061720 0.992470 1.059482
H1    H     H_    0.606199 0.190169 0.297790 0.182250
H2    H     H_    0.790094 0.882371 0.384876 0.124465
H3    H     H_    0.877768 0.630626 0.412873 0.153144
H4    H     H_    0.098491 0.440472 0.358778 0.109626
H5    H     H_    0.987702 0.299384 0.352245 0.119990
H6    H     H_    0.067801 0.271616 0.228068 0.115224
H7    H     H_    0.640369 0.439565 0.153056 0.113636
H8    H     H_    0.560292 0.474508 0.277297 0.082045
H9    H     H_    0.572224 0.680504 0.307107 0.134368
H10   H     H_    0.543928 0.694539 0.176940 0.091181
H11   H     H_    0.118366 0.040819 0.204016 0.118652
H12   H     H_    0.640267 0.787272 0.117735 0.141194
H13   H     H_    0.132101 0.994565 0.332118 0.122859
H14   H     H_    0.116229 0.512244 0.803450 0.157414
H15   H     H_    0.874866 0.506677 0.684890 0.192503
H16   H     H_    0.933928 0.472864 0.808195 0.152183
H17   H     H_    0.867258 0.119166 0.678442 0.207699
H18   H     H_    0.140138 0.785786 0.691063 0.209279
H19   H     H_    0.924291 0.944517 0.302941 0.129746
H20   H     H_    0.132358 0.803014 0.819358 0.190874
H21   H     H_    0.500294 0.845833 0.818042 0.156086
H22   H     H_    0.515091 0.816859 0.689673 0.153055
H23   H     H_    0.958264 0.893981 0.120158 0.169807
H24   H     H_    0.143819 0.755087 0.247110 0.133902
O1    O     O_R   0.748800 0.497470 0.428000 -0.531291
O2    O     O_R   0.300070 0.471040 0.567100 -0.432236
O3    O     O_R   0.491670 0.258900 0.574910 -0.448975
O4    O     O_R   0.718780 0.304180 0.577850 -0.475976
O5    O     O_3   0.500010 0.500010 0.500020 -0.326141
O6    O     O_R   0.186690 0.923650 0.086970 -0.539254
O7    O     O_R   0.957250 0.194250 0.084630 -0.504613
O8    O     O_R   0.934970 0.407490 0.085330 -0.445554
O9    O     O_R   0.203780 0.365190 0.067090 -0.399853
O10   O     O_R   0.417600 0.174890 0.067840 -0.516085
O11   O     O_R   0.375320 0.946260 0.070860 -0.469017
O12   O     O_R   0.476420 0.724060 0.429470 -0.519127
O13   O     O_R   0.160600 0.919630 0.926660 -0.496076
O14   O     O_R   0.933060 0.190520 0.936020 -0.492985
O15   O     O_R   0.908880 0.403460 0.925020 -0.510532
O16   O     O_R   0.179600 0.361450 0.918490 -0.534329
O17   O     O_R   0.391510 0.170860 0.907530 -0.453052
O18   O     O_R   0.351130 0.942530 0.922260 -0.517904
O19   O     O_3   0.166667 0.166667 0.999870 -0.305410
O20   O     O_R   0.264580 0.744340 0.416750 -0.517205
O21   O     O_R   0.309380 0.472470 0.418200 -0.495032
O22   O     O_R   0.501710 0.260430 0.414300 -0.520270
O23   O     O_R   0.728090 0.305600 0.428960 -0.510798
O24   O     O_R   0.738760 0.495930 0.588610 -0.513656
O25   O     O_R   0.467110 0.722640 0.578360 -0.500169
O26   O     O_R   0.254530 0.742800 0.577360 -0.504553
F1    F     F_    0.621024 0.199190 0.695750 -0.654707
O27   O     O_3   0.581047 0.174961 0.839237 -0.664857
H25   H     H_    0.660588 0.106200 0.809315 0.379771
F2    F     F_    0.131219 0.558229 0.670395 -0.630142
O28   O     O_3   0.922566 0.059002 0.811799 -0.706637
H26   H     H_    0.861336 0.089150 0.854148 0.366988
F3    F     F_    0.893121 0.709366 0.075964 -0.572604
O29   O     O_3   0.803834 0.132042 0.195546 -0.723965
H27   H     H_    0.907988 0.076201 0.195416 0.317355
O30   O     O_3   0.456030 0.010927 0.194043 -0.705561
H28   H     H_    0.428446 0.073717 0.236307 0.321610
F4    F     F_    0.148619 0.553143 0.157761 -0.588826

loop_
_geom_bond_atom_site_label_1
_geom_bond_atom_site_label_2
_ccdc_geom_bond_type
C33   C55   S    
Cr4   O13   S    
C51   O7    A    
O30   H28   S    
C21   H7    S    
C41   C42   A    
C35   C36   A    
Cr6   O11   S    
Cr6   O17   S    
C45   O3    A    
C56   O4    A    
Cr3   O4    S    
C58   F3    S    
C18   C24   A    
C54   O14   A    
C28   C29   A    
Cr5   O8    S    
C18   C19   A    
C20   C51   S    
C38   C39   A    
C2    C60   A    
C47   C57   S    
C41   O28   S    
C15   C16   A    
Cr3   O5    S    
C35   H14   S    
C18   H5    S    
C9    C58   A    
C59   H23   S    
Cr6   O10   S    
Cr3   O22   S    
C60   O29   S    
C45   O2    A    
O27   H25   S    
C31   F1    S    
C11   C17   A    
Cr2   O21   S    
C19   C20   A    
C53   O11   A    
C8    C9    A    
Cr2   O2    S    
C12   C17   S    
Cr1   O25   S    
C26   H10   S    
C23   C24   S    
C27   C28   A    
C51   O8    A    
C59   C60   A    
C21   C22   A    
C53   O6    A    
C49   H22   S    
C19   H6    S    
C10   F4    S    
Cr5   O15   S    
C44   C46   A    
C57   O13   A    
C34   C50   S    
C55   O16   A    
Cr5   O9    S    
Cr2   O5    S    
Cr6   O18   S    
C39   C40   A    
C3    C5    A    
C34   O25   A    
C6    H24   S    
C52   O10   A    
C31   C37   A    
C55   O17   A    
C25   H9    S    
Cr2   O26   S    
C29   C30   A    
C1    O20   A    
C23   O23   A    
C11   C16   S    
C47   C48   A    
C29   H13   S    
Cr1   O5    S    
C26   C27   A    
C48   H21   S    
C28   H11   S    
Cr5   O19   S    
O28   H26   S    
C4    C17   A    
C8    O30   S    
Cr4   O7    S    
C40   C54   S    
C38   H15   S    
C14   H3    S    
C22   C24   A    
C58   C59   A    
C2    C5    S    
C42   C43   A    
C22   H8    S    
C37   C45   S    
Cr5   O16   S    
C12   O22   A    
C44   C50   A    
C25   C30   A    
Cr4   O14   S    
C15   H4    S    
C46   C47   A    
C40   C41   A    
C54   O15   A    
C31   C32   A    
C2    C8    A    
C42   H17   S    
C39   H16   S    
C32   O27   S    
C4    C5    A    
C44   H18   S    
C4    H1    S    
C3    C52   S    
C27   C53   S    
C6    C7    A    
Cr3   O3    S    
C52   O9    A    
C32   C33   A    
Cr1   O12   S    
C25   C26   A    
C38   C43   A    
C3    C10   A    
Cr4   O19   S    
C7    H19   S    
Cr2   O20   S    
C48   C49   A    
C1    C30   S    
C33   C35   A    
Cr4   O6    S    
C23   O1    A    
C9    H12   S    
Cr6   O19   S    
C36   F2    S    
C10   C11   A    
C6    C16   A    
Cr3   O23   S    
C43   C56   S    
C7    C13   A    
C57   O18   A    
C20   C21   A    
C36   C37   A    
C49   C50   A    
Cr1   O24   S    
C56   O24   A    
C14   C15   A    
C13   C14   A    
C34   O26   A    
C1    O12   A    
C12   O21   A    
Cr1   O1    S    
O29   H27   S    
C46   H20   S    
C13   H2    S    
