data_mof_unit_61006.cif
_audit_creation_date              2012-12-10T18:47:34-0500
_audit_creation_method            fapswitch 2.2
_symmetry_space_group_name_H-M    P1
_symmetry_Int_Tables_number       1
_space_group_crystal_system       triclinic
_cell_length_a                    19.464588
_cell_length_b                    18.263015
_cell_length_c                    11.695133
_cell_angle_alpha                 89.679084
_cell_angle_beta                  90.566569
_cell_angle_gamma                 89.911852
_cell_volume                      4157.13625231

loop_
_atom_site_label
_atom_site_type_symbol
_atom_type_description
_atom_site_fract_x
_atom_site_fract_y
_atom_site_fract_z
_atom_type_partial_charge
C1    C     C_R   0.367975 0.500047 0.501908 0.946796
C2    C     C_R   0.632305 0.499942 0.500165 0.903462
C3    C     C_R   0.072796 0.492932 0.509041 -0.285436
C4    C     C_R   0.928355 0.491744 0.508093 -0.283583
C5    C     C_R   0.536171 0.722048 0.418753 0.210467
C6    C     C_R   0.543567 0.275418 0.569458 0.233101
C7    C     C_R   0.461824 0.721457 0.578713 0.205350
C8    C     C_R   0.456522 0.280450 0.425357 0.205078
C9    C     C_R   0.536812 0.799471 0.418490 0.474998
C10   C     C_R   0.538933 0.198316 0.572155 0.520518
C11   C     C_R   0.459419 0.798959 0.576850 0.479383
C12   C     C_R   0.456270 0.202916 0.419342 0.493636
C13   C     C_R   0.497755 0.838985 0.497160 -0.039814
C14   C     C_R   0.496509 0.160820 0.495092 -0.066886
C15   C     C_R   0.558899 0.961564 0.494798 0.549955
C16   C     C_R   0.434325 0.038309 0.493784 0.545225
C17   C     C_R   0.434657 0.961182 0.493554 0.545310
C18   C     C_R   0.558542 0.038490 0.490941 0.546288
C19   C     C_R   0.496298 0.078253 0.492333 -0.231522
C20   C     C_R   0.496998 0.921549 0.495473 -0.236248
C21   C     C_R   0.499839 0.500144 0.283941 0.823165
C22   C     C_R   0.500011 0.499836 0.716068 0.820914
C23   C     C_1   0.499837 0.500328 0.162329 -0.189548
C24   C     C_1   0.499998 0.499584 0.837692 -0.167526
C25   C     C_1   0.499888 0.500166 0.059876 0.010361
C26   C     C_1   0.499954 0.499795 0.940152 0.014472
C27   C     C_R   0.743412 0.443226 0.441282 0.039774
C28   C     C_R   0.254496 0.544412 0.429886 0.034858
C29   C     C_R   0.258940 0.455029 0.586226 0.037464
C30   C     C_R   0.745507 0.552959 0.560257 0.038559
C31   C     C_R   0.815143 0.439338 0.448914 0.594446
C32   C     C_R   0.182666 0.542377 0.432304 0.608320
C33   C     C_R   0.187053 0.452112 0.585521 0.602848
C34   C     C_R   0.817399 0.550440 0.561729 0.602378
C35   C     C_R   0.852489 0.493595 0.506830 -0.064762
C36   C     C_R   0.148621 0.495553 0.508705 -0.069131
C37   C     C_R   0.708010 0.499390 0.499339 -0.266644
C38   C     C_R   0.292822 0.499912 0.506062 -0.271405
C39   C     C_R   0.965098 0.498577 0.611590 0.567906
C40   C     C_R   0.036064 0.483007 0.406203 0.566491
C41   C     C_R   0.036631 0.501410 0.611645 0.571449
C42   C     C_R   0.964532 0.484627 0.405254 0.570025
Cu1   Cu    Cu3+1 0.500000 0.573360 0.500000 0.989518
Cu2   Cu    Cu3+1 0.500000 0.426640 0.500000 0.975750
N1    N     N_R   0.500000 0.683620 0.500000 -0.243415
N2    N     N_R   0.500000 0.316380 0.500000 -0.263962
O1    O     O_R   0.400190 0.561980 0.499980 -0.558649
O2    O     O_R   0.599810 0.438020 0.500020 -0.565912
O3    O     O_R   0.599810 0.561980 0.500020 -0.547091
O4    O     O_R   0.400190 0.438020 0.499980 -0.553591
O5    O     O_R   0.500010 0.561950 0.337200 -0.547010
O6    O     O_R   0.499990 0.438050 0.662800 -0.593410
O7    O     O_R   0.499990 0.561950 0.662800 -0.547206
O8    O     O_R   0.500010 0.438050 0.337200 -0.565044
N3    N     N_2   0.706965 0.390448 0.375013 -0.389072
H1    H     H_    0.729658 0.339404 0.373043 0.307326
C43   C     C_3   0.686486 0.415936 0.262375 -0.524342
H2    H     H_    0.732590 0.426350 0.209416 0.256202
H3    H     H_    0.655654 0.466990 0.268056 0.195057
H4    H     H_    0.654396 0.373592 0.220044 0.222043
N4    N     N_2   0.288206 0.588914 0.347401 -0.415555
H5    H     H_    0.269005 0.582094 0.265633 0.297992
C44   C     C_3   0.293221 0.665458 0.377645 -0.476854
H6    H     H_    0.241565 0.691429 0.376235 0.268395
H7    H     H_    0.326374 0.694220 0.315135 0.211472
H8    H     H_    0.316451 0.671733 0.464013 0.220659
N5    N     N_2   0.296708 0.419350 0.675494 -0.410484
H9    H     H_    0.278332 0.431635 0.755583 0.297905
C45   C     C_3   0.306177 0.341400 0.661289 -0.499723
H10   H     H_    0.255878 0.312794 0.658309 0.268412
H11   H     H_    0.336781 0.319293 0.734340 0.220478
H12   H     H_    0.334798 0.330198 0.582178 0.226676
N6    N     N_2   0.710888 0.606530 0.626411 -0.410042
H13   H     H_    0.726122 0.606422 0.711138 0.289657
C46   C     C_3   0.710648 0.679479 0.577669 -0.449741
H14   H     H_    0.696202 0.677749 0.485919 0.211309
H15   H     H_    0.672619 0.713824 0.623026 0.212102
H16   H     H_    0.762168 0.704985 0.586608 0.271188
F1    F     F_    0.848494 0.382492 0.399325 -0.587001
F2    F     F_    0.146138 0.587377 0.361415 -0.588202
F3    F     F_    0.154828 0.406267 0.659466 -0.586989
F4    F     F_    0.852999 0.604186 0.615983 -0.590783
F5    F     F_    0.931761 0.502406 0.712853 -0.524851
F6    F     F_    0.069450 0.471646 0.306412 -0.526763
F7    F     F_    0.070405 0.514068 0.711739 -0.521961
F8    F     F_    0.930694 0.480791 0.303349 -0.525629
N7    N     N_2   0.573206 0.684203 0.333201 -0.357240
H17   H     H_    0.624874 0.696236 0.334461 0.262764
C47   C     C_3   0.544861 0.691523 0.218503 -0.542542
H18   H     H_    0.554412 0.747124 0.183402 0.264319
H19   H     H_    0.488630 0.680942 0.217889 0.222116
H20   H     H_    0.569924 0.651184 0.161731 0.207752
N8    N     N_2   0.595178 0.308495 0.639420 -0.395182
H21   H     H_    0.588975 0.360302 0.669857 0.287097
C48   C     C_3   0.666007 0.287310 0.620672 -0.445741
H22   H     H_    0.697686 0.336705 0.604720 0.190451
H23   H     H_    0.671238 0.250179 0.546193 0.246210
H24   H     H_    0.686341 0.259306 0.698375 0.264517
N9    N     N_2   0.421928 0.682680 0.660020 -0.355913
H25   H     H_    0.369997 0.692585 0.650954 0.265446
C49   C     C_3   0.444689 0.690053 0.777793 -0.533270
H26   H     H_    0.432102 0.745189 0.811133 0.265291
H27   H     H_    0.501004 0.680811 0.785589 0.221020
H28   H     H_    0.418137 0.648693 0.831356 0.208965
N10   N     N_2   0.415953 0.321384 0.345886 -0.366341
H29   H     H_    0.437761 0.325028 0.266047 0.267043
C50   C     C_3   0.342800 0.306280 0.341386 -0.485242
H30   H     H_    0.314005 0.358526 0.348353 0.206350
H31   H     H_    0.326422 0.269130 0.411515 0.236687
H32   H     H_    0.328996 0.280317 0.258595 0.251872
F9    F     F_    0.573629 0.835913 0.338238 -0.598434
F10   F     F_    0.576206 0.160188 0.651388 -0.579711
F11   F     F_    0.420743 0.834977 0.654567 -0.595976
F12   F     F_    0.418520 0.169125 0.336849 -0.588274
F13   F     F_    0.620270 0.926205 0.500073 -0.534630
F14   F     F_    0.373116 0.073874 0.497905 -0.536440
F15   F     F_    0.373671 0.925273 0.489764 -0.532319
F16   F     F_    0.619564 0.074128 0.484465 -0.539993

loop_
_geom_bond_atom_site_label_1
_geom_bond_atom_site_label_2
_ccdc_geom_bond_type
C9    F9    S    
C15   C18   A    
N3    H1    S    
C44   H7    S    
N8    H21   S    
C50   H31   S    
N6    H13   S    
C40   F6    S    
C48   H22   S    
Cu1   Cu2   S    
C8    N10   S    
C33   C36   A    
C48   H24   S    
C39   C41   A    
C7    C11   A    
N10   C50   S    
C49   H26   S    
C7    N9    S    
C7    N1    A    
C24   C26   T    
C18   C19   A    
C21   O8    A    
C27   N3    S    
C43   H3    S    
C29   C33   A    
C17   C20   A    
N4    C44   S    
C34   C35   A    
C45   H11   S    
C9    C13   A    
C29   N5    S    
Cu1   O7    S    
C16   C17   A    
C29   C38   A    
C50   H30   S    
C10   F10   S    
C42   F8    S    
C47   H19   S    
Cu1   O1    S    
C1    O4    A    
C18   F16   S    
C17   F15   S    
C28   N4    S    
Cu2   O6    S    
C40   C42   A    
C44   H8    S    
C49   H27   S    
N6    C46   S    
C45   H10   S    
C16   F14   S    
Cu2   N2    S    
C22   O7    A    
C12   F12   S    
C15   C20   A    
C30   C34   A    
C27   C31   A    
N5    H9    S    
C28   C32   A    
C10   C14   A    
C30   N6    S    
C1    O1    A    
C43   H4    S    
C2    O2    A    
C25   C26   S    
C5    N1    A    
C30   C37   A    
N5    C45   S    
C45   H12   S    
C46   H14   S    
C5    C9    A    
C2    O3    A    
C32   F2    S    
C46   H15   S    
N9    H25   S    
C4    C39   A    
C28   C38   A    
C8    C12   A    
C6    N8    S    
C47   H20   S    
Cu1   N1    S    
C1    C38   S    
N9    C49   S    
C12   C14   A    
C3    C40   A    
C49   H28   S    
C21   C23   S    
C50   H32   S    
C15   F13   S    
C32   C36   A    
C21   O5    A    
C22   O6    A    
Cu2   O4    S    
C3    C41   A    
C6    N2    A    
C13   C20   S    
C14   C19   S    
Cu1   O3    S    
C6    C10   A    
C48   H23   S    
C31   F1    S    
C41   F7    S    
N10   H29   S    
N3    C43   S    
C39   F5    S    
C11   C13   A    
C2    C37   S    
Cu1   O5    S    
C43   H2    S    
C4    C42   A    
C3    C36   S    
C27   C37   A    
C16   C19   A    
C31   C35   A    
C22   C24   S    
C23   C25   T    
N4    H5    S    
C11   F11   S    
C46   H16   S    
C8    N2    A    
C4    C35   S    
C44   H6    S    
C5    N7    S    
Cu2   O8    S    
N7    H17   S    
N8    C48   S    
N7    C47   S    
C34   F4    S    
C47   H18   S    
C33   F3    S    
Cu2   O2    S    
