data_mof_unit_55867.cif
_audit_creation_date              2012-12-10T17:54:18-0500
_audit_creation_method            fapswitch 2.2
_symmetry_space_group_name_H-M    P1
_symmetry_Int_Tables_number       1
_space_group_crystal_system       triclinic
_cell_length_a                    27.586471
_cell_length_b                    10.634537
_cell_length_c                    9.907573
_cell_angle_alpha                 88.006657
_cell_angle_beta                  89.421732
_cell_angle_gamma                 90.777002
_cell_volume                      2904.38996132

loop_
_atom_site_label
_atom_site_type_symbol
_atom_type_description
_atom_site_fract_x
_atom_site_fract_y
_atom_site_fract_z
_atom_type_partial_charge
C1    C     C_R   0.503729 0.260639 0.502909 0.997043
C2    C     C_R   0.281356 0.558690 0.636034 -0.165685
C3    C     C_R   0.253113 0.542046 0.521945 0.309477
C4    C     C_R   0.103066 0.544539 0.588386 -0.095908
C5    C     C_R   0.128549 0.430735 0.594515 -0.061867
C6    C     C_R   0.104680 0.319810 0.638050 -0.172498
C7    C     C_R   0.128529 0.660175 0.569651 -0.089167
C8    C     C_R   0.353414 0.516350 0.505679 -0.043361
C9    C     C_R   0.647591 0.505307 0.499185 -0.129531
C10   C     C_R   0.976305 0.420055 0.606496 0.075055
C11   C     C_R   0.975437 0.650545 0.573932 -0.004816
C12   C     C_R   0.406027 0.502881 0.500901 0.914301
C13   C     C_R   0.950527 0.533283 0.582785 0.076345
C14   C     C_R   0.951078 0.304620 0.596131 -0.135828
C15   C     C_R   0.901245 0.300225 0.581376 -0.090385
C16   C     C_R   0.875139 0.411239 0.566668 -0.022464
C17   C     C_R   0.899718 0.528532 0.562253 -0.103477
C18   C     C_R   0.873674 0.640215 0.534311 -0.140216
C19   C     C_R   0.822951 0.630801 0.520913 0.611953
C20   C     C_R   0.824936 0.407250 0.551127 0.592454
C21   C     C_R   0.727249 0.478797 0.396036 0.450614
C22   C     C_R   0.676606 0.475657 0.385244 0.107104
C23   C     C_R   0.498496 0.739274 0.497404 0.878072
C24   C     C_R   0.670284 0.536633 0.620164 -0.142850
C25   C     C_R   0.720270 0.538647 0.629486 -0.115497
C26   C     C_R   0.748727 0.509981 0.518259 0.166418
C27   C     C_R   0.027224 0.425122 0.623576 -0.008495
C28   C     C_R   0.052059 0.541785 0.601195 -0.002331
C29   C     C_R   0.026339 0.655472 0.593167 0.008122
C30   C     C_R   0.055033 0.318838 0.662599 0.337821
C31   C     C_R   0.103257 0.773645 0.588305 0.164644
C32   C     C_R   0.949511 0.757939 0.531869 -0.230348
C33   C     C_R   0.899555 0.755243 0.516602 0.437291
C34   C     C_R   0.594208 0.502115 0.498926 0.923148
C35   C     C_R   0.052648 0.769876 0.608669 0.135064
C36   C     C_R   0.594762 0.113846 0.545998 0.269164
C37   C     C_R   0.637293 0.048559 0.519668 -0.190199
C38   C     C_R   0.634959 0.926487 0.474264 0.401155
C39   C     C_R   0.590119 0.866412 0.464014 -0.256926
C40   C     C_R   0.546832 0.932142 0.487874 0.006938
C41   C     C_R   0.548825 0.060615 0.514733 -0.039987
C42   C     C_R   0.504472 0.127099 0.512118 -0.145582
C43   C     C_R   0.459490 0.064844 0.506543 0.321425
C44   C     C_R   0.458212 0.936127 0.500700 -0.242223
C45   C     C_R   0.178155 0.432087 0.566847 0.550805
C46   C     C_R   0.501372 0.871549 0.490579 -0.096350
C47   C     C_R   0.437219 0.333727 0.146416 -0.275568
C48   C     C_R   0.407298 0.249408 0.079402 0.173833
C49   C     C_R   0.406988 0.251779 0.938947 0.173897
C50   C     C_R   0.437745 0.335257 0.866476 -0.264719
C51   C     C_R   0.469089 0.418890 0.931200 0.137794
C52   C     C_R   0.468926 0.418792 0.075677 0.143769
C53   C     C_R   0.529686 0.577334 0.067812 -0.111930
C54   C     C_R   0.529679 0.577274 0.924666 -0.069128
C55   C     C_R   0.178803 0.656227 0.542090 0.519340
C56   C     C_R   0.274830 0.514364 0.397441 0.268143
C57   C     C_R   0.325298 0.503202 0.389756 -0.288322
C58   C     C_R   0.331072 0.545474 0.628387 -0.236330
H1    H     H_    0.351923 0.557545 0.719202 0.174721
H2    H     H_    0.967797 0.845168 0.503007 0.203115
H3    H     H_    0.649360 0.560380 0.708577 0.184710
H4    H     H_    0.737116 0.563364 0.723394 0.178655
H5    H     H_    0.672252 0.090429 0.541369 0.226414
H6    H     H_    0.264401 0.578747 0.731864 0.143830
H7    H     H_    0.589441 0.768874 0.436576 0.158729
H8    H     H_    0.423630 0.886241 0.502651 0.174490
H9    H     H_    0.553939 0.640509 0.118605 0.147663
H10   H     H_    0.434476 0.328860 0.253469 0.245859
H11   H     H_    0.436340 0.330890 0.759673 0.241638
H12   H     H_    0.553958 0.640414 0.867834 0.149123
H13   H     H_    0.124965 0.235391 0.661272 0.204862
H14   H     H_    0.883460 0.208988 0.577062 0.227026
H15   H     H_    0.969421 0.216058 0.591758 0.201466
H16   H     H_    0.342324 0.483332 0.293986 0.158585
N1    N     N_R   0.201738 0.543327 0.537991 -0.342152
N2    N     N_R   0.800183 0.515979 0.529864 -0.353000
N3    N     N_R   0.499540 0.498800 0.142780 -0.111168
N4    N     N_R   0.499520 0.498720 0.857170 -0.107362
O1    O     O_R   0.500000 0.316780 0.614690 -0.582069
O2    O     O_2   0.800820 0.295820 0.557706 -0.493542
O3    O     O_2   0.204895 0.762933 0.518701 -0.576658
O4    O     O_2   0.796126 0.734409 0.499797 -0.400704
O5    O     O_R   0.500000 0.316750 0.385360 -0.641049
O6    O     O_R   0.428760 0.500030 0.614650 -0.648662
O7    O     O_R   0.428750 0.500010 0.385320 -0.633297
O8    O     O_R   0.500000 0.683250 0.614640 -0.616136
O9    O     O_R   0.500000 0.683220 0.385310 -0.619477
O10   O     O_R   0.571250 0.499990 0.614680 -0.576354
O11   O     O_R   0.571240 0.499970 0.385350 -0.642787
O12   O     O_2   0.202929 0.323369 0.569895 -0.562318
Zn1   Zn    Zn3+2 0.500000 0.500020 0.653130 0.985854
Zn2   Zn    Zn3+2 0.500000 0.499980 0.346870 0.946650
N5    N     N_2   0.245979 0.492044 0.282338 -0.303050
H17   H     H_    0.260077 0.424949 0.220861 0.225562
C59   C     C_3   0.232902 0.604678 0.206083 -0.758066
H18   H     H_    0.209396 0.579013 0.120689 0.238422
H19   H     H_    0.265963 0.653747 0.164818 0.238149
H20   H     H_    0.212447 0.669177 0.270443 0.275440
N6    N     N_2   0.127933 0.891528 0.596999 -0.300827
H21   H     H_    0.145510 0.927131 0.511413 0.275048
C60   C     C_3   0.149382 0.919192 0.725673 -0.652962
H22   H     H_    0.189509 0.922305 0.715928 0.263549
H23   H     H_    0.138918 0.847622 0.805616 0.224116
H24   H     H_    0.136835 0.012395 0.757469 0.246867
Cl1   Cl    Cl    0.873056 0.899925 0.467413 -0.475657
N7    N     N_2   0.029089 0.877634 0.659035 -0.319292
H25   H     H_    0.044676 0.963625 0.632397 0.282553
C61   C     C_3   0.014639 0.866069 0.799833 -0.622620
H26   H     H_    0.991813 0.947007 0.825773 0.284393
H27   H     H_    0.047163 0.864950 0.865022 0.237126
H28   H     H_    0.992838 0.778766 0.820204 0.236315
Cl2   Cl    Cl    0.404019 0.145407 0.510949 -0.738899
Cl3   Cl    Cl    0.601339 0.239158 0.654376 -0.611084
Cl4   Cl    Cl    0.688359 0.844668 0.441962 -0.515713
N8    N     N_2   0.380181 0.154973 0.153191 -0.279407
H29   H     H_    0.400244 0.108132 0.225792 0.266213
C62   C     C_3   0.334019 0.195385 0.205005 -0.671775
H30   H     H_    0.313105 0.112278 0.245559 0.262093
H31   H     H_    0.312584 0.241956 0.123833 0.221055
H32   H     H_    0.339672 0.260958 0.288117 0.249585
N9    N     N_2   0.377329 0.164987 0.870250 -0.283962
H33   H     H_    0.396762 0.111893 0.804078 0.267853
C63   C     C_3   0.335034 0.220038 0.807955 -0.643579
H34   H     H_    0.346005 0.286815 0.724151 0.254959
H35   H     H_    0.313256 0.270436 0.883269 0.221094
H36   H     H_    0.312034 0.144517 0.766297 0.262619
N10   N     N_2   0.656349 0.443149 0.259378 -0.268853
H37   H     H_    0.632564 0.506868 0.217425 0.251895
C64   C     C_3   0.642015 0.312469 0.249647 -0.608008
H38   H     H_    0.611020 0.289194 0.318694 0.223499
H39   H     H_    0.672872 0.250289 0.275416 0.265972
H40   H     H_    0.630845 0.294597 0.144624 0.243250
Cl5   Cl    Cl    0.764042 0.446618 0.254932 -0.509204
Cl6   Cl    Cl    0.032983 0.196885 0.772766 -0.680520

loop_
_geom_bond_atom_site_label_1
_geom_bond_atom_site_label_2
_ccdc_geom_bond_type
C10   C27   A    
C21   C26   A    
N3    Zn2   S    
N5    H17   S    
C41   C42   A    
C44   H8    S    
C59   H18   S    
C7    C55   A    
C59   H20   S    
C63   H34   S    
C53   C54   A    
C61   H26   S    
C40   C46   A    
O5    Zn2   S    
C12   O6    A    
C24   H3    S    
C12   O7    A    
C19   N2    A    
C50   H11   S    
O8    Zn1   S    
C62   H31   S    
C5    C6    A    
C38   Cl4   S    
C9    C22   A    
C63   H35   S    
N7    H25   S    
N8    H29   S    
C56   C57   A    
C20   N2    A    
C18   C19   A    
N5    C59   S    
C37   H5    S    
O7    Zn2   S    
N6    H21   S    
C44   C46   A    
C16   C17   A    
N8    C62   S    
C23   O8    A    
C26   N2    S    
N10   H37   S    
O6    Zn1   S    
C31   N6    S    
C55   O3    S    
C19   O4    S    
C3    N1    S    
O1    Zn1   S    
C8    C12   S    
C64   H40   S    
C55   N1    A    
C60   H23   S    
C23   C46   S    
C23   O9    A    
C21   C22   A    
C27   C30   A    
C39   H7    S    
C36   C41   A    
C56   N5    S    
C4    C7    A    
C36   Cl3   S    
C21   Cl5   S    
C4    C28   A    
C60   H22   S    
C2    H6    S    
C17   C18   A    
C6    H13   S    
C7    C31   A    
C20   O2    S    
C51   C52   A    
C14   H15   S    
C33   Cl1   S    
C24   C25   A    
C10   C14   A    
C62   H32   S    
C39   C40   A    
C63   H36   S    
C30   Cl6   S    
C58   H1    S    
C5    C45   A    
C57   H16   S    
C53   N3    A    
C43   C44   A    
N10   C64   S    
C37   C38   A    
C15   H14   S    
C8    C57   A    
C3    C56   A    
C47   C48   A    
C54   H12   S    
O10   Zn1   S    
C16   C20   A    
C49   N9    S    
C2    C58   A    
C50   C51   A    
C34   O10   A    
O11   Zn2   S    
C45   O12   S    
N9    H33   S    
C48   N8    S    
C40   C41   A    
N6    C60   S    
C11   C32   A    
C60   H24   S    
C9    C34   S    
C1    O1    A    
C31   C35   A    
C42   C43   A    
C32   H2    S    
C52   N3    A    
C47   H10   S    
N9    C63   S    
C64   H38   S    
C28   C29   A    
C8    C58   A    
C6    C30   A    
C4    C5    A    
C10   C13   A    
C59   H19   S    
C9    C24   A    
C47   C52   A    
N4    Zn1   S    
C1    O5    A    
C29   C35   A    
C61   H28   S    
C13   C17   A    
C45   N1    A    
C32   C33   A    
C2    C3    A    
C25   C26   A    
C51   N4    A    
C35   N7    S    
C62   H30   S    
C11   C13   A    
C22   N10   S    
C38   C39   A    
N7    C61   S    
C48   C49   A    
C61   H27   S    
C25   H4    S    
C53   H9    S    
C18   C33   A    
C34   O11   A    
C1    C42   S    
C11   C29   A    
C36   C37   A    
C49   C50   A    
C43   Cl2   S    
C27   C28   A    
C14   C15   A    
C64   H39   S    
O9    Zn2   S    
C15   C16   A    
C54   N4    A    
