data_mof_unit_5705.cif
_audit_creation_date              2013-03-05T16:13:43-0500
_audit_creation_method            fapswitch 2.2
_symmetry_space_group_name_H-M    P1
_symmetry_Int_Tables_number       1
_space_group_crystal_system       triclinic
_cell_length_a                    10.796331
_cell_length_b                    9.904643
_cell_length_c                    8.912767
_cell_angle_alpha                 90.071149
_cell_angle_beta                  91.465859
_cell_angle_gamma                 90.56379
_cell_volume                      952.716994659

loop_
_atom_site_label
_atom_site_type_symbol
_atom_site_description
_atom_site_fract_x
_atom_site_fract_y
_atom_site_fract_z
_atom_type_partial_charge
O1    O     O_R   0.316770 0.614620 0.499990 -0.596595
O2    O     O_R   0.683230 0.385380 0.500010 -0.596138
O3    O     O_R   0.683230 0.614620 0.500010 -0.599189
O4    O     O_R   0.316770 0.385380 0.499990 -0.598952
C1    C     C_R   0.260499 0.499300 0.512757 0.872500
C2    C     C_R   0.739501 0.500699 0.487238 0.872591
O5    O     O_R   0.500010 0.614640 0.285340 -0.584249
O6    O     O_R   0.499990 0.385360 0.714660 -0.584278
O7    O     O_R   0.499990 0.614640 0.714660 -0.582654
O8    O     O_R   0.500010 0.385360 0.285340 -0.582738
C3    C     C_R   0.499608 0.499940 0.218798 0.922877
C4    C     C_R   0.500393 0.500059 0.781202 0.922935
Zn1   Zn    Zn3+2 0.500000 0.653120 0.500000 1.072011
Zn2   Zn    Zn3+2 0.500000 0.346880 0.500000 1.072139
C5    C     C_1   0.499861 0.499917 0.065408 -0.064535
C6    C     C_1   0.500141 0.500081 0.934592 -0.064567
C7    C     C_R   0.060703 0.375067 0.509033 -0.061149
C8    C     C_R   0.939295 0.624931 0.490946 -0.061201
C9    C     C_R   0.936152 0.378082 0.469602 -0.054888
C10   C     C_R   0.063845 0.621917 0.530378 -0.055005
C11   C     C_R   0.873067 0.501966 0.474775 -0.149729
C12   C     C_R   0.126931 0.498032 0.525209 -0.149725
C13   C     C_R   0.558277 0.072693 0.613381 0.223759
C14   C     C_R   0.441694 0.927302 0.386647 0.223910
C15   C     C_R   0.442548 0.070992 0.385921 0.219622
C16   C     C_R   0.557439 0.929002 0.614086 0.219521
N1    N     N_R   0.500000 0.857200 0.500000 -0.221193
N2    N     N_R   0.500000 0.142800 0.500000 -0.221065
C17   C     C_1   0.115682 0.245238 0.544707 0.331121
N3    N     N_1   0.158929 0.141892 0.574200 -0.131107
C18   C     C_1   0.884316 0.754756 0.455259 0.331182
N4    N     N_1   0.841068 0.858099 0.425752 -0.131114
C19   C     C_1   0.877010 0.254964 0.412798 0.310755
N5    N     N_1   0.829959 0.157436 0.366666 -0.127593
C20   C     C_1   0.122985 0.745034 0.587186 0.310823
N6    N     N_1   0.170034 0.842561 0.633325 -0.127506
N7    N     N_R   0.624156 0.144151 0.730066 0.256568
O9    O     O_R   0.578921 0.149143 0.863711 -0.280152
O10   O     O_R   0.739050 0.179291 0.711537 -0.368868
N8    N     N_R   0.375666 0.855835 0.270095 0.256572
O11   O     O_R   0.421150 0.850142 0.136606 -0.280264
O12   O     O_R   0.260394 0.821963 0.288304 -0.368891
N9    N     N_R   0.384535 0.140482 0.263055 0.257242
O13   O     O_R   0.273715 0.188349 0.275809 -0.367980
O14   O     O_R   0.433646 0.136736 0.131470 -0.276942
N10   N     N_R   0.615488 0.859496 0.736910 0.257246
O15   O     O_R   0.726548 0.812239 0.724346 -0.368130
O16   O     O_R   0.566113 0.862720 0.868359 -0.276977

loop_
_geom_bond_atom_site_label_1
_geom_bond_atom_site_label_2
_geom_bond_distance
_ccdc_geom_bond_type
N9    O13   1.298913 A    
N7    O9    1.299952 A    
C8    C11   1.411563 A    
C7    C17   1.453732 S    
C7    C12   1.411572 A    
O3    Zn1   2.018309 S    
C14   N1    1.369979 A    
O6    C4    1.280807 A    
O3    C2    1.293018 A    
C15   N9    1.428446 S    
N8    O12   1.299987 A    
C19   N5    1.157107 T    
N7    O10   1.299695 A    
C13   N2    1.370053 A    
C15   N2    1.371725 A    
O5    C3    1.280814 A    
N9    O14   1.300011 A    
C16   N1    1.371680 A    
O2    C2    1.294934 A    
O1    C1    1.294938 A    
N8    O11   1.300046 A    
C14   N8    1.427825 S    
C10   C12   1.410508 A    
C8    C10   1.381754 A    
O4    Zn2   2.018310 S    
O2    Zn2   2.010940 S    
O7    C4    1.281155 A    
N10   O16   1.299986 A    
O1    Zn1   2.010941 S    
O8    C3    1.281149 A    
C16   N10   1.428413 S    
C17   N3    1.157012 T    
C5    C6    1.166013 T    
C4    C6    1.367201 S    
O5    Zn1   1.950346 S    
C14   C15   1.423168 A    
O8    Zn2   1.951274 S    
C13   C16   1.423172 A    
O7    Zn1   1.951274 S    
N10   O15   1.298884 A    
C7    C9    1.381754 A    
O6    Zn2   1.950346 S    
C8    C18   1.453730 S    
Zn2   N2    2.021340 S    
C13   N7    1.427866 S    
C2    C11   1.449060 S    
C3    C5    1.367202 S    
C10   C20   1.455213 S    
Zn1   N1    2.021340 S    
C1    C12   1.449063 S    
C18   N4    1.157012 T    
C9    C19   1.455217 S    
O4    C1    1.293015 A    
C9    C11   1.410508 A    
C20   N6    1.157106 T    
