data_mof_unit_5255.cif
_audit_creation_date              2012-12-11T15:48:33-0500
_audit_creation_method            fapswitch 2.2
_symmetry_space_group_name_H-M    P1
_symmetry_Int_Tables_number       1
_space_group_crystal_system       triclinic
_cell_length_a                    11.047043
_cell_length_b                    10.982571
_cell_length_c                    18.772936
_cell_angle_alpha                 90.688033
_cell_angle_beta                  90.53341
_cell_angle_gamma                 60.973046
_cell_volume                      1991.37683068

loop_
_atom_site_label
_atom_site_type_symbol
_atom_type_description
_atom_site_fract_x
_atom_site_fract_y
_atom_site_fract_z
_atom_type_partial_charge
C1    C     C_R   0.239450 0.646479 0.610411 0.572118
C2    C     C_3   0.743961 0.510675 0.797158 0.018218
C3    C     C_3   0.695772 0.667585 0.815172 0.037404
C4    C     C_3   0.667724 0.636843 0.679302 -0.011928
C5    C     C_3   0.782268 0.677015 0.691478 -0.286808
C6    C     C_3   0.701531 0.500156 0.720059 0.078955
C7    C     C_R   0.681346 0.148524 0.821665 -0.016574
C8    C     C_R   0.780291 0.161822 0.782955 0.037373
C9    C     C_R   0.770138 0.172902 0.708840 0.009600
C10   C     C_R   0.572729 0.137067 0.709680 0.187837
C11   C     C_R   0.572075 0.146113 0.783143 -0.099272
C12   C     C_R   0.651052 0.616823 0.602861 0.566339
C13   C     C_3   0.930181 0.063862 0.779975 -0.214888
C14   C     C_3   0.918701 0.082197 0.699926 -0.224012
C15   C     C_R   0.668674 0.159224 0.670846 0.034790
C16   C     C_R   0.180891 0.670161 0.835631 -0.024712
C17   C     C_R   0.162694 0.573699 0.794850 0.012685
C18   C     C_R   0.167629 0.574056 0.720729 -0.058624
C19   C     C_R   0.201778 0.775595 0.726561 0.183588
C20   C     C_R   0.204839 0.768059 0.800538 -0.121496
C21   C     C_3   0.251871 0.419990 0.797450 -0.223942
C22   C     C_3   0.249892 0.419995 0.717081 -0.188571
C23   C     C_R   0.629172 0.223930 0.600923 0.595788
C24   C     C_R   0.191634 0.671206 0.684739 0.027768
C25   C     C_R   0.667415 0.679569 0.172777 0.033988
C26   C     C_R   0.774676 0.572546 0.210228 -0.013560
C27   C     C_R   0.776206 0.564871 0.282634 0.005055
C28   C     C_R   0.562745 0.781066 0.287945 -0.141317
C29   C     C_R   0.562567 0.789659 0.213111 0.119599
C30   C     C_3   0.842972 0.418964 0.199273 -0.270027
C31   C     C_3   0.845978 0.408898 0.279625 -0.239063
C32   C     C_R   0.664944 0.662413 0.322733 -0.011778
C33   C     C_R   0.656517 0.178251 0.171463 0.022614
C34   C     C_R   0.217721 0.651211 0.402585 0.528160
C35   C     C_R   0.528140 0.263446 0.201992 -0.000389
C36   C     C_R   0.517096 0.267074 0.274769 0.020985
C37   C     C_R   0.763014 0.139953 0.289197 -0.169015
C38   C     C_R   0.774955 0.133264 0.215410 -0.159225
C39   C     C_3   0.386283 0.282160 0.191496 -0.260450
C40   C     C_3   0.379702 0.273289 0.272123 -0.238628
C41   C     C_R   0.631992 0.197993 0.319600 0.024875
C42   C     C_R   0.046528 0.731252 0.196126 0.001741
C43   C     C_R   0.065147 0.830735 0.234050 -0.037436
C44   C     C_R   0.103646 0.812245 0.304468 0.056990
C45   C     C_R   0.642862 0.623207 0.393117 0.535366
C46   C     C_R   0.080813 0.605330 0.307417 -0.167677
C47   C     C_R   0.044740 0.622689 0.234504 -0.158817
C48   C     C_3   0.159588 0.887865 0.217048 -0.204337
C49   C     C_3   0.201202 0.869135 0.294127 0.052232
C50   C     C_R   0.126879 0.691511 0.340065 0.003344
C51   C     C_R   0.702315 0.098469 0.895136 0.532948
C52   C     C_R   0.720189 0.684856 0.890488 0.553250
C53   C     C_R   0.118714 0.706214 0.906258 0.544618
C54   C     C_R   0.675685 0.110467 0.102642 0.544902
C55   C     C_R   0.697834 0.691834 0.098431 0.553916
C56   C     C_R   0.613775 0.232651 0.394174 0.539577
C57   C     C_R   0.027435 0.746855 0.118891 0.555939
C58   C     C_3   0.539425 0.753272 0.792681 0.086282
C59   C     C_3   0.532655 0.751838 0.711089 -0.136690
C60   C     C_3   0.781879 0.716996 0.770296 -0.226077
Cr1   Cr    Cr6+3 0.392960 0.397920 0.502240 1.079658
Cr2   Cr    Cr6+3 0.398340 0.708480 0.501250 1.123243
Cr3   Cr    Cr6+3 0.708670 0.393570 0.496460 1.064152
Cr4   Cr    Cr6+3 0.937650 0.938540 0.007610 1.040438
Cr5   Cr    Cr6+3 0.625330 0.937370 0.994520 1.110588
Cr6   Cr    Cr6+3 0.937940 0.625230 0.001190 1.051060
H1    H     H_    0.786736 0.408329 0.693373 0.208804
H2    H     H_    0.889990 0.670858 0.789883 0.168403
H3    H     H_    0.884862 0.587762 0.677201 0.167929
H4    H     H_    0.488942 0.140830 0.809890 0.230100
H5    H     H_    0.951015 0.959119 0.796951 0.132414
H6    H     H_    0.993958 0.104059 0.806439 0.232483
H7    H     H_    0.966100 0.143705 0.679115 0.227136
H8    H     H_    0.941849 0.985723 0.669504 0.153973
H9    H     H_    0.484641 0.699792 0.814582 0.162123
H10   H     H_    0.213681 0.848102 0.830717 0.208441
H11   H     H_    0.200423 0.365700 0.821483 0.220874
H12   H     H_    0.354813 0.391506 0.820902 0.157406
H13   H     H_    0.352856 0.385418 0.693599 0.237010
H14   H     H_    0.189342 0.372915 0.693471 0.210889
H15   H     H_    0.478053 0.861719 0.317977 0.182815
H16   H     H_    0.947721 0.375862 0.175508 0.162050
H17   H     H_    0.773346 0.385288 0.173057 0.148031
H18   H     H_    0.778862 0.368340 0.299935 0.180835
H19   H     H_    0.451159 0.728374 0.695163 0.232156
H20   H     H_    0.952366 0.360144 0.302344 0.183139
H21   H     H_    0.854959 0.099400 0.322184 0.180418
H22   H     H_    0.877130 0.081785 0.193121 0.154193
H23   H     H_    0.383149 0.197449 0.161413 0.226422
H24   H     H_    0.313813 0.387558 0.170854 0.143907
H25   H     H_    0.300272 0.368924 0.297635 0.151524
H26   H     H_    0.384263 0.175154 0.290363 0.198838
H27   H     H_    0.086514 0.517202 0.335513 0.135552
H28   H     H_    0.027328 0.545511 0.207222 0.143896
H29   H     H_    0.105156 0.998050 0.199771 0.187973
H30   H     H_    0.509793 0.852001 0.688020 0.253660
H31   H     H_    0.245475 0.816018 0.181703 0.183125
H32   H     H_    0.311200 0.789596 0.301924 0.150609
H33   H     H_    0.736433 0.831989 0.775334 0.153435
H34   H     H_    0.764455 0.766495 0.657373 0.131979
H35   H     H_    0.694225 0.470921 0.834795 0.173452
O1    O     O_R   0.507380 0.255700 0.581440 -0.453057
O2    O     O_R   0.524480 0.695810 0.424040 -0.501509
O3    O     O_R   0.736390 0.504290 0.414790 -0.513451
O4    O     O_R   0.691300 0.277290 0.422170 -0.506975
O5    O     O_3   0.499990 0.499990 0.499980 -0.277168
O6    O     O_R   0.089400 0.825690 0.930570 -0.515862
O7    O     O_R   0.818460 0.054440 0.929850 -0.496272
O8    O     O_R   0.606060 0.077150 0.915510 -0.500315
O9    O     O_R   0.646550 0.806680 0.917570 -0.445986
O10   O     O_R   0.837170 0.593410 0.915250 -0.473470
O11   O     O_R   0.065200 0.635530 0.931570 -0.480893
O12   O     O_R   0.280320 0.527350 0.578930 -0.504463
O13   O     O_R   0.068260 0.828890 0.091840 -0.513287
O14   O     O_R   0.798870 0.057410 0.079340 -0.533914
O15   O     O_R   0.584930 0.080350 0.076780 -0.482390
O16   O     O_R   0.626960 0.809650 0.067060 -0.447211
O17   O     O_R   0.816040 0.596610 0.076510 -0.535863
O18   O     O_R   0.045610 0.638500 0.081060 -0.505996
O19   O     O_3   0.833640 0.833710 0.001100 -0.304113
O20   O     O_R   0.260510 0.739590 0.584590 -0.445958
O21   O     O_R   0.532300 0.695080 0.573820 -0.475476
O22   O     O_R   0.744840 0.503500 0.576370 -0.515411
O23   O     O_R   0.699120 0.276560 0.571960 -0.490539
O24   O     O_R   0.498940 0.256500 0.419860 -0.509277
O25   O     O_R   0.272500 0.528080 0.429150 -0.515971
O26   O     O_R   0.252060 0.740380 0.423010 -0.484988
Cl1   Cl    Cl    0.438541 0.930060 0.822556 -0.558066
Cl2   Cl    Cl    0.446184 0.103532 0.669723 -0.578165
Cl3   Cl    Cl    0.215417 0.918685 0.691800 -0.585801
Br1   Br    Br    0.410085 0.945488 0.169857 -0.572950
Br2   Br    Br    0.143772 0.043828 0.344826 -0.555183
Br3   Br    Br    0.943318 0.384121 0.806353 -0.579771
Cl4   Cl    Cl    0.553631 0.471763 0.721091 -0.758915

loop_
_geom_bond_atom_site_label_1
_geom_bond_atom_site_label_2
_ccdc_geom_bond_type
C44   C49   S    
C58   Cl1   S    
C8    C13   S    
C48   H29   S    
C32   C45   S    
C34   O26   A    
C35   C36   A    
C9    C14   S    
C60   H33   S    
Cr3   O23   S    
C11   H4    S    
C7    C8    A    
C29   Br1   S    
C7    C11   A    
C48   H31   S    
C12   O22   A    
C26   C27   A    
C18   C24   A    
C14   H8    S    
C28   C29   A    
C22   H13   S    
C10   C15   A    
Cr2   O26   S    
C23   O1    A    
C20   H10   S    
C30   H17   S    
C16   C53   S    
C5    H3    S    
C45   O2    A    
C49   H32   S    
Cr5   O19   S    
C19   C20   A    
C8    C9    A    
C54   O15   A    
C21   H12   S    
Cr1   O25   S    
C52   O9    A    
Cr6   O10   S    
Cr3   O4    S    
C43   C48   S    
C39   H24   S    
C34   O25   A    
C57   O18   A    
C3    C60   S    
C19   Cl3   S    
C15   C23   S    
C28   H15   S    
C51   O8    A    
C31   H20   S    
Cr6   O19   S    
C21   C22   S    
C37   C41   A    
C36   C41   A    
C2    C6    S    
C1    O12   A    
C42   C57   S    
C58   H9    S    
Cr4   O7    S    
C25   C29   A    
Cr5   O9    S    
C49   Br2   S    
C34   C50   S    
C2    Br3   S    
Cr4   O13   S    
C27   C31   S    
C14   H7    S    
C28   C32   A    
C52   O10   A    
C4    C6    S    
Cr6   O17   S    
C39   C40   S    
C16   C17   A    
C13   H5    S    
C2    H35   S    
C25   C26   A    
C17   C21   S    
C31   H18   S    
C38   H22   S    
C30   H16   S    
C35   C39   S    
C43   C44   A    
C59   H19   S    
C41   C56   S    
C37   C38   A    
C45   O3    A    
C53   O6    A    
C5    H34   S    
C36   C40   S    
C16   C20   A    
C54   O14   A    
C17   C18   A    
C56   O24   A    
C40   H26   S    
Cr3   O5    S    
Cr1   O5    S    
Cr5   O8    S    
C23   O23   A    
C53   O11   A    
C48   C49   S    
C51   O7    A    
Cr6   O18   S    
Cr1   O12   S    
Cr5   O15   S    
C4    C12   S    
C42   C43   A    
Cr2   O21   S    
Cr4   O6    S    
Cr2   O2    S    
C55   O16   A    
C44   C50   A    
C33   C54   S    
C46   C47   A    
C6    H1    S    
C5    C60   S    
C27   C32   A    
C18   C22   S    
C19   C24   A    
C37   H21   S    
C25   C55   S    
Cr3   O3    S    
Cr3   O22   S    
C3    C52   S    
C26   C30   S    
C57   O13   A    
Cr2   O5    S    
C13   H6    S    
C46   C50   A    
C33   C38   A    
Cr4   O19   S    
C2    C3    S    
C58   C59   S    
C10   Cl2   S    
C7    C51   S    
C6    Cl4   S    
C30   C31   S    
C46   H27   S    
C4    C59   S    
C33   C35   A    
C47   H28   S    
Cr1   O1    S    
C42   C47   A    
C40   H25   S    
C9    C15   A    
C1    O20   A    
C56   O4    A    
C10   C11   A    
C22   H14   S    
C3    C58   S    
C4    C5    S    
C12   O21   A    
C60   H2    S    
C1    C24   S    
C59   H30   S    
C21   H11   S    
Cr4   O14   S    
Cr5   O16   S    
Cr1   O24   S    
Cr6   O11   S    
C13   C14   S    
C39   H23   S    
Cr2   O20   S    
C55   O17   A    
