data_mof_unit_11485.cif
_audit_creation_date              2013-03-05T15:55:55-0500
_audit_creation_method            fapswitch 2.2
_symmetry_space_group_name_H-M    P1
_symmetry_Int_Tables_number       1
_space_group_crystal_system       triclinic
_cell_length_a                    21.619492
_cell_length_b                    7.178152
_cell_length_c                    14.837397
_cell_angle_alpha                 89.819797
_cell_angle_beta                  105.816317
_cell_angle_gamma                 89.888
_cell_volume                      2215.39058925

loop_
_atom_site_label
_atom_site_type_symbol
_atom_site_description
_atom_site_fract_x
_atom_site_fract_y
_atom_site_fract_z
_atom_type_partial_charge
O1    O     O_R   0.335860 0.638190 0.002110 -0.590664
O2    O     O_R   0.664140 0.361810 0.997890 -0.590628
O3    O     O_R   0.164140 0.138190 0.997890 -0.584423
O4    O     O_R   0.835860 0.861810 0.002110 -0.584392
O5    O     O_R   0.217530 0.305920 0.861960 -0.579865
O6    O     O_R   0.782470 0.694080 0.138040 -0.579866
O7    O     O_R   0.282470 0.805920 0.138040 -0.588888
O8    O     O_R   0.717530 0.194080 0.861960 -0.588850
C1    C     C_R   0.205527 0.477125 0.825992 1.009699
C2    C     C_R   0.794471 0.522869 0.174008 1.009747
C3    C     C_R   0.294609 0.976270 0.174043 1.010552
C4    C     C_R   0.705391 0.023727 0.825958 1.010552
O9    O     O_R   0.338690 0.308320 0.993240 -0.587093
O10   O     O_R   0.661310 0.691680 0.006760 -0.587119
O11   O     O_R   0.161310 0.808320 0.006760 -0.591828
O12   O     O_R   0.838690 0.191680 0.993240 -0.591870
O13   O     O_R   0.286170 0.140430 0.130100 -0.572819
O14   O     O_R   0.713830 0.859570 0.869900 -0.572818
O15   O     O_R   0.213830 0.640430 0.869900 -0.583882
O16   O     O_R   0.786170 0.359570 0.130100 -0.583941
C5    C     C_R   0.364986 0.477091 0.997795 0.935401
C6    C     C_R   0.635013 0.522909 0.002205 0.935427
C7    C     C_R   0.135025 0.977303 0.002246 0.932674
C8    C     C_R   0.864974 0.022697 0.997753 0.932614
O17   O     O_3   0.232630 0.472410 0.044750 -0.288329
O18   O     O_3   0.767370 0.527590 0.955250 -0.288322
O19   O     O_3   0.267370 0.972410 0.955250 -0.288051
O20   O     O_3   0.732630 0.027590 0.044750 -0.288057
V1    V     V_3+5 0.253220 0.196620 0.991700 1.237763
V2    V     V_3+5 0.746780 0.803380 0.008300 1.237759
V3    V     V_3+5 0.246780 0.696620 0.008300 1.225161
V4    V     V_3+5 0.753220 0.303380 0.991700 1.225139
C9    C     C_R   0.029351 0.826159 0.000002 -0.077497
C10   C     C_R   0.970649 0.173842 0.999995 -0.077484
C11   C     C_R   0.470334 0.326134 0.996861 -0.047647
C12   C     C_R   0.529666 0.673866 0.003139 -0.047600
H1    H     H_    0.050716 0.689679 0.999624 0.151539
H2    H     H_    0.949284 0.310322 0.000372 0.151492
H3    H     H_    0.448704 0.189675 0.994622 0.151515
H4    H     H_    0.551296 0.810326 0.005377 0.151506
C13   C     C_R   0.964345 0.837510 0.998223 -0.042903
C14   C     C_R   0.035654 0.162491 0.001773 -0.042821
C15   C     C_R   0.535305 0.337687 0.998529 -0.073143
C16   C     C_R   0.464695 0.662314 0.001472 -0.073179
H5    H     H_    0.937913 0.709058 0.996684 0.155012
H6    H     H_    0.062086 0.290943 0.003311 0.155009
H7    H     H_    0.561424 0.209272 0.997330 0.158947
H8    H     H_    0.438576 0.790729 0.002672 0.158909
C17   C     C_R   0.934002 0.011524 0.998244 -0.152627
C18   C     C_R   0.065997 0.988477 0.001753 -0.152617
C19   C     C_R   0.565977 0.511744 0.001677 -0.154545
C20   C     C_R   0.434023 0.488256 0.998324 -0.154549
C21   C     C_R   0.675581 0.017944 0.725000 -0.253827
C22   C     C_R   0.324405 0.982029 0.275005 -0.253915
C23   C     C_R   0.824289 0.512856 0.274855 -0.253694
C24   C     C_R   0.175685 0.487082 0.725152 -0.253621
C25   C     C_R   0.688113 0.027757 0.568544 -0.039751
C26   C     C_R   0.311850 0.971980 0.431449 -0.039721
C27   C     C_R   0.811559 0.483355 0.430627 -0.035026
C28   C     C_R   0.188379 0.516165 0.569346 -0.035016
C29   C     C_R   0.713851 0.048024 0.664514 -0.186225
C30   C     C_R   0.286124 0.951841 0.335468 -0.186176
C31   C     C_R   0.785655 0.476709 0.334167 -0.185712
C32   C     C_R   0.214302 0.523047 0.665796 -0.185768
C33   C     C_R   0.609353 0.981971 0.689081 0.275100
C34   C     C_R   0.390634 0.017966 0.310957 0.274995
C35   C     C_R   0.890825 0.542088 0.311854 0.274575
C36   C     C_R   0.109152 0.457744 0.688201 0.274722
C37   C     C_R   0.580687 0.994045 0.590422 -0.029115
C38   C     C_R   0.419283 0.005732 0.409615 -0.029078
C39   C     C_R   0.919329 0.517271 0.409950 -0.027663
C40   C     C_R   0.080620 0.482312 0.590096 -0.027680
C41   C     C_R   0.622117 0.991608 0.530475 0.038178
C42   C     C_R   0.377844 0.008095 0.469547 0.038097
C43   C     C_R   0.877864 0.512798 0.469844 0.034787
C44   C     C_R   0.122071 0.486660 0.530174 0.034812
C45   C     C_R   0.512785 0.009399 0.549223 0.074052
C46   C     C_R   0.487179 0.990307 0.450821 0.074121
C47   C     C_R   0.987116 0.496335 0.450611 0.074599
C48   C     C_R   0.012824 0.503128 0.549444 0.074497
C49   C     C_R   0.529723 0.943657 0.397408 -0.135346
C50   C     C_R   0.470232 0.055987 0.602633 -0.135414
C51   C     C_R   0.970540 0.542965 0.604242 -0.130971
C52   C     C_R   0.029384 0.456371 0.395809 -0.130810
C53   C     C_R   0.596337 0.952962 0.434221 -0.120750
C54   C     C_R   0.403618 0.046646 0.565812 -0.120832
C55   C     C_R   0.903886 0.538513 0.567196 -0.120665
C56   C     C_R   0.096038 0.460757 0.432840 -0.120555
H9    H     H_    0.235344 0.922041 0.307909 0.144216
H10   H     H_    0.764632 0.077825 0.692050 0.144189
H11   H     H_    0.265381 0.547205 0.694265 0.142485
H12   H     H_    0.734578 0.452553 0.305662 0.142474
H13   H     H_    0.720197 0.045329 0.524587 0.155381
H14   H     H_    0.279757 0.954330 0.475388 0.155480
H15   H     H_    0.779273 0.461139 0.473892 0.156486
H16   H     H_    0.220651 0.538230 0.526048 0.156461
H17   H     H_    0.511737 0.893942 0.326590 0.190242
H18   H     H_    0.488204 0.105708 0.673449 0.190342
H19   H     H_    0.988774 0.583528 0.676535 0.189040
H20   H     H_    0.011127 0.415781 0.323518 0.188893
C57   C     C_2   0.636768 0.909022 0.370290 1.000070
O21   O     O_2   0.686950 0.821519 0.398733 -0.642672
O22   O     O_R   0.615621 0.960791 0.275853 -0.775333
H21   H     H_    0.646443 0.920684 0.238831 0.320429
C58   C     C_2   0.363180 0.090493 0.629746 1.000054
O23   O     O_2   0.312990 0.177964 0.601314 -0.642669
O24   O     O_R   0.384330 0.038675 0.724176 -0.775336
H22   H     H_    0.353504 0.078725 0.761203 0.320456
C59   C     C_2   0.863744 0.573540 0.632532 1.000313
O25   O     O_2   0.814485 0.666356 0.607530 -0.638578
O26   O     O_R   0.884171 0.506834 0.724618 -0.775973
H23   H     H_    0.853602 0.541522 0.762994 0.321290
C60   C     C_2   0.136168 0.425501 0.367512 1.000362
O27   O     O_2   0.185409 0.332614 0.392548 -0.638637
O28   O     O_R   0.115750 0.492067 0.275401 -0.775953
H24   H     H_    0.146308 0.457216 0.237033 0.321260
N1    N     N_R   0.425815 0.090306 0.248978 0.220459
O29   O     O_R   0.458490 0.243723 0.269897 -0.384080
O30   O     O_R   0.424782 0.005251 0.171226 -0.438491
N2    N     N_R   0.574195 0.909769 0.751116 0.220406
O31   O     O_R   0.575188 0.995094 0.828785 -0.438546
O32   O     O_R   0.541590 0.756196 0.730344 -0.384076
N3    N     N_R   0.073474 0.378328 0.747825 0.219254
O33   O     O_R   0.075147 0.453654 0.828142 -0.438875
O34   O     O_R   0.039892 0.227799 0.722287 -0.382314
N4    N     N_R   0.926547 0.621614 0.252312 0.219319
O35   O     O_R   0.960260 0.771838 0.278052 -0.382331
O36   O     O_R   0.924811 0.546656 0.171892 -0.438798

loop_
_geom_bond_atom_site_label_1
_geom_bond_atom_site_label_2
_geom_bond_distance
_ccdc_geom_bond_type
O17   V3    1.750120 S    
C51   C55   1.395788 A    
C26   C30   1.388587 A    
N4    O35   1.301468 A    
O19   V1    1.752148 S    
O13   V1    2.020706 S    
C37   C45   1.432007 A    
O26   H23   1.014080 S    
C10   C14   1.400627 A    
C40   C44   1.424350 A    
O15   V3    2.023839 S    
C39   C47   1.432116 A    
C53   C57   1.488660 S    
N3    O33   1.301712 A    
C45   C46   1.420515 A    
C29   H10   1.083941 S    
O1    C5    1.325695 A    
C58   O24   1.399046 S    
C57   O21   1.223015 D    
O9    V1    2.010158 S    
N1    O30   1.301747 A    
C47   C52   1.408542 A    
O4    C8    1.326147 A    
N3    O34   1.301504 A    
C38   C46   1.431958 A    
O28   H24   1.014077 S    
C30   H9    1.083965 S    
O1    V3    1.996699 S    
O2    V4    1.996696 S    
C14   H6    1.082743 S    
C25   C41   1.408957 A    
C56   C60   1.488410 S    
O3    V1    1.998156 S    
O3    C7    1.326144 A    
C38   C42   1.424048 A    
C21   C29   1.393137 A    
C1    O15   1.331404 A    
C2    O16   1.331376 A    
C34   N1    1.440002 S    
C23   C31   1.392679 A    
C31   H12   1.083943 S    
O2    C6    1.325697 A    
O24   H22   1.014112 S    
C24   C32   1.392657 A    
C37   C41   1.424090 A    
O14   V2    2.020707 S    
C21   C33   1.409674 A    
C44   C56   1.412817 A    
C4    C21   1.461224 S    
C36   C40   1.427926 A    
C16   C20   1.410550 A    
O11   C7    1.332209 A    
C57   O22   1.399048 S    
C25   H13   1.081133 S    
C50   H18   1.078307 S    
C27   H15   1.081105 S    
O10   V2    2.010154 S    
C48   C51   1.408579 A    
C36   N3    1.439815 S    
C13   C17   1.409781 A    
N2    O32   1.301471 A    
O7    C3    1.333568 A    
O5    V1    2.023617 S    
O7    V3    2.029472 S    
C52   H20   1.078327 S    
C12   H4    1.082945 S    
C35   N4    1.439869 S    
O18   V4    1.750121 S    
C7    C18   1.492376 S    
C22   C30   1.393161 A    
C9    C18   1.406599 A    
C50   C54   1.395972 A    
C28   C44   1.409061 A    
C9    H1    1.082967 S    
O8    V4    2.029472 S    
C11   H3    1.082944 S    
O5    C1    1.334749 A    
O8    C4    1.333583 A    
O9    C5    1.333299 A    
C1    C24   1.460463 S    
C42   C54   1.412953 A    
C25   C29   1.388575 A    
C2    C23   1.460486 S    
C3    C22   1.461233 S    
C41   C53   1.412949 A    
C12   C19   1.406016 A    
C14   C18   1.409781 A    
C55   C59   1.488441 S    
C28   H16   1.081086 S    
C43   C55   1.412833 A    
O6    V2    2.023616 S    
C12   C16   1.400731 A    
C54   C58   1.488670 S    
C27   C43   1.409037 A    
C11   C20   1.406015 A    
C11   C15   1.400731 A    
N2    O31   1.301768 A    
C26   C42   1.408936 A    
C60   O27   1.223097 D    
O16   V4    2.023838 S    
C8    C17   1.492375 S    
C3    O13   1.332824 A    
C10   C17   1.406601 A    
N4    O36   1.301695 A    
C10   H2    1.082969 S    
C52   C56   1.395757 A    
O6    C2    1.334786 A    
C23   C35   1.409268 A    
O11   V3    2.007213 S    
C22   C34   1.409690 A    
O12   V4    2.007217 S    
C58   O23   1.223015 D    
C27   C31   1.388484 A    
C28   C32   1.388463 A    
C9    C13   1.400628 A    
O10   C6    1.333299 A    
C59   O26   1.399013 S    
C26   H14   1.081146 S    
C40   C48   1.432186 A    
C24   C36   1.409247 A    
N1    O29   1.301460 A    
C39   C43   1.424293 A    
C46   C49   1.408545 A    
C15   C19   1.410548 A    
C34   C38   1.427889 A    
C49   H17   1.078340 S    
C45   C50   1.408566 A    
C33   C37   1.427905 A    
O20   V2    1.752147 S    
C33   N2    1.439957 S    
C35   C39   1.427920 A    
O4    V2    1.998158 S    
C47   C48   1.420542 A    
O12   C8    1.332207 A    
C4    O14   1.332801 A    
O22   H21   1.014111 S    
C13   H5    1.082742 S    
C51   H19   1.078262 S    
C32   H11   1.083922 S    
C59   O25   1.223095 D    
C15   H7    1.082776 S    
C5    C20   1.492723 S    
C49   C53   1.395946 A    
C16   H8    1.082777 S    
C6    C19   1.492723 S    
C60   O28   1.399012 S    
