data_mof_unit_52312.cif
_audit_creation_date              2012-12-10T16:53:01-0500
_audit_creation_method            fapswitch 2.2
_symmetry_space_group_name_H-M    P1
_symmetry_Int_Tables_number       1
_space_group_crystal_system       triclinic
_cell_length_a                    7.952335
_cell_length_b                    8.601665
_cell_length_c                    11.477758
_cell_angle_alpha                 93.660097
_cell_angle_beta                  84.623415
_cell_angle_gamma                 92.887021
_cell_volume                      779.289436774

loop_
_atom_site_label
_atom_site_type_symbol
_atom_type_description
_atom_site_fract_x
_atom_site_fract_y
_atom_site_fract_z
_atom_type_partial_charge
C1    C     C_R   0.544429 0.794033 0.509250 0.871579
C2    C     C_2   0.433446 0.048595 0.542079 -0.051168
C3    C     C_3   0.768288 0.089353 0.661590 -0.621276
C4    C     C_3   0.227681 0.038408 0.708140 -0.653023
C5    C     C_R   0.456103 0.207393 0.511963 0.867823
C6    C     C_R   0.499793 0.500233 0.717425 0.854535
C7    C     C_R   0.500138 0.499459 0.282574 0.897690
C8    C     C_1   0.499276 0.499448 0.838070 -0.112451
C9    C     C_1   0.500383 0.498846 0.161831 -0.089251
C10   C     C_1   0.499481 0.498853 0.940503 0.007413
C11   C     C_1   0.500063 0.498601 0.059349 0.028481
C12   C     C_2   0.569171 0.958391 0.535067 -0.001740
H1    H     H_    0.835091 0.955837 0.508093 0.265985
H2    H     H_    0.899732 0.507906 0.834507 0.371778
H3    H     H_    0.893779 0.152204 0.657250 0.251141
H4    H     H_    0.765355 0.997077 0.724953 0.242970
H5    H     H_    0.671539 0.174031 0.694392 0.228819
H6    H     H_    0.174629 0.020620 0.534483 0.258397
H7    H     H_    0.098731 0.992950 0.737285 0.268659
H8    H     H_    0.230778 0.167483 0.722865 0.217713
H9    H     H_    0.319062 0.989565 0.762034 0.245877
H10   H     H_    0.894570 0.236854 0.198233 0.363585
N1    N     N_2   0.950330 0.457960 0.469510 0.125914
N2    N     N_2   0.049670 0.542040 0.530490 0.117857
N3    N     N_2   0.737772 0.022106 0.545961 -0.269196
N4    N     N_2   0.268246 0.993657 0.585309 -0.259268
O1    O     O_R   0.389250 0.738570 0.507480 -0.592546
O2    O     O_2   0.159332 0.268531 0.335819 -0.308175
O3    O     O_3   0.856421 0.265209 0.281168 -0.525012
O4    O     O_2   0.123992 0.700761 0.724425 -0.291947
O5    O     O_2   0.841655 0.721527 0.670297 -0.339916
O6    O     O_3   0.921601 0.460622 0.753865 -0.574153
O7    O     O_R   0.610750 0.261430 0.492520 -0.567915
O8    O     O_R   0.678390 0.711630 0.487940 -0.606434
O9    O     O_R   0.321610 0.288370 0.512060 -0.598248
O10   O     O_R   0.355420 0.513450 0.675320 -0.570228
O11   O     O_R   0.644580 0.486550 0.324680 -0.565944
O12   O     O_R   0.644570 0.486510 0.655780 -0.551177
O13   O     O_R   0.355430 0.513490 0.344220 -0.547784
O14   O     O_2   0.066167 0.501768 0.249755 -0.309499
S1    S     S_3+6 0.017044 0.375283 0.332614 0.137205
S2    S     S_3+6 0.981256 0.611373 0.670602 0.117853
Zn1   Zn    Zn3+2 0.306940 0.517990 0.513050 1.132624
Zn2   Zn    Zn3+2 0.693060 0.482010 0.486950 1.132454

loop_
_geom_bond_atom_site_label_1
_geom_bond_atom_site_label_2
_ccdc_geom_bond_type
C4    N4    S    
N1    N2    D    
C6    O12   A    
O12   Zn2   S    
O5    S2    D    
N2    S2    S    
N1    S1    S    
C12   N3    S    
C2    C12   D    
O9    Zn1   S    
O11   Zn2   S    
C7    O11   A    
C3    H3    S    
C2    N4    S    
C4    H9    S    
C9    C11   T    
H1    N3    S    
C1    C12   S    
C6    C8    S    
C5    O9    A    
O14   S1    D    
H10   O3    S    
C6    O10   A    
C1    O8    A    
C3    H5    S    
C7    C9    S    
H6    N4    S    
O6    S2    S    
C2    C5    S    
C10   C11   S    
N1    Zn2   S    
C4    H8    S    
O1    Zn1   S    
O2    S1    D    
C3    N3    S    
O8    Zn2   S    
C8    C10   T    
C1    O1    A    
N2    Zn1   S    
C7    O13   A    
O4    S2    D    
O10   Zn1   S    
O13   Zn1   S    
O3    S1    S    
C4    H7    S    
C3    H4    S    
H2    O6    S    
O7    Zn2   S    
C5    O7    A    
