data_mof_unit_37485.cif
_audit_creation_date              2012-12-11T15:42:51-0500
_audit_creation_method            fapswitch 2.2
_symmetry_space_group_name_H-M    P1
_symmetry_Int_Tables_number       1
_space_group_crystal_system       triclinic
_cell_length_a                    6.954113
_cell_length_b                    14.56135
_cell_length_c                    16.185279
_cell_angle_alpha                 90.346594
_cell_angle_beta                  89.812139
_cell_angle_gamma                 89.937696
_cell_volume                      1638.90215983

loop_
_atom_site_label
_atom_site_type_symbol
_atom_type_description
_atom_site_fract_x
_atom_site_fract_y
_atom_site_fract_z
_atom_type_partial_charge
O1    O     O_R   0.505810 0.583360 0.413880 -0.539431
O2    O     O_R   0.175870 0.595480 0.585520 -0.542582
O3    O     O_R   0.005540 0.416640 0.586120 -0.538236
C1    C     C_R   0.344417 0.613101 0.617640 0.686827
O4    O     O_R   0.176100 0.594390 0.414490 -0.541803
O5    O     O_R   0.005770 0.415540 0.413870 -0.542500
C2    C     C_R   0.345262 0.616399 0.385769 0.692318
O6    O     O_R   0.505580 0.584460 0.586130 -0.540847
O7    O     O_3   0.339190 0.441320 0.500000 -0.369408
V1    V     V_3+5 0.064350 0.510890 0.500000 1.390248
O8    O     O_R   0.676050 0.404520 0.414480 -0.540749
C3    C     C_R   0.845328 0.382388 0.385771 0.686904
O9    O     O_R   0.675830 0.405610 0.585510 -0.550449
C4    C     C_R   0.845421 0.380034 0.610369 0.723714
V2    V     V_3+5 0.564340 0.489110 0.500000 1.392562
O10   O     O_3   0.839370 0.558680 0.500000 -0.369914
C5    C     C_2   0.727090 0.205624 0.782881 -0.136325
C6    C     C_2   0.884478 0.187590 0.828182 -0.342197
H1    H     H_    0.593280 0.170114 0.795994 0.145930
H2    H     H_    0.014672 0.227354 0.818494 0.136202
C7    C     C_2   0.721797 0.279973 0.720356 -0.198805
C8    C     C_2   0.861086 0.297658 0.663708 0.006782
H3    H     H_    0.594783 0.323481 0.722131 0.114028
C9    C     C_R   0.028199 0.197642 0.238219 -0.187460
H4    H     H_    0.154331 0.154315 0.232456 0.123570
C10   C     C_R   0.019151 0.260261 0.304080 -0.161020
H5    H     H_    0.138851 0.264217 0.346606 0.124739
C11   C     C_R   0.855981 0.315504 0.316149 -0.063851
C12   C     C_R   0.705028 0.309361 0.259205 -0.174178
H6    H     H_    0.581992 0.354434 0.266768 0.112904
C13   C     C_R   0.713954 0.249198 0.190660 0.086129
C14   C     C_R   0.876030 0.189376 0.181449 -0.064252
C15   C     C_R   0.209851 0.740669 0.704453 -0.187596
H7    H     H_    0.084547 0.741987 0.664948 0.131759
C16   C     C_R   0.222288 0.803667 0.769896 -0.214504
H8    H     H_    0.110059 0.852365 0.779700 0.153045
C17   C     C_R   0.387206 0.811581 0.817817 -0.092587
C18   C     C_R   0.549432 0.759869 0.792067 0.134626
C19   C     C_R   0.522895 0.680709 0.741595 0.066611
C20   C     C_R   0.357405 0.676851 0.690092 -0.094788
C21   C     C_R   0.188998 0.723150 0.283875 -0.157580
H9    H     H_    0.048584 0.704856 0.307694 0.117094
C22   C     C_R   0.200188 0.786289 0.219082 -0.153102
H10   H     H_    0.067845 0.814809 0.195193 0.119677
C23   C     C_R   0.379306 0.812318 0.185793 -0.047532
C24   C     C_R   0.546909 0.773346 0.219167 -0.158260
H11   H     H_    0.687314 0.791631 0.195332 0.116913
C25   C     C_R   0.535718 0.710202 0.283963 -0.153003
H12   H     H_    0.668051 0.681663 0.307842 0.118862
C26   C     C_R   0.356604 0.684244 0.317304 -0.048374
O11   O     O_R   0.230120 0.912300 0.917180 -0.540334
O12   O     O_R   0.559740 0.902430 0.088770 -0.542616
O13   O     O_R   0.729930 0.081310 0.089370 -0.538819
C27   C     C_R   0.390604 0.880309 0.117449 0.687949
O14   O     O_R   0.559840 0.901330 0.917750 -0.534931
O15   O     O_R   0.730030 0.080210 0.917120 -0.532430
C28   C     C_R   0.392551 0.880212 0.887604 0.699538
O16   O     O_R   0.230020 0.913400 0.089430 -0.538628
O17   O     O_3   0.396460 0.055470 0.003290 -0.375227
V3    V     V_3+5 0.671360 0.985960 0.003250 1.384749
O18   O     O_R   0.059740 0.091300 0.917690 -0.547724
C29   C     C_R   0.890863 0.114657 0.890933 0.740143
O19   O     O_R   0.059640 0.092400 0.088720 -0.544602
C30   C     C_R   0.889432 0.117269 0.115400 0.680945
V4    V     V_3+5 0.171350 0.007820 0.003190 1.371821
O20   O     O_3   0.896380 0.938200 0.003220 -0.370494
C31   C     C_3   0.748084 0.800681 0.799252 -0.348354
C32   C     C_3   0.759166 0.893987 0.754412 -0.696906
H13   H     H_    0.814223 0.883803 0.690499 0.200836
H14   H     H_    0.618347 0.929414 0.749894 0.212152
H15   H     H_    0.855968 0.941672 0.788045 0.199913
H16   H     H_    0.794766 0.805942 0.864486 0.189744
H17   H     H_    0.853888 0.754441 0.770314 0.170448
C33   C     C_3   0.666353 0.601152 0.745949 -0.358155
C34   C     C_3   0.715795 0.575133 0.835549 -0.341913
C35   C     C_3   0.863040 0.497472 0.838245 -0.773536
H18   H     H_    0.803674 0.434823 0.808898 0.228424
H19   H     H_    0.997168 0.517788 0.805667 0.227663
H20   H     H_    0.898266 0.481544 0.903483 0.218356
H21   H     H_    0.776761 0.634412 0.869779 0.196263
H22   H     H_    0.582844 0.552998 0.868153 0.196804
H23   H     H_    0.604702 0.538062 0.718046 0.179334
H24   H     H_    0.798811 0.618337 0.710778 0.178341
C36   C     C_3   0.029816 0.232786 0.647276 -0.335094
C37   C     C_3   0.035362 0.200326 0.557207 -0.760878
H25   H     H_    0.895868 0.168561 0.539924 0.222363
H26   H     H_    0.066394 0.258144 0.514925 0.229113
H27   H     H_    0.150879 0.148286 0.549122 0.212388
H28   H     H_    0.166593 0.268448 0.662351 0.174114
H29   H     H_    0.022879 0.169570 0.684651 0.199688
C38   C     C_3   0.553199 0.255660 0.127454 -0.362850
C39   C     C_3   0.626263 0.295764 0.045530 -0.284495
C40   C     C_3   0.464165 0.305156 0.982757 -0.752047
H30   H     H_    0.400999 0.236940 0.968476 0.242985
H31   H     H_    0.349871 0.351369 0.007140 0.215706
H32   H     H_    0.521909 0.334765 0.924665 0.213941
H33   H     H_    0.689286 0.364778 0.057147 0.186175
H34   H     H_    0.740118 0.251446 0.018327 0.183467
H35   H     H_    0.483343 0.188133 0.118064 0.204044
H36   H     H_    0.436422 0.301254 0.150900 0.162518

loop_
_geom_bond_atom_site_label_1
_geom_bond_atom_site_label_2
_ccdc_geom_bond_type
O19   V4    S    
C40   H30   S    
C21   H9    S    
C16   H8    S    
C35   H20   S    
C33   H24   S    
C1    O6    A    
C39   H34   S    
C23   C24   A    
C10   H5    S    
C12   H6    S    
C3    C11   S    
C11   C12   A    
C16   C17   A    
C9    C10   A    
O5    C3    A    
C18   C19   A    
O13   C30   A    
V2    O10   S    
C31   H16   S    
O11   V4    S    
C19   C33   S    
O12   V3    S    
C5    H1    S    
O8    V2    S    
C36   C37   S    
C1    C20   S    
C32   H13   S    
C31   H17   S    
O9    C4    A    
C38   H36   S    
O7    V1    S    
C25   C26   A    
V3    O20   S    
O17   V3    S    
C40   H31   S    
O14   V3    S    
C21   C22   A    
C36   H29   S    
C33   H23   S    
O13   V3    S    
O12   C27   A    
C39   H33   S    
C15   H7    S    
C37   H26   S    
C24   C25   A    
C15   C20   A    
C33   C34   S    
C31   C32   S    
C9    H4    S    
C14   C30   S    
C19   C20   A    
O4    C2    A    
C34   H22   S    
C37   H25   S    
C5    C7    S    
O15   V3    S    
C8    C36   S    
O2    C1    A    
C34   C35   S    
C9    C14   A    
C17   C18   A    
O16   V4    S    
C13   C14   A    
O9    V2    S    
C5    C6    D    
C35   H18   S    
C22   C23   A    
O3    C4    A    
O11   C28   A    
C25   H12   S    
C23   C27   S    
O6    V2    S    
C13   C38   S    
O14   C28   A    
C22   H10   S    
O15   C29   A    
C36   H28   S    
O2    V1    S    
C21   C26   A    
C38   C39   S    
C27   O16   A    
C37   H27   S    
C24   H11   S    
O1    C2    A    
C6    C29   S    
C2    C26   S    
C35   H19   S    
O5    V1    S    
O8    C3    A    
O1    V2    S    
C40   H32   S    
C10   C11   A    
C4    C8    S    
C7    H3    S    
O7    V2    S    
O4    V1    S    
C12   C13   A    
O3    V1    S    
V1    O10   S    
O17   V4    S    
C32   H15   S    
C39   C40   S    
C15   C16   A    
C6    H2    S    
O18   C29   A    
O19   C30   A    
O18   V4    S    
C34   H21   S    
C18   C31   S    
C32   H14   S    
V4    O20   S    
C38   H35   S    
C7    C8    D    
C17   C28   S    
