data_mof_unit_13937.cif
_audit_creation_date              2013-03-05T15:55:05-0500
_audit_creation_method            fapswitch 2.2
_symmetry_space_group_name_H-M    P1
_symmetry_Int_Tables_number       1
_space_group_crystal_system       triclinic
_cell_length_a                    14.832741
_cell_length_b                    15.024951
_cell_length_c                    14.979967
_cell_angle_alpha                 110.040906
_cell_angle_beta                  109.653559
_cell_angle_gamma                 109.131966
_cell_volume                      2556.64607761

loop_
_atom_site_label
_atom_site_type_symbol
_atom_site_description
_atom_site_fract_x
_atom_site_fract_y
_atom_site_fract_z
_atom_type_partial_charge
C1    C     C_R   0.182989 0.275966 0.241115 -0.130163
H1    H     H_    0.118151 0.296235 0.230550 0.107602
N1    N     N_R   0.291070 0.347930 0.293870 -0.041997
C2    C     C_R   0.537003 0.446252 0.760479 -0.139043
H2    H     H_    0.575634 0.401172 0.777853 0.102442
N2    N     N_R   0.554050 0.497220 0.706150 -0.042547
C3    C     C_R   0.458941 0.185557 0.406094 -0.136902
H3    H     H_    0.419098 0.124076 0.321690 0.098026
N3    N     N_R   0.497240 0.291100 0.443210 -0.039001
C4    C     C_R   0.290211 0.596619 0.589008 -0.126454
H4    H     H_    0.323176 0.657709 0.673036 0.116195
N4    N     N_R   0.347890 0.554050 0.556810 -0.037067
C5    C     C_R   0.551543 0.274983 0.589342 -0.136094
H5    H     H_    0.598809 0.292679 0.671776 0.086658
N5    N     N_R   0.554050 0.347900 0.556830 -0.039087
C6    C     C_R   0.198533 0.501634 0.406706 -0.150052
H6    H     H_    0.147137 0.471517 0.321139 0.120811
N6    N     N_R   0.291070 0.497250 0.443190 -0.042542
C7    C     C_R   0.440934 0.533910 0.756998 -0.068057
H7    H     H_    0.387431 0.565880 0.767312 0.097948
N7    N     N_R   0.497240 0.554030 0.706140 -0.032243
C8    C     C_R   0.274694 0.184289 0.232382 -0.129918
H8    H     H_    0.292782 0.120009 0.203986 0.080481
N8    N     N_R   0.347890 0.291110 0.293870 -0.037902
C9    C     C_R   0.171326 0.172386 0.205412 0.058847
C10   C     C_R   0.463030 0.463755 0.790014 0.047944
C11   C     C_R   0.483986 0.172329 0.495733 0.069674
C12   C     C_R   0.196468 0.567491 0.496064 0.055811
C13   C     C_R   0.403483 0.704514 0.405390 -0.144655
H9    H     H_    0.340026 0.667306 0.320979 0.106242
N9    N     N_R   0.445950 0.652100 0.443170 -0.042458
C14   C     C_R   0.815422 0.567207 0.593066 -0.131353
H10   H     H_    0.878488 0.618497 0.678809 0.118086
N10   N     N_R   0.708930 0.502750 0.556810 -0.043383
C15   C     C_R   0.493301 0.402168 0.195530 -0.166390
H11   H     H_    0.510781 0.337014 0.166358 0.106358
N11   N     N_R   0.502760 0.445970 0.293860 -0.040194
C16   C     C_R   0.703086 0.794836 0.807236 0.300161
N12   N     N_R   0.652110 0.708890 0.706130 -0.064118
C17   C     C_R   0.797966 0.707378 0.806962 -0.175144
H12   H     H_    0.849142 0.674393 0.834365 0.110468
N13   N     N_R   0.708930 0.652070 0.706130 -0.058006
C18   C     C_R   0.406244 0.497713 0.196911 -0.120426
H13   H     H_    0.347928 0.524130 0.170073 0.085964
N14   N     N_R   0.445950 0.502780 0.293850 -0.040890
C19   C     C_R   0.496534 0.800539 0.588260 -0.093770
H14   H     H_    0.521555 0.856667 0.670973 0.154670
N15   N     N_R   0.502760 0.708900 0.556790 -0.036082
C20   C     C_R   0.722745 0.476951 0.409027 -0.120754
H15   H     H_    0.699555 0.445938 0.323649 0.094279
N16   N     N_R   0.652110 0.445950 0.443190 -0.042651
Ni1   Ni    Ni4+2 0.369690 0.500010 0.369700 0.208287
Ni2   Ni    Ni4+2 0.630310 0.499990 0.630300 0.208667
Ni3   Ni    Ni4+2 0.500000 0.369720 0.369720 0.208041
Ni4   Ni    Ni4+2 0.500000 0.630280 0.630280 0.255305
C21   C     C_R   0.433662 0.798368 0.494358 0.047772
C22   C     C_R   0.826703 0.555838 0.501724 0.053167
C23   C     C_R   0.434007 0.433580 0.132827 0.080103
C24   C     C_R   0.795660 0.796475 0.873579 -0.013834
H16   H     H_    0.989371 0.444660 0.000428 0.100792
C25   C     C_R   0.077134 0.573997 0.169491 -0.130123
H17   H     H_    0.133359 0.630529 0.158552 0.101277
C26   C     C_R   0.085595 0.605973 0.272633 -0.148758
H18   H     H_    0.148994 0.687500 0.341239 0.118739
C27   C     C_R   0.012167 0.532684 0.286837 0.110578
C28   C     C_R   0.929530 0.427718 0.196230 -0.179575
H19   H     H_    0.871939 0.370268 0.205530 0.115336
C29   C     C_R   0.921813 0.396095 0.093453 -0.102344
H20   H     H_    0.858503 0.315019 0.024107 0.117104
C30   C     C_R   0.995604 0.469150 0.080119 -0.098526
C31   C     C_R   0.926777 0.564827 0.399891 -0.231905
H21   H     H_    0.850876 0.527348 0.323581 0.123727
C32   C     C_R   0.930158 0.604529 0.500772 0.052395
C33   C     C_R   0.034308 0.674188 0.598377 0.031183
C34   C     C_R   0.125616 0.669404 0.594591 -0.234069
H22   H     H_    0.204025 0.715120 0.670330 0.126303
C35   C     C_R   0.115186 0.604799 0.494090 0.058483
C36   C     C_R   0.019530 0.567303 0.395256 0.032455
C37   C     C_R   0.001831 0.823332 0.693329 -0.138384
H23   H     H_    0.948163 0.809338 0.613946 0.115858
C38   C     C_R   0.023603 0.908546 0.788799 -0.103847
H24   H     H_    0.986235 0.958798 0.782764 0.112440
C39   C     C_R   0.095224 0.930327 0.892059 -0.082667
H25   H     H_    0.114145 0.998256 0.965596 0.115452
C40   C     C_R   0.142970 0.865141 0.900239 -0.113960
H26   H     H_    0.197608 0.881606 0.980507 0.102155
C41   C     C_R   0.121431 0.779657 0.804917 -0.169651
H27   H     H_    0.159583 0.730322 0.812772 0.110353
C42   C     C_R   0.051385 0.758612 0.700371 0.109055
C43   C     C_R   0.458685 0.356748 0.885134 0.160499
C44   C     C_R   0.418550 0.416177 0.845975 0.038205
C45   C     C_R   0.343341 0.438702 0.872893 -0.195029
H28   H     H_    0.302696 0.476188 0.837783 0.125965
C46   C     C_R   0.333705 0.428796 0.959134 -0.201660
H29   H     H_    0.286783 0.459977 0.988065 0.124434
C47   C     C_R   0.399306 0.396280 0.017461 0.031083
C48   C     C_R   0.448347 0.346130 0.969372 0.163193
C49   C     C_3   0.558994 0.354475 0.019534 -0.514745
C50   C     C_3   0.570793 0.366776 0.928034 -0.517316
H30   H     H_    0.620846 0.429649 0.101499 0.200235
H31   H     H_    0.552105 0.276866 0.014862 0.194102
H32   H     H_    0.638879 0.449218 0.959269 0.204185
H33   H     H_    0.571549 0.296559 0.871193 0.187122
C51   C     C_R   0.360825 0.875323 0.387539 0.142756
C52   C     C_R   0.398514 0.875575 0.486824 0.027958
C53   C     C_R   0.425549 0.965589 0.582481 -0.196521
H34   H     H_    0.446517 0.965662 0.659012 0.139775
C54   C     C_R   0.444870 0.063520 0.584192 -0.195453
H35   H     H_    0.478069 0.136171 0.661423 0.125545
C55   C     C_R   0.435337 0.068820 0.489842 0.042906
C56   C     C_R   0.378719 0.971472 0.389203 0.158738
C57   C     C_3   0.402796 0.942636 0.297166 -0.520862
C58   C     C_3   0.384944 0.837809 0.295939 -0.501789
H36   H     H_    0.338298 0.929329 0.221164 0.182399
H37   H     H_    0.489641 0.997262 0.322879 0.203235
H38   H     H_    0.311624 0.764569 0.218456 0.179716
H39   H     H_    0.462114 0.833173 0.321316 0.207930
C59   C     C_R   0.969395 0.068521 0.118647 0.110739
C60   C     C_R   0.069290 0.069217 0.148898 0.042319
C61   C     C_R   0.068815 0.969569 0.119984 -0.214021
H40   H     H_    0.144585 0.966804 0.149299 0.123245
C62   C     C_R   0.970247 0.871474 0.042286 -0.186306
H41   H     H_    0.974489 0.797412 0.011591 0.129136
C63   C     C_R   0.872367 0.873059 0.992439 0.051084
C64   C     C_R   0.870034 0.969732 0.041777 0.217383
C65   C     C_3   0.826143 0.993566 0.119099 -0.403461
C66   C     C_3   0.931149 0.101360 0.197978 -0.537412
H42   H     H_    0.753555 0.004022 0.086523 0.229600
H43   H     H_    0.814892 0.936520 0.151282 0.192928
H44   H     H_    0.919998 0.172758 0.205520 0.195717
H45   H     H_    0.980165 0.108875 0.277733 0.210129
Br1   Br    Br    0.622169 0.854887 0.856994 -0.694401

loop_
_geom_bond_atom_site_label_1
_geom_bond_atom_site_label_2
_geom_bond_distance
_ccdc_geom_bond_type
C25   C30   1.397555 A    
C6    C12   1.382567 A    
N15   Ni4   1.870531 S    
C28   C29   1.397723 A    
C41   H27   1.083281 S    
C26   C27   1.405125 A    
C65   C66   1.497356 S    
C32   C33   1.411266 A    
C50   H33   1.112058 S    
C56   C57   1.496438 S    
N9    Ni1   1.859352 S    
C18   H13   1.080673 S    
C57   H36   1.112360 S    
C38   H24   1.082991 S    
N6    Ni1   1.853834 S    
C3    H3    1.067814 S    
C35   C36   1.419090 A    
N10   N16   1.379708 A    
C15   C23   1.377948 A    
N5    Ni2   1.859352 S    
C33   C42   1.486030 S    
C15   N11   1.326097 A    
N13   Ni2   1.858699 S    
C16   N12   1.335046 A    
C53   H34   1.081718 S    
N8    Ni3   1.839981 S    
C3    C11   1.369812 A    
C54   H35   1.082304 S    
C1    H1    1.079508 S    
C22   C32   1.475185 S    
C25   C26   1.398238 A    
C7    C10   1.392068 A    
C23   C47   1.454094 S    
C59   C60   1.391353 A    
C57   C58   1.501565 S    
C18   C23   1.382635 A    
C55   C56   1.396160 A    
N12   Ni4   1.839980 S    
C15   H11   1.079767 S    
C11   C55   1.440372 S    
C6    H6    1.071425 S    
C20   N16   1.334426 A    
C8    C9    1.378425 A    
C59   C64   1.397949 A    
C43   C48   1.376017 A    
C58   H38   1.109920 S    
C16   C24   1.384519 A    
C17   N13   1.339655 A    
C28   H19   1.083216 S    
C17   C24   1.387961 A    
C5    H5    1.075882 S    
C1    C9    1.388814 A    
N1    N8    1.382309 A    
C46   H29   1.081282 S    
C14   C22   1.393538 A    
C9    C60   1.452948 S    
C51   C52   1.400007 A    
C38   C39   1.395758 A    
C61   C62   1.389840 A    
C48   C49   1.498308 S    
N12   N13   1.382308 A    
C40   C41   1.399228 A    
C19   N15   1.339517 A    
C33   C34   1.398337 A    
C26   H18   1.083057 S    
C2    N2    1.323398 A    
C44   C45   1.406461 A    
C31   C32   1.397721 A    
C29   H20   1.082382 S    
N14   Ni1   1.854273 S    
C10   C44   1.456920 S    
C40   H26   1.083065 S    
N2    N7    1.382067 A    
C37   H23   1.083578 S    
C1    N1    1.337757 A    
C14   N10   1.337022 A    
C34   H22   1.079951 S    
C13   H9    1.080441 S    
C51   C56   1.370236 A    
C18   N14   1.334520 A    
C39   H25   1.080570 S    
H16   C30   1.082315 S    
N1    Ni1   1.858699 S    
C47   C48   1.398412 A    
C45   C46   1.397714 A    
C46   C47   1.407546 A    
C12   C35   1.482911 S    
C34   C35   1.405699 A    
C4    N4    1.341083 A    
C58   H39   1.112326 S    
N11   Ni3   1.870402 S    
C6    N6    1.329035 A    
C17   H12   1.080171 S    
C39   C40   1.397991 A    
C27   C28   1.406616 A    
C49   H30   1.112444 S    
N9    N15   1.379709 A    
C5    N5    1.337931 A    
C64   C65   1.506472 S    
C20   H15   1.077855 S    
C8    N8    1.332294 A    
C59   C66   1.487488 S    
N2    Ni2   1.854273 S    
C62   C63   1.404123 A    
C43   C50   1.500460 S    
C61   H40   1.081102 S    
N7    Ni4   1.870403 S    
C4    C12   1.394516 A    
C24   C63   1.470965 S    
C3    N3    1.318815 A    
C19   H14   1.074024 S    
C65   H42   1.109983 S    
C27   C36   1.478068 S    
C7    N7    1.337779 A    
N4    N6    1.379708 A    
C2    H2    1.062894 S    
C20   C22   1.394426 A    
C2    C10   1.380118 A    
C60   C61   1.405652 A    
C13   C21   1.364521 A    
C49   H31   1.111846 S    
C52   C53   1.404618 A    
C37   C38   1.397199 A    
C65   H43   1.112858 S    
N16   Ni3   1.839951 S    
C14   H10   1.076825 S    
C7    H7    1.079761 S    
C41   C42   1.408145 A    
N3    N5    1.379708 A    
C66   H44   1.112072 S    
C31   H21   1.081144 S    
C13   N9    1.314572 A    
C43   C44   1.402966 A    
C53   C54   1.393074 A    
C45   H28   1.081491 S    
C54   C55   1.404987 A    
C31   C36   1.389766 A    
C25   H17   1.080193 S    
C66   H45   1.112718 S    
C21   C52   1.441111 S    
C37   C42   1.408408 A    
N4    Ni4   1.839951 S    
C4    H4    1.079784 S    
C51   C58   1.503608 S    
C50   H32   1.112697 S    
N10   Ni2   1.853837 S    
C29   C30   1.397328 A    
C49   C50   1.502438 S    
C19   C21   1.384051 A    
C8    H8    1.072719 S    
C5    C11   1.381564 A    
N3    Ni3   1.870532 S    
C62   H41   1.080901 S    
N11   N14   1.382064 A    
C57   H37   1.112595 S    
C16   Br1   1.913339 S    
C63   C64   1.404128 A    
