data_mof_unit_31969.cif
_audit_creation_date              2012-12-10T20:38:20-0500
_audit_creation_method            fapswitch 2.2
_symmetry_space_group_name_H-M    P1
_symmetry_Int_Tables_number       1
_space_group_crystal_system       triclinic
_cell_length_a                    9.89353
_cell_length_b                    10.696938
_cell_length_c                    16.713455
_cell_angle_alpha                 90.286409
_cell_angle_beta                  83.801799
_cell_angle_gamma                 90.306815
_cell_volume                      1758.41058221

loop_
_atom_site_label
_atom_site_type_symbol
_atom_type_description
_atom_site_fract_x
_atom_site_fract_y
_atom_site_fract_z
_atom_type_partial_charge
C1    C     C_R   0.500007 0.740017 0.501861 0.928712
C2    C     C_R   0.537938 0.490540 0.259973 -0.021413
C3    C     C_R   0.377865 0.936125 0.503664 0.015978
C4    C     C_R   0.479549 0.495279 0.653066 1.002146
C5    C     C_R   0.497722 0.871983 0.512180 -0.254098
C6    C     C_R   0.611215 0.937424 0.535261 0.616053
C7    C     C_R   0.609636 0.066721 0.536214 -0.238310
C8    C     C_R   0.495149 0.129261 0.514473 -0.195106
C9    C     C_R   0.375873 0.063482 0.506286 0.152354
C10   C     C_3   0.279036 0.072821 0.443809 -0.543150
C11   C     C_3   0.281470 0.930763 0.440145 -0.171082
C12   C     C_R   0.364609 0.519383 0.791219 0.644986
C13   C     C_R   0.923309 0.594692 0.536261 0.164102
C14   C     C_R   0.935127 0.411839 0.458772 -0.070443
C15   C     C_R   0.078840 0.411393 0.459160 -0.058973
C16   C     C_R   0.499160 0.260297 0.502502 0.918245
C17   C     C_R   0.065992 0.597271 0.533735 0.012094
C18   C     C_3   0.060697 0.642956 0.618497 0.512874
C19   C     C_3   0.905730 0.634793 0.623213 -0.503425
C20   C     C_R   0.520653 0.498888 0.346842 0.849897
C21   C     C_R   0.463100 0.461040 0.737346 -0.369709
C22   C     C_R   0.539484 0.361479 0.763139 0.556608
C23   C     C_R   0.460625 0.542285 0.132154 0.024665
C24   C     C_R   0.524761 0.327526 0.843617 -0.227622
C25   C     C_R   0.430754 0.390118 0.897859 -0.018306
C26   C     C_R   0.346491 0.481813 0.871004 -0.183769
C27   C     C_2   0.343663 0.881090 0.360334 0.440920
C28   C     C_2   0.114158 0.774236 0.624110 0.432096
C29   C     C_2   0.846212 0.536762 0.681570 0.721236
C30   C     C_2   0.373969 0.623569 0.087582 0.375825
C31   C     C_R   0.447667 0.552627 0.215590 -0.295958
C32   C     C_R   0.643622 0.418681 0.221268 -0.192108
C33   C     C_R   0.652765 0.401504 0.138550 -0.185864
C34   C     C_R   0.558378 0.458444 0.094250 0.160196
C35   C     C_2   0.440709 0.383073 0.983617 -0.112178
C36   C     C_2   0.556894 0.420545 0.010514 -0.161956
F1    F     F_    0.627935 0.297271 0.710592 -0.618217
F2    F     F_    0.726089 0.878323 0.551425 -0.678619
F3    F     F_    0.118112 0.559291 0.667832 -0.548427
F4    F     F_    0.292834 0.617877 0.768191 -0.561499
H1    H     H_    0.729497 0.339387 0.109600 0.148310
H2    H     H_    0.714651 0.370906 0.255427 0.148824
H3    H     H_    0.650023 0.430007 0.969992 0.165026
H4    H     H_    0.274688 0.531428 0.913104 0.202771
H5    H     H_    0.347550 0.377248 0.024427 0.146576
H6    H     H_    0.589964 0.256232 0.864357 0.193498
H7    H     H_    0.445300 0.909653 0.336023 0.054744
H8    H     H_    0.068650 0.849791 0.593371 0.015471
H9    H     H_    0.776222 0.564823 0.732902 0.016230
H10   H     H_    0.279476 0.660090 0.117593 0.087570
H11   H     H_    0.700264 0.116989 0.549046 0.222682
H12   H     H_    0.178906 0.110299 0.469359 0.217084
H13   H     H_    0.324579 0.120677 0.388235 0.184780
H14   H     H_    0.182001 0.887326 0.461770 0.179730
H15   H     H_    0.886522 0.339309 0.426600 0.127683
H16   H     H_    0.138220 0.338497 0.427349 0.126219
H17   H     H_    0.369315 0.611440 0.245972 0.201118
H18   H     H_    0.853396 0.726211 0.632077 0.179267
N1    N     N_R   0.857140 0.500860 0.500530 -0.081006
N2    N     N_R   0.142780 0.500820 0.500530 -0.071568
O1    O     O_R   0.385310 0.683210 0.499990 -0.615794
O2    O     O_2   0.208475 0.797277 0.663286 -0.445970
O3    O     O_2   0.877884 0.426839 0.673157 -0.465269
O4    O     O_2   0.410334 0.656212 0.018711 -0.546462
O5    O     O_R   0.614650 0.683240 0.500000 -0.570099
O6    O     O_R   0.371780 0.500000 0.615800 -0.513282
O7    O     O_R   0.601120 0.500040 0.615800 -0.605270
O8    O     O_R   0.385350 0.316760 0.500000 -0.622079
O9    O     O_R   0.614690 0.316790 0.500010 -0.615807
O10   O     O_R   0.398880 0.499960 0.384200 -0.615073
O11   O     O_R   0.628220 0.500000 0.384200 -0.631573
O12   O     O_2   0.279362 0.808827 0.322150 -0.591207
Zn1   Zn    Zn3+2 0.346870 0.499980 0.499990 1.038883
Zn2   Zn    Zn3+2 0.653130 0.500020 0.500010 1.015238

loop_
_geom_bond_atom_site_label_1
_geom_bond_atom_site_label_2
_ccdc_geom_bond_type
C12   F4    S    
O11   Zn2   S    
C1    O5    A    
C18   F3    S    
C6    F2    S    
C20   O11   A    
C6    C7    A    
C3    C9    A    
C13   C17   A    
C4    O7    A    
C9    C10   S    
C34   C36   S    
C35   C36   D    
C11   C27   S    
O8    Zn1   S    
C23   C34   A    
C10   H12   S    
C15   H16   S    
C31   H17   S    
O10   Zn1   S    
C29   O3    D    
C17   C18   S    
C30   H10   S    
C24   C25   A    
C24   H6    S    
C7    C8    A    
C8    C16   S    
O7    Zn2   S    
C29   H9    S    
C21   C22   A    
C32   C33   A    
C4    O6    A    
C4    C21   S    
O6    Zn1   S    
N1    Zn2   S    
C20   O10   A    
C5    C6    A    
C11   H14   S    
C25   C35   S    
C26   H4    S    
C13   N1    A    
C22   C24   A    
C12   C26   A    
C33   C34   A    
C30   O4    D    
C19   H18   S    
O1    Zn1   S    
C16   O8    A    
C1    C5    S    
C3    C11   S    
C10   C11   S    
C13   C19   S    
C17   N2    A    
C7    H11   S    
C23   C31   A    
C19   C29   S    
C23   C30   S    
N2    Zn1   S    
O9    Zn2   S    
C14   H15   S    
C18   C28   S    
C33   H1    S    
C8    C9    A    
C2    C32   A    
C18   C19   S    
C15   N2    A    
C27   H7    S    
C10   H13   S    
C32   H2    S    
C14   C15   A    
C28   H8    S    
C36   H3    S    
O5    Zn2   S    
C35   H5    S    
C14   N1    A    
C25   C26   A    
C22   F1    S    
C2    C20   S    
C12   C21   A    
C16   O9    A    
C1    O1    A    
C2    C31   A    
C3    C5    A    
C27   O12   D    
C28   O2    D    
