data_mof_unit_33265.cif
_audit_creation_date              2012-12-10T16:44:15-0500
_audit_creation_method            fapswitch 2.2
_symmetry_space_group_name_H-M    P1
_symmetry_Int_Tables_number       1
_space_group_crystal_system       triclinic
_cell_length_a                    7.42851
_cell_length_b                    8.715694
_cell_length_c                    13.40824
_cell_angle_alpha                 94.064043
_cell_angle_beta                  77.424134
_cell_angle_gamma                 103.081972
_cell_volume                      825.081966811

loop_
_atom_site_label
_atom_site_type_symbol
_atom_type_description
_atom_site_fract_x
_atom_site_fract_y
_atom_site_fract_z
_atom_type_partial_charge
C1    C     C_R   0.545320 0.799875 0.503120 0.763099
C2    C     C_R   0.417740 0.506958 0.975567 0.078154
C3    C     C_R   0.466328 0.553314 0.872085 0.085884
C4    C     C_R   0.559044 0.543923 0.035660 0.069559
C5    C     C_R   0.739334 0.638321 0.994787 0.158088
C6    C     C_R   0.776436 0.697233 0.896881 -0.240494
C7    C     C_R   0.641311 0.657645 0.837075 -0.198539
C8    C     C_R   0.527047 0.489749 0.135333 -0.246405
C9    C     C_R   0.840685 0.626560 0.153830 -0.203010
C10   C     C_R   0.337523 0.495243 0.806673 -0.108707
C11   C     C_2   0.572556 0.967137 0.504825 0.422408
C12   C     C_R   0.399625 0.498130 0.694469 0.769567
C13   C     C_2   0.431148 0.032334 0.495769 -0.502150
C14   C     C_R   0.455089 0.199893 0.497079 0.922731
C15   C     C_R   0.601591 0.511049 0.305904 0.785331
C16   C     C_R   0.879361 0.676421 0.053433 -0.180051
C17   C     C_R   0.662294 0.536685 0.195820 -0.051210
C18   C     C_R   0.152701 0.416324 0.848533 -0.187256
C19   C     C_R   0.098524 0.385695 0.952152 -0.135725
C20   C     C_R   0.229297 0.427185 0.014891 -0.188534
Cu1   Cu    Cu3+1 0.321300 0.483160 0.488710 0.972483
Cu2   Cu    Cu3+1 0.678700 0.516840 0.511290 0.995212
H1    H     H_    0.946763 0.664017 0.199754 0.160841
H2    H     H_    0.294518 0.961286 0.487191 0.161067
H3    H     H_    0.010981 0.617549 0.579301 0.223306
H4    H     H_    0.988955 0.382408 0.420747 0.245907
H5    H     H_    0.910690 0.774758 0.866305 0.148066
H6    H     H_    0.017193 0.748321 0.022441 0.145040
H7    H     H_    0.395841 0.412899 0.169111 0.146793
H8    H     H_    0.051009 0.373757 0.800534 0.171779
H9    H     H_    0.176623 0.398420 0.094238 0.132287
H10   H     H_    0.955068 0.325370 0.983746 0.154236
H11   H     H_    0.674831 0.713507 0.763945 0.171444
N1    N     N_2   0.947230 0.542220 0.528320 -0.208778
N2    N     N_2   0.052770 0.457780 0.471680 -0.191621
O1    O     O_R   0.383920 0.714220 0.492660 -0.624710
O2    O     O_R   0.685730 0.742660 0.511730 -0.546805
O3    O     O_R   0.275440 0.478800 0.636790 -0.584306
O4    O     O_R   0.577250 0.507240 0.655860 -0.580889
O5    O     O_R   0.314270 0.257340 0.488270 -0.568428
O6    O     O_R   0.616080 0.285780 0.507340 -0.509564
O7    O     O_R   0.422750 0.492760 0.344140 -0.585249
O8    O     O_R   0.724560 0.521200 0.363210 -0.597424
F1    F     F_    0.745041 0.053662 0.515706 -0.643425

loop_
_geom_bond_atom_site_label_1
_geom_bond_atom_site_label_2
_ccdc_geom_bond_type
C16   H6    S    
C2    C4    A    
C6    C7    A    
C18   H8    S    
C11   C13   D    
C15   O7    A    
C8    C17   A    
C1    C11   S    
C6    H5    S    
C1    O2    A    
H3    N1    S    
C4    C8    A    
C12   O4    A    
C2    C3    A    
C15   O8    A    
C11   F1    S    
Cu1   O1    S    
C13   C14   S    
C7    H11   S    
Cu1   O5    S    
C10   C12   S    
C10   C18   A    
C14   O6    A    
Cu1   N2    S    
C19   H10   S    
C9    C17   A    
C9    C16   A    
C18   C19   A    
C3    C7    A    
C12   O3    A    
C5    C6    A    
Cu2   N1    S    
Cu2   O6    S    
C8    H7    S    
C14   O5    A    
Cu1   O7    S    
H4    N2    S    
C13   H2    S    
C15   C17   S    
N1    N2    D    
C3    C10   A    
C2    C20   A    
C9    H1    S    
C5    C16   A    
Cu1   Cu2   S    
Cu2   O2    S    
Cu2   O4    S    
Cu2   O8    S    
Cu1   O3    S    
C19   C20   A    
C1    O1    A    
C4    C5    A    
C20   H9    S    
