data_mof_unit_48251.cif
_audit_creation_date              2012-12-10T18:49:54-0500
_audit_creation_method            fapswitch 2.2
_symmetry_space_group_name_H-M    P1
_symmetry_Int_Tables_number       1
_space_group_crystal_system       triclinic
_cell_length_a                    10.80486
_cell_length_b                    9.927733
_cell_length_c                    10.750889
_cell_angle_alpha                 90.507832
_cell_angle_beta                  92.822458
_cell_angle_gamma                 90.27096
_cell_volume                      1151.76422825

loop_
_atom_site_label
_atom_site_type_symbol
_atom_type_description
_atom_site_fract_x
_atom_site_fract_y
_atom_site_fract_z
_atom_type_partial_charge
C1    C     C_R   0.259753 0.499723 0.506066 0.878596
C2    C     C_3   0.623935 0.505886 0.933527 0.721783
C3    C     C_R   0.059720 0.374370 0.519606 0.136702
C4    C     C_R   0.062384 0.623351 0.536673 0.148661
C5    C     C_R   0.932517 0.378087 0.516391 -0.159350
C6    C     C_R   0.934714 0.621133 0.532483 -0.172205
C7    C     C_R   0.871146 0.500188 0.516832 -0.106546
C8    C     C_R   0.126686 0.499076 0.521211 -0.065642
C9    C     C_R   0.573432 0.072169 0.584753 0.410459
C10   C     C_R   0.573351 0.930096 0.584728 0.417370
C11   C     C_R   0.426421 0.927922 0.415576 0.414209
C12   C     C_R   0.426351 0.069758 0.415710 0.391788
C13   C     C_R   0.494664 0.499193 0.257623 1.043641
C14   C     C_R   0.739418 0.500270 0.504273 0.886640
C15   C     C_R   0.492027 0.500557 0.741156 0.970990
C16   C     C_3   0.425050 0.635840 0.072211 0.752405
C17   C     C_3   0.406231 0.372213 0.067427 0.675729
C18   C     C_3   0.410333 0.631355 0.924515 0.370010
C19   C     C_3   0.419988 0.362718 0.921653 0.412982
C20   C     C_3   0.621800 0.486092 0.075676 -0.692152
C21   C     C_3   0.487003 0.497875 0.120389 -0.281144
C22   C     C_3   0.484479 0.500996 0.877306 -0.239252
H1    H     H_    0.686050 0.558238 0.125711 0.226307
H2    H     H_    0.663243 0.387785 0.101425 0.186837
H3    H     H_    0.880645 0.284312 0.509859 0.182015
H4    H     H_    0.884366 0.714939 0.539218 0.182166
N1    N     N_R   0.499970 0.857200 0.499970 -0.276863
N2    N     N_R   0.499970 0.142800 0.499970 -0.284944
O1    O     O_R   0.316750 0.614620 0.499990 -0.645747
O2    O     O_R   0.316750 0.385380 0.499990 -0.658602
O3    O     O_R   0.499970 0.614670 0.314790 -0.583392
O4    O     O_R   0.499970 0.385330 0.314790 -0.631260
O5    O     O_R   0.683220 0.614710 0.500010 -0.660860
O6    O     O_R   0.683220 0.385290 0.500010 -0.655029
O7    O     O_R   0.500010 0.614660 0.685200 -0.600791
O8    O     O_R   0.500010 0.385340 0.685200 -0.574176
Zn1   Zn    Zn3+2 0.499980 0.653120 0.500000 0.970328
Zn2   Zn    Zn3+2 0.499980 0.346880 0.500000 0.959041
O9    O     O_3   0.494609 0.750530 0.114505 -0.703220
H5    H     H_    0.583431 0.738676 0.100806 0.345740
O10   O     O_3   0.439638 0.246728 0.121722 -0.691920
H6    H     H_    0.529581 0.241597 0.141797 0.333262
O11   O     O_3   0.349123 0.865018 0.327707 -0.668934
H7    H     H_    0.346021 0.769031 0.346724 0.397776
O12   O     O_3   0.348383 0.130340 0.328670 -0.666400
H8    H     H_    0.349236 0.227389 0.345111 0.396058
O13   O     O_3   0.308552 0.648321 0.125043 -0.713957
H9    H     H_    0.277433 0.740625 0.107692 0.389129
O14   O     O_3   0.282124 0.395848 0.096367 -0.745378
H10   H     H_    0.236992 0.308402 0.096488 0.380747
C23   C     C_3   0.271722 0.629312 0.877528 -0.759429
H11   H     H_    0.233905 0.733340 0.876709 0.263094
H12   H     H_    0.260554 0.590551 0.780643 0.198444
H13   H     H_    0.210174 0.573186 0.937465 0.258748
C24   C     C_3   0.293581 0.325279 0.851809 -0.733015
H14   H     H_    0.293381 0.346972 0.751353 0.213151
H15   H     H_    0.276386 0.215239 0.859921 0.270274
H16   H     H_    0.209670 0.371284 0.886763 0.208577
O15   O     O_3   0.453124 0.752610 0.871341 -0.671874
H17   H     H_    0.531696 0.786416 0.909765 0.415497
O16   O     O_3   0.495031 0.251436 0.890367 -0.633926
H18   H     H_    0.566441 0.240271 0.949905 0.381348
O17   O     O_3   0.681804 0.630217 0.911476 -0.790153
H19   H     H_    0.707776 0.629762 0.824236 0.358349
O18   O     O_3   0.695974 0.403617 0.880659 -0.768848
H20   H     H_    0.782376 0.414168 0.915582 0.357411
C25   C     C_3   0.116166 0.235050 0.516378 -0.804647
H21   H     H_    0.185953 0.221646 0.594218 0.247582
H22   H     H_    0.046551 0.153629 0.526587 0.224930
H23   H     H_    0.156215 0.218179 0.425046 0.278573
C26   C     C_3   0.122996 0.760547 0.555875 -0.809643
H24   H     H_    0.194548 0.758301 0.633323 0.256178
H25   H     H_    0.163355 0.793808 0.468494 0.274765
H26   H     H_    0.055706 0.839280 0.581246 0.226123
O19   O     O_3   0.650929 0.135221 0.672670 -0.651332
H27   H     H_    0.654846 0.231201 0.653618 0.399427
O20   O     O_3   0.650762 0.869120 0.672322 -0.685995
H28   H     H_    0.653646 0.772864 0.652792 0.372782

loop_
_geom_bond_atom_site_label_1
_geom_bond_atom_site_label_2
_ccdc_geom_bond_type
C10   N1    A    
C24   H14   S    
C16   C21   S    
C1    C8    S    
O10   H6    S    
C13   O4    A    
C4    C8    A    
C2    O18   S    
C14   O5    A    
O20   H28   S    
C12   N2    A    
O7    Zn1   S    
C19   O16   S    
O2    Zn2   S    
C15   C22   S    
C20   H2    S    
C2    C22   S    
C11   O11   S    
O4    Zn2   S    
C9    C10   A    
O15   H17   S    
O6    Zn2   S    
C16   O13   S    
C15   O7    A    
C10   O20   S    
C18   C23   S    
C7    C14   S    
C2    C20   S    
C25   H21   S    
C19   C22   S    
C4    C6    A    
C3    C8    A    
C17   O14   S    
O9    H5    S    
C26   H25   S    
O12   H8    S    
O5    Zn1   S    
C23   H11   S    
C25   H22   S    
O19   H27   S    
O13   H9    S    
C20   H1    S    
C11   N1    A    
C1    O1    A    
C13   C21   S    
C5    H3    S    
O18   H20   S    
C24   H15   S    
O11   H7    S    
C15   O8    A    
C2    O17   S    
C5    C7    A    
C19   C24   S    
C18   C22   S    
C13   O3    A    
C3    C25   S    
C12   O12   S    
C3    C5    A    
C14   O6    A    
C26   H26   S    
C11   C12   A    
C6    C7    A    
C25   H23   S    
C23   H13   S    
O8    Zn2   S    
C26   H24   S    
C6    H4    S    
N1    Zn1   S    
C1    O2    A    
C17   C19   S    
O16   H18   S    
C17   O10   S    
C16   O9    S    
O17   H19   S    
O3    Zn1   S    
C18   O15   S    
C20   C21   S    
C16   C18   S    
O14   H10   S    
C24   H16   S    
O1    Zn1   S    
C9    O19   S    
C23   H12   S    
N2    Zn2   S    
C4    C26   S    
C9    N2    A    
C17   C21   S    
