data_mof_unit_39121.cif
_audit_creation_date              2012-12-10T17:04:27-0500
_audit_creation_method            fapswitch 2.2
_symmetry_space_group_name_H-M    P1
_symmetry_Int_Tables_number       1
_space_group_crystal_system       triclinic
_cell_length_a                    14.952164
_cell_length_b                    10.708734
_cell_length_c                    10.020292
_cell_angle_alpha                 88.752214
_cell_angle_beta                  89.638971
_cell_angle_gamma                 90.057093
_cell_volume                      1604.02326319

loop_
_atom_site_label
_atom_site_type_symbol
_atom_type_description
_atom_site_fract_x
_atom_site_fract_y
_atom_site_fract_z
_atom_type_partial_charge
C1    C     C_R   0.508754 0.263147 0.501402 0.787738
C2    C     C_R   0.186026 0.395182 0.432901 0.422858
C3    C     C_R   0.231760 0.487628 0.503711 -0.155406
C4    C     C_R   0.327112 0.496511 0.500626 0.863724
C5    C     C_R   0.186876 0.574413 0.579739 -0.254805
C6    C     C_2   0.537633 0.934749 0.398127 0.437980
C7    C     C_2   0.489628 0.870554 0.490995 0.318729
C8    C     C_2   0.529001 0.069405 0.392311 -0.281531
C9    C     C_2   0.535483 0.133755 0.504451 0.344052
C10   C     C_2   0.550805 0.574279 0.921610 0.489981
C11   C     C_2   0.543742 0.581230 0.072760 -0.242029
C12   C     C_R   0.908410 0.593955 0.573148 -0.009923
C13   C     C_R   0.498334 0.737551 0.498212 0.815640
C14   C     C_R   0.672885 0.503278 0.499458 0.866661
C15   C     C_R   0.814610 0.597702 0.572004 0.409676
C16   C     C_R   0.768367 0.508553 0.497932 -0.162295
C17   C     C_R   0.812453 0.417863 0.426136 -0.247056
C18   C     C_R   0.904502 0.405680 0.434424 -0.059964
C19   C     C_R   0.953080 0.495451 0.505969 -0.079629
C20   C     C_R   0.948887 0.305546 0.372741 0.400834
C21   C     C_R   0.041731 0.298729 0.375471 0.449669
C22   C     C_R   0.091954 0.392817 0.438428 -0.125127
C23   C     C_R   0.046544 0.488115 0.508459 -0.040331
C24   C     C_R   0.094832 0.577451 0.580121 0.079771
C25   C     C_R   0.051343 0.672468 0.647337 -0.216627
C26   C     C_R   0.959396 0.684763 0.640519 0.470057
H1    H     H_    0.511118 0.112764 0.297123 0.137409
H2    H     H_    0.575664 0.139416 0.689943 0.352240
H3    H     H_    0.644331 0.699716 0.918951 0.340319
H4    H     H_    0.851392 0.186850 0.368369 0.326400
H5    H     H_    0.119305 0.157137 0.391335 0.355380
H6    H     H_    0.291246 0.294395 0.393145 0.333660
H7    H     H_    0.887704 0.831981 0.625993 0.365081
H8    H     H_    0.623359 0.938950 0.251903 0.344392
H9    H     H_    0.451470 0.451080 0.900285 0.118338
H10   H     H_    0.578718 0.656272 0.121486 0.205837
H11   H     H_    0.473375 0.424787 0.103944 0.168264
H12   H     H_    0.773115 0.354512 0.367409 0.175927
H13   H     H_    0.224289 0.644020 0.633638 0.160636
H14   H     H_    0.089396 0.741950 0.700117 0.179271
H15   H     H_    0.711810 0.705893 0.602700 0.352867
H16   H     H_    0.396167 0.866401 0.627783 0.335611
N1    N     N_2   0.500970 0.501330 0.852150 -0.193141
N2    N     N_2   0.500990 0.501360 0.147810 -0.194402
O1    O     O_R   0.499990 0.319060 0.613040 -0.618339
O2    O     O_3   0.427997 0.930013 0.571865 -0.756891
O3    O     O_3   0.569872 0.077019 0.619052 -0.716541
O4    O     O_3   0.610761 0.650428 0.853305 -0.672548
O5    O     O_3   0.903777 0.209815 0.312049 -0.694480
O6    O     O_3   0.080707 0.194851 0.321183 -0.639655
O7    O     O_3   0.231294 0.310391 0.355173 -0.727153
O8    O     O_3   0.922502 0.788798 0.697122 -0.687168
O9    O     O_3   0.594282 0.874784 0.310474 -0.790230
O10   O     O_R   0.500010 0.319100 0.386900 -0.637763
O11   O     O_R   0.367830 0.499950 0.613080 -0.617303
O12   O     O_R   0.367860 0.499990 0.386940 -0.587253
O13   O     O_R   0.499990 0.680900 0.613100 -0.579752
O14   O     O_R   0.500010 0.680940 0.386960 -0.576920
O15   O     O_R   0.632140 0.500010 0.613060 -0.554076
O16   O     O_R   0.632170 0.500050 0.386920 -0.603912
O17   O     O_3   0.769697 0.686022 0.645586 -0.699260
Zn1   Zn    Zn3+2 0.499980 0.499970 0.650990 1.018954
Zn2   Zn    Zn3+2 0.500020 0.500030 0.349010 0.993554

loop_
_geom_bond_atom_site_label_1
_geom_bond_atom_site_label_2
_ccdc_geom_bond_type
C2    C22   A    
C7    C13   S    
C19   C23   A    
C23   C24   A    
C7    O2    S    
H2    O3    S    
C9    O3    S    
C6    C7    D    
C26   O8    S    
C14   O16   A    
C10   N1    D    
C2    O7    S    
C12   C15   A    
H15   O17   S    
H3    O4    S    
C1    O10   A    
C10   C11   S    
H11   N2    S    
C2    C3    A    
C15   O17   S    
O12   Zn2   S    
C1    C9    S    
O13   Zn1   S    
C25   H14   S    
C21   C22   A    
C4    O12   A    
H7    O8    S    
O14   Zn2   S    
C14   O15   A    
C1    O1    A    
C20   O5    S    
C5    C24   A    
O16   Zn2   S    
C12   C19   A    
C24   C25   A    
C21   O6    S    
H4    O5    S    
C17   C18   A    
C18   C20   A    
C17   H12   S    
C5    H13   S    
N2    Zn2   S    
C10   O4    S    
C16   C17   A    
C14   C16   S    
C13   O13   A    
O10   Zn2   S    
C6    O9    S    
C15   C16   A    
O11   Zn1   S    
O1    Zn1   S    
C11   N2    D    
H9    N1    S    
C20   C21   A    
H8    O9    S    
C18   C19   A    
H16   O2    S    
H6    O7    S    
C4    O11   A    
C8    H1    S    
C22   C23   A    
C11   H10   S    
O15   Zn1   S    
C6    C8    S    
C13   O14   A    
H5    O6    S    
C25   C26   A    
C3    C4    S    
N1    Zn1   S    
C12   C26   A    
C8    C9    D    
C3    C5    A    
