data_mof_unit_41082.cif
_audit_creation_date              2012-12-11T15:18:39-0500
_audit_creation_method            fapswitch 2.2
_symmetry_space_group_name_H-M    P1
_symmetry_Int_Tables_number       1
_space_group_crystal_system       triclinic
_cell_length_a                    6.938432
_cell_length_b                    19.912235
_cell_length_c                    23.779894
_cell_angle_alpha                 93.554986
_cell_angle_beta                  91.612861
_cell_angle_gamma                 88.174683
_cell_volume                      3276.3088472

loop_
_atom_site_label
_atom_site_type_symbol
_atom_type_description
_atom_site_fract_x
_atom_site_fract_y
_atom_site_fract_z
_atom_type_partial_charge
O1    O     O_R   0.620100 0.812200 0.810870 -0.539234
O2    O     O_R   0.379900 0.187800 0.189130 -0.539234
O3    O     O_R   0.296960 0.671650 0.794750 -0.543171
O4    O     O_R   0.703040 0.328350 0.205250 -0.543172
O5    O     O_R   0.120160 0.687800 0.689130 -0.540697
O6    O     O_R   0.879840 0.312200 0.310870 -0.540697
C1    C     C_R   0.470107 0.646558 0.804213 0.721042
C2    C     C_R   0.529893 0.353442 0.195787 0.721040
O7    O     O_R   0.290810 0.810670 0.817290 -0.542790
O8    O     O_R   0.709190 0.189330 0.182710 -0.542790
O9    O     O_R   0.113980 0.827820 0.711840 -0.534634
O10   O     O_R   0.886020 0.172180 0.288160 -0.534634
C3    C     C_R   0.459476 0.831808 0.834305 0.712111
C4    C     C_R   0.540524 0.168192 0.165695 0.712111
O11   O     O_R   0.626290 0.672180 0.788160 -0.537949
O12   O     O_R   0.373710 0.327820 0.211840 -0.537949
O13   O     O_3   0.451520 0.755460 0.715370 -0.367092
O14   O     O_3   0.548480 0.244540 0.284630 -0.367091
V1    V     V_3+5 0.179200 0.748980 0.756420 1.399335
V2    V     V_3+5 0.820800 0.251020 0.243580 1.399333
O15   O     O_R   0.783880 0.828350 0.705250 -0.537033
O16   O     O_R   0.216120 0.171650 0.294750 -0.537032
C5    C     C_R   0.949133 0.852629 0.694663 0.697776
C6    C     C_R   0.050866 0.147370 0.305337 0.697776
O17   O     O_R   0.790030 0.689320 0.682700 -0.544084
O18   O     O_R   0.209970 0.310680 0.317300 -0.544084
C7    C     C_R   0.959077 0.667925 0.665811 0.704996
C8    C     C_R   0.040923 0.332075 0.334189 0.704993
V3    V     V_3+5 0.678400 0.751010 0.743570 1.407442
V4    V     V_3+5 0.321600 0.248990 0.256430 1.407442
O19   O     O_3   0.955950 0.744540 0.784620 -0.369417
O20   O     O_3   0.044050 0.255460 0.215380 -0.369417
C9    C     C_R   0.862776 0.422889 0.391354 -0.214915
C10   C     C_R   0.137224 0.577111 0.608646 -0.214912
C11   C     C_R   0.029934 0.381687 0.383404 -0.085591
C12   C     C_R   0.970066 0.618313 0.616596 -0.085590
C13   C     C_R   0.185270 0.388360 0.422540 -0.224579
C14   C     C_R   0.814730 0.611640 0.577460 -0.224580
C15   C     C_R   0.173552 0.434861 0.469378 0.091159
C16   C     C_R   0.826448 0.565139 0.530622 0.091159
C17   C     C_R   0.006041 0.476312 0.476654 0.053546
C18   C     C_R   0.993959 0.523688 0.523346 0.053546
C19   C     C_R   0.850556 0.470466 0.437325 0.088364
C20   C     C_R   0.149444 0.529534 0.562675 0.088363
C21   C     C_R   0.326239 0.440603 0.509198 -0.181225
C22   C     C_R   0.673761 0.559397 0.490802 -0.181225
C23   C     C_R   0.314403 0.487553 0.555382 -0.189399
C24   C     C_R   0.685597 0.512447 0.444618 -0.189399
H1    H     H_    0.742729 0.418588 0.361286 0.124844
H2    H     H_    0.257271 0.581412 0.638714 0.124845
H3    H     H_    0.314296 0.356753 0.416986 0.128428
H4    H     H_    0.685704 0.643247 0.583014 0.128428
H5    H     H_    0.455608 0.409048 0.504440 0.135589
H6    H     H_    0.544392 0.590951 0.495559 0.135589
H7    H     H_    0.435008 0.491289 0.585256 0.133974
H8    H     H_    0.564992 0.508711 0.414743 0.133973
C25   C     C_R   0.945943 0.914122 0.662937 -0.052108
C26   C     C_R   0.054057 0.085878 0.337063 -0.052108
C27   C     C_R   0.882536 0.033904 0.660643 -0.148583
C28   C     C_R   0.117464 0.966095 0.339357 -0.148583
C29   C     C_R   0.885753 0.975257 0.689662 -0.159693
C30   C     C_R   0.114247 0.024743 0.310338 -0.159693
C31   C     C_R   0.991668 0.911627 0.605514 -0.215128
C32   C     C_R   0.008332 0.088373 0.394486 -0.215128
C33   C     C_R   0.966630 0.969400 0.573221 0.092218
C34   C     C_R   0.033370 0.030600 0.426779 0.092218
C35   C     C_R   0.927831 0.031675 0.603332 0.095534
C36   C     C_R   0.072169 0.968325 0.396667 0.095534
C37   C     C_R   0.988677 0.968557 0.513061 0.001814
C38   C     C_R   0.011323 0.031443 0.486938 0.001813
C39   C     C_R   0.013293 0.092059 0.522432 0.163343
C40   C     C_R   0.986707 0.907941 0.477568 0.163344
C41   C     C_R   0.950044 0.091735 0.577631 -0.204782
C42   C     C_R   0.049955 0.908264 0.422369 -0.204783
H9    H     H_    0.938054 0.138982 0.602814 0.132151
H10   H     H_    0.061946 0.861018 0.397186 0.132151
H11   H     H_    0.949815 0.135330 0.412571 0.123706
H12   H     H_    0.050185 0.864670 0.587429 0.123706
H13   H     H_    0.151750 0.022036 0.266310 0.105511
H14   H     H_    0.848250 0.977964 0.733690 0.105511
H15   H     H_    0.847605 0.081414 0.683359 0.115601
H16   H     H_    0.152395 0.918586 0.316641 0.115601
C43   C     C_R   0.500675 0.584994 0.835427 -0.116834
C44   C     C_R   0.499324 0.415006 0.164573 -0.116828
C45   C     C_R   0.702717 0.484406 0.846001 0.404717
C46   C     C_R   0.297286 0.515594 0.153998 0.404722
C47   C     C_R   0.628605 0.535333 0.813189 -0.254327
C48   C     C_R   0.371399 0.464667 0.186811 -0.254345
C49   C     C_R   0.438551 0.581638 0.890848 -0.249053
C50   C     C_R   0.561445 0.418360 0.109151 -0.249049
C51   C     C_R   0.508998 0.529675 0.925539 0.030304
C52   C     C_R   0.490997 0.470322 0.074460 0.030302
C53   C     C_R   0.642493 0.480892 0.901865 0.038942
C54   C     C_R   0.357504 0.519107 0.098134 0.038956
C55   C     C_R   0.458046 0.525978 0.983439 0.086882
C56   C     C_R   0.541947 0.474019 0.016560 0.086884
C57   C     C_R   0.673249 0.427238 0.990606 -0.213099
C58   C     C_R   0.326742 0.572759 0.009392 -0.213112
C59   C     C_R   0.720553 0.430352 0.934648 -0.177919
C60   C     C_R   0.279440 0.569645 0.065350 -0.177904
H17   H     H_    0.822902 0.392947 0.917288 0.167822
H18   H     H_    0.177089 0.607050 0.082710 0.167829
H19   H     H_    0.654575 0.377509 0.093589 0.118179
H20   H     H_    0.345418 0.622489 0.906410 0.118181
H21   H     H_    0.320784 0.462022 0.229319 0.129314
H22   H     H_    0.679225 0.537980 0.770681 0.129325
H23   H     H_    0.744505 0.387380 0.012515 0.123883
H24   H     H_    0.255485 0.612616 0.987483 0.123885
C61   C     C_R   0.686150 0.074185 0.103772 -0.220564
C62   C     C_R   0.313850 0.925815 0.896228 -0.220564
C63   C     C_R   0.530052 0.119115 0.116108 -0.084847
C64   C     C_R   0.469947 0.880885 0.883892 -0.084847
C65   C     C_R   0.362196 0.116126 0.081424 -0.221221
C66   C     C_R   0.637804 0.883874 0.918576 -0.221221
C67   C     C_R   0.350184 0.069454 0.034734 0.089589
C68   C     C_R   0.649816 0.930546 0.965266 0.089589
C69   C     C_R   0.506144 0.023919 0.023205 0.053164
C70   C     C_R   0.493856 0.976081 0.976795 0.053164
C71   C     C_R   0.674251 0.026073 0.058052 0.090316
C72   C     C_R   0.325749 0.973927 0.941948 0.090316
C73   C     C_R   0.184864 0.067460 0.999323 -0.189879
C74   C     C_R   0.815136 0.932540 0.000677 -0.189879
C75   C     C_R   0.172909 0.020221 0.953316 -0.182380
C76   C     C_R   0.827090 0.979779 0.046684 -0.182379
H25   H     H_    0.815438 0.075745 0.130463 0.123318
H26   H     H_    0.184562 0.924255 0.869537 0.123318
H27   H     H_    0.241531 0.150704 0.090406 0.127145
H28   H     H_    0.758468 0.849296 0.909594 0.127145
H29   H     H_    0.063988 0.102190 0.007421 0.133695
H30   H     H_    0.936011 0.897810 0.992579 0.133695
H31   H     H_    0.043245 0.019606 0.926824 0.134956
H32   H     H_    0.956755 0.980394 0.073176 0.134956
O21   O     O_3   0.835389 0.437820 0.823133 -0.557513
C77   C     C_3   0.019482 0.466467 0.826522 0.079400
H33   H     H_    0.058205 0.484378 0.870660 0.125070
H34   H     H_    0.024849 0.509310 0.798687 0.124083
C78   C     C_3   0.169859 0.413433 0.807225 -0.675505
H35   H     H_    0.137014 0.394865 0.763100 0.223433
H36   H     H_    0.314866 0.435509 0.809296 0.189934
H37   H     H_    0.170685 0.370530 0.834943 0.219367
O22   O     O_3   0.164618 0.562182 0.176866 -0.557515
C79   C     C_3   0.980531 0.533530 0.173494 0.079406
H38   H     H_    0.975180 0.490709 0.201352 0.124082
H39   H     H_    0.941804 0.515586 0.129363 0.125065
C80   C     C_3   0.830145 0.586574 0.192765 -0.675513
H40   H     H_    0.829288 0.629449 0.165019 0.219356
H41   H     H_    0.685147 0.564492 0.190715 0.189933
H42   H     H_    0.863006 0.605181 0.236879 0.223445
C81   C     C_3   0.108761 0.155715 0.507822 -0.796880
H43   H     H_    0.215774 0.146008 0.474285 0.214667
H44   H     H_    0.998210 0.194251 0.496054 0.203426
H45   H     H_    0.192603 0.177033 0.544884 0.212024
C82   C     C_3   0.891239 0.844285 0.492178 -0.796882
H46   H     H_    0.001790 0.805748 0.503946 0.203427
H47   H     H_    0.784226 0.853992 0.525715 0.214667
H48   H     H_    0.807397 0.822967 0.455116 0.212024

loop_
_geom_bond_atom_site_label_1
_geom_bond_atom_site_label_2
_ccdc_geom_bond_type
C26   C30   A    
C1    C43   S    
C31   C33   A    
C67   C73   A    
O11   V3    S    
O13   V3    S    
C17   C18   A    
C34   C36   A    
C55   C56   A    
O4    C2    A    
V1    O19   S    
C77   C78   S    
C64   C66   A    
C80   H40   S    
C55   C58   A    
C15   C17   A    
C34   C38   A    
C71   C76   A    
C16   C22   A    
C78   H36   S    
O9    V1    S    
C18   C20   A    
C11   C13   A    
C3    C64   S    
O3    C1    A    
C81   H44   S    
C13   H3    S    
C46   C48   A    
C14   H4    S    
C29   H14   S    
C36   C42   A    
C52   C56   A    
C58   H24   S    
C76   H32   S    
C28   C30   A    
C32   H11   S    
O7    C3    A    
C46   C54   A    
C61   C63   A    
C27   C35   A    
O5    C7    A    
C45   C53   A    
O7    V1    S    
O6    C8    A    
C8    C11   S    
O8    V2    S    
C33   C35   A    
O3    V1    S    
C38   C39   A    
C35   C41   A    
C49   C51   A    
C19   C24   A    
C53   C59   A    
C10   C12   A    
C20   C23   A    
C15   C21   A    
C21   C23   A    
C21   H5    S    
C2    O12   A    
O17   V3    S    
C41   H9    S    
C79   C80   S    
C22   H6    S    
O22   C79   S    
C44   C50   A    
O1    V3    S    
C80   H41   S    
C25   C31   A    
C70   C72   A    
C45   C47   A    
C26   C32   A    
C4    C63   S    
C43   C49   A    
C78   H37   S    
C22   C24   A    
C10   H2    S    
C27   C29   A    
C65   H27   S    
C9    C19   A    
C6    C26   S    
C44   C48   A    
C30   H13   S    
C10   C20   A    
C40   C42   A    
C57   C59   A    
C81   H45   S    
C62   C72   A    
C39   C41   A    
O13   V1    S    
C77   H34   S    
C1    O11   A    
C67   C69   A    
O15   V3    S    
C32   C34   A    
C37   C40   A    
V4    O20   S    
C51   C53   A    
C66   H28   S    
C50   C52   A    
C54   C60   A    
C56   C57   A    
O10   V2    S    
C5    C25   S    
C60   H18   S    
C63   C65   A    
C82   H48   S    
C68   C74   A    
C62   H26   S    
O14   V4    S    
C61   H25   S    
C59   H17   S    
O18   V4    S    
C58   C60   A    
O15   C5    A    
C49   H20   S    
O8    C4    A    
O21   C77   S    
O16   C6    A    
C82   H47   S    
C42   H10   S    
O12   V4    S    
C74   C76   A    
C12   C14   A    
C80   H42   S    
C61   C71   A    
C23   H7    S    
V2    O20   S    
C24   H8    S    
C40   C82   S    
O16   V4    S    
C75   H31   S    
C2    C44   S    
C17   C19   A    
C27   H15   S    
C73   H29   S    
C16   C18   A    
C43   C47   A    
C66   C68   A    
C72   C75   A    
C25   C29   A    
C77   H33   S    
O5    V1    S    
O4    V2    S    
C7    C12   S    
O17   C7    A    
O6    V2    S    
C78   H35   S    
O10   C6    A    
O18   C8    A    
O2    V4    S    
C28   H16   S    
C69   C71   A    
V3    O19   S    
C81   H43   S    
C14   C16   A    
C48   H21   S    
C52   C54   A    
C39   C81   S    
C47   H22   S    
C33   C37   A    
O9    C5    A    
C9    C11   A    
C68   C70   A    
O14   V2    S    
C37   C38   A    
O2    C4    A    
C62   C64   A    
C50   H19   S    
C73   C75   A    
C51   C55   A    
C57   H23   S    
O1    C3    A    
C28   C36   A    
C13   C15   A    
C79   H38   S    
C82   H46   S    
C69   C70   A    
C9    H1    S    
C74   H30   S    
C79   H39   S    
C46   O22   S    
C45   O21   S    
C65   C67   A    
C31   H12   S    
