data_mof_unit_37438.cif
_audit_creation_date              2012-12-10T17:19:41-0500
_audit_creation_method            fapswitch 2.2
_symmetry_space_group_name_H-M    P1
_symmetry_Int_Tables_number       1
_space_group_crystal_system       triclinic
_cell_length_a                    10.201752
_cell_length_b                    10.650544
_cell_length_c                    11.529518
_cell_angle_alpha                 90.694461
_cell_angle_beta                  81.402474
_cell_angle_gamma                 95.656037
_cell_volume                      1232.61876472

loop_
_atom_site_label
_atom_site_type_symbol
_atom_type_description
_atom_site_fract_x
_atom_site_fract_y
_atom_site_fract_z
_atom_type_partial_charge
C1    C     C_R   0.556069 0.733897 0.503080 0.813726
C2    C     C_2   0.412531 0.131088 0.551995 0.188935
C3    C     C_2   0.491708 0.930762 0.597780 0.351831
C4    C     C_2   0.506606 0.071032 0.595029 0.341443
C5    C     C_2   0.922194 0.473916 0.531147 0.515518
C6    C     C_2   0.072884 0.473809 0.500070 0.528365
C7    C     C_3   0.656617 0.109064 0.727907 0.066967
C8    C     C_3   0.635998 0.220888 0.810126 -0.359217
C9    C     C_3   0.675855 0.195905 0.929541 -0.925633
C10   C     C_3   0.337126 0.895071 0.766426 0.053662
C11   C     C_3   0.393978 0.803733 0.842660 -0.395265
C12   C     C_R   0.443753 0.265752 0.516373 0.819686
C13   C     C_3   0.369507 0.840272 0.971860 -0.895695
C14   C     C_3   0.178253 0.120545 0.584925 0.132271
C15   C     C_3   0.171597 0.157432 0.715729 -0.404577
C16   C     C_3   0.067770 0.249816 0.750830 -0.931611
C17   C     C_3   0.820887 0.878631 0.522953 0.135066
C18   C     C_3   0.803827 0.825063 0.649886 -0.413813
C19   C     C_3   0.926470 0.857878 0.709594 -0.866315
C20   C     C_R   0.500278 0.500701 0.717841 0.842676
C21   C     C_R   0.499936 0.500111 0.282118 0.914083
C22   C     C_1   0.500766 0.502009 0.838295 -0.197782
C23   C     C_1   0.500058 0.501255 0.161559 -0.169337
C24   C     C_1   0.500716 0.502548 0.940537 0.014956
C25   C     C_1   0.500347 0.502166 0.059280 -0.000356
C26   C     C_2   0.587192 0.868163 0.532950 0.192224
H1    H     H_    0.763215 0.092419 0.716196 0.181756
H2    H     H_    0.344929 0.707401 0.832311 0.245617
H3    H     H_    0.502635 0.802593 0.814222 0.197066
H4    H     H_    0.419482 0.935726 0.984947 0.257218
H5    H     H_    0.410583 0.771558 0.024864 0.273860
H6    H     H_    0.260992 0.839662 0.002913 0.268529
H7    H     H_    0.091023 0.052497 0.577689 0.143461
H8    H     H_    0.163407 0.199121 0.529036 0.192354
H9    H     H_    0.144171 0.071819 0.770971 0.206867
H10   H     H_    0.268459 0.202292 0.735878 0.205242
H11   H     H_    0.102415 0.342336 0.708208 0.270607
H12   H     H_    0.599329 0.023719 0.770847 0.105138
H13   H     H_    0.053997 0.263402 0.847365 0.272626
H14   H     H_    0.970780 0.213979 0.724445 0.249105
H15   H     H_    0.905006 0.953778 0.511426 0.167562
H16   H     H_    0.851860 0.805457 0.457932 0.168970
H17   H     H_    0.718102 0.859908 0.706606 0.184907
H18   H     H_    0.784295 0.720937 0.646928 0.274644
H19   H     H_    0.920480 0.797858 0.788664 0.278773
H20   H     H_    0.931086 0.957908 0.737657 0.233963
H21   H     H_    0.018654 0.842863 0.649174 0.307062
H22   H     H_    0.054749 0.318247 0.412620 0.324681
H23   H     H_    0.697492 0.305847 0.770707 0.277044
H24   H     H_    0.930754 0.480235 0.697729 0.334572
H25   H     H_    0.187412 0.674073 0.657096 0.391988
H26   H     H_    0.829898 0.425567 0.294627 0.380424
H27   H     H_    0.529263 0.238463 0.822075 0.201249
H28   H     H_    0.613524 0.113012 0.972320 0.263559
H29   H     H_    0.661200 0.279413 0.986805 0.276793
H30   H     H_    0.782427 0.178096 0.919555 0.266176
H31   H     H_    0.226968 0.880931 0.788153 0.174258
H32   H     H_    0.366580 0.994756 0.788788 0.114086
N1    N     N_2   0.842700 0.448890 0.453570 0.033363
N2    N     N_2   0.157300 0.551110 0.546430 0.029486
O1    O     O_R   0.431060 0.692470 0.509350 -0.553092
O2    O     O_3   0.370609 0.866395 0.646115 -0.617996
O3    O     O_3   0.292824 0.061312 0.537466 -0.627564
O4    O     O_3   0.709732 0.934449 0.492135 -0.634593
O5    O     O_3   0.125328 0.387253 0.420735 -0.740067
O6    O     O_3   0.865683 0.495076 0.645010 -0.773551
O7    O     O_3   0.108747 0.634972 0.624670 -0.748764
O8    O     O_3   0.902540 0.443386 0.341848 -0.722650
O9    O     O_R   0.568940 0.307530 0.490650 -0.550643
O10   O     O_R   0.651120 0.659650 0.479540 -0.623647
O11   O     O_R   0.348880 0.340350 0.520460 -0.594076
O12   O     O_R   0.389960 0.516400 0.680450 -0.629007
O13   O     O_R   0.610040 0.483600 0.319550 -0.632556
O14   O     O_R   0.610030 0.483580 0.650650 -0.556734
O15   O     O_R   0.389970 0.516420 0.349350 -0.545588
O16   O     O_3   0.625145 0.137743 0.616302 -0.608864
Zn1   Zn    Zn3+2 0.353060 0.521910 0.519900 1.029663
Zn2   Zn    Zn3+2 0.646940 0.478090 0.480100 1.024918

loop_
_geom_bond_atom_site_label_1
_geom_bond_atom_site_label_2
_ccdc_geom_bond_type
C8    H27   S    
C14   H8    S    
C2    C4    D    
C12   O9    A    
C19   H19   S    
C7    O16   S    
C9    H29   S    
C18   H18   S    
H22   O5    S    
O10   Zn2   S    
C3    C26   D    
H24   O6    S    
C1    C26   S    
C21   O15   A    
C13   H6    S    
C1    O10   A    
H26   O8    S    
C16   H11   S    
O13   Zn2   S    
C2    C12   S    
C14   H7    S    
C21   C23   S    
C17   C18   S    
C19   H20   S    
C20   O14   A    
C7    C8    S    
N2    O7    S    
C9    H30   S    
H25   O7    S    
C18   H17   S    
C2    O3    S    
C13   H5    S    
C11   C13   S    
C6    N2    D    
O9    Zn2   S    
C10   O2    S    
C11   H2    S    
C16   H14   S    
C14   O3    S    
N1    Zn2   S    
C15   H9    S    
C10   H32   S    
C12   O11   A    
C20   C22   S    
C17   H15   S    
C23   C25   T    
C17   O4    S    
C5    C6    S    
N1    O8    S    
C19   H21   S    
N2    Zn1   S    
C4    O16   S    
C10   C11   S    
C5    N1    D    
C16   H13   S    
C3    C4    S    
C21   O13   A    
C13   H4    S    
O11   Zn1   S    
C10   H31   S    
C7    H1    S    
C24   C25   S    
C11   H3    S    
C18   C19   S    
O14   Zn2   S    
C3    O2    S    
O15   Zn1   S    
C26   O4    S    
C14   C15   S    
C20   O12   A    
C5    O6    S    
C9    H28   S    
O12   Zn1   S    
C15   H10   S    
C17   H16   S    
C8    H23   S    
C7    H12   S    
C6    O5    S    
C15   C16   S    
C22   C24   T    
O1    Zn1   S    
C8    C9    S    
C1    O1    A    
