data_mof_unit_28203.cif
_audit_creation_date              2012-12-10T17:54:28-0500
_audit_creation_method            fapswitch 2.2
_symmetry_space_group_name_H-M    P1
_symmetry_Int_Tables_number       1
_space_group_crystal_system       triclinic
_cell_length_a                    27.659624
_cell_length_b                    10.705732
_cell_length_c                    9.910778
_cell_angle_alpha                 90.343543
_cell_angle_beta                  90.73049
_cell_angle_gamma                 92.362381
_cell_volume                      2931.95011836

loop_
_atom_site_label
_atom_site_type_symbol
_atom_type_description
_atom_site_fract_x
_atom_site_fract_y
_atom_site_fract_z
_atom_type_partial_charge
C1    C     C_R   0.505079 0.261475 0.500098 0.919566
C2    C     C_R   0.975519 0.430664 0.594576 0.053450
C3    C     C_R   0.976476 0.637885 0.486908 0.044364
C4    C     C_R   0.406395 0.503424 0.499502 0.960210
C5    C     C_R   0.950673 0.531102 0.537160 0.070095
C6    C     C_R   0.948487 0.322045 0.633326 -0.216077
C7    C     C_R   0.898409 0.315302 0.622598 -0.134938
C8    C     C_R   0.873526 0.416266 0.572433 -0.022950
C9    C     C_R   0.899494 0.524421 0.529429 -0.052160
C10   C     C_R   0.874205 0.625725 0.478327 -0.021745
C11   C     C_R   0.823624 0.617356 0.472109 0.507087
C12   C     C_R   0.274686 0.442243 0.428745 -0.063050
C13   C     C_R   0.822990 0.411333 0.563044 0.508585
C14   C     C_R   0.722124 0.506746 0.630818 -0.094611
C15   C     C_R   0.671912 0.503994 0.627763 -0.208287
C16   C     C_R   0.497171 0.740011 0.501714 0.899458
C17   C     C_R   0.672706 0.499318 0.382588 -0.195829
C18   C     C_R   0.723005 0.501883 0.386027 -0.091546
C19   C     C_R   0.747692 0.505999 0.510121 0.309061
C20   C     C_R   0.026510 0.440452 0.608483 0.049828
C21   C     C_R   0.052498 0.540793 0.546703 0.076599
C22   C     C_R   0.027691 0.638870 0.483625 0.046721
C23   C     C_R   0.254503 0.532317 0.511288 0.240768
C24   C     C_R   0.052278 0.354494 0.685504 -0.295361
C25   C     C_R   0.105045 0.731877 0.412594 -0.125514
C26   C     C_R   0.949946 0.739682 0.440511 -0.216305
C27   C     C_R   0.899757 0.733401 0.436272 -0.132549
C28   C     C_R   0.593978 0.500114 0.500881 0.857531
C29   C     C_R   0.055055 0.733357 0.416582 -0.215866
C30   C     C_R   0.539439 0.125415 0.740740 -0.169324
C31   C     C_R   0.534881 0.070150 0.867095 0.452509
C32   C     C_R   0.510229 0.955047 0.878352 -0.206791
C33   C     C_R   0.494006 0.890910 0.762394 -0.161155
C34   C     C_R   0.103720 0.541791 0.545669 -0.069384
C35   C     C_R   0.502381 0.941331 0.631862 0.112517
C36   C     C_R   0.518575 0.066314 0.624225 0.047472
C37   C     C_R   0.511160 0.129168 0.501188 -0.095724
C38   C     C_R   0.500425 0.063465 0.381841 -0.161335
C39   C     C_R   0.494279 0.936308 0.384656 -0.189137
C40   C     C_R   0.179330 0.443183 0.593228 0.551426
C41   C     C_R   0.495377 0.874012 0.507930 -0.087267
C42   C     C_R   0.426085 0.372690 0.140748 -0.112644
C43   C     C_R   0.381413 0.348823 0.079512 -0.344062
C44   C     C_R   0.376013 0.366920 0.941878 -0.072583
C45   C     C_R   0.128983 0.447290 0.612628 -0.056075
C46   C     C_R   0.418220 0.385423 0.865108 0.440052
C47   C     C_R   0.461260 0.440879 0.927574 0.066452
C48   C     C_R   0.462884 0.438420 0.071977 0.150033
C49   C     C_R   0.536020 0.557979 0.072951 -0.071067
C50   C     C_R   0.536282 0.556839 0.929916 -0.100767
C51   C     C_R   0.179880 0.632520 0.467194 0.515365
C52   C     C_R   0.284180 0.616619 0.585878 -0.096528
C53   C     C_R   0.334174 0.609891 0.580680 0.357562
C54   C     C_R   0.324660 0.434769 0.423200 -0.215763
C55   C     C_2   0.327524 0.341724 0.879357 0.555175
C56   C     C_R   0.102680 0.359211 0.692253 0.001774
C57   C     C_2   0.125139 0.274846 0.790918 0.516057
C58   C     C_R   0.129656 0.636535 0.475469 -0.016089
C59   C     C_R   0.354490 0.517291 0.499946 -0.086005
C60   C     C_R   0.646833 0.500780 0.503573 -0.042119
Cl1   Cl    Cl    0.557232 0.149205 0.012000 -0.645434
Cl2   Cl    Cl    0.420271 0.264478 0.745325 -0.543700
Cl3   Cl    Cl    0.369947 0.720000 0.674901 -0.618657
H1    H     H_    0.340045 0.362013 0.363303 0.151918
H2    H     H_    0.559078 0.214704 0.734930 0.178219
H3    H     H_    0.251593 0.376769 0.371294 0.153540
H4    H     H_    0.504009 0.914371 0.976734 0.166867
H5    H     H_    0.473047 0.805293 0.778638 0.220759
H6    H     H_    0.487983 0.887075 0.289764 0.178960
H7    H     H_    0.565363 0.605982 0.127858 0.143068
H8    H     H_    0.430913 0.339931 0.241489 0.210727
H9    H     H_    0.351600 0.310613 0.138028 0.162709
H10   H     H_    0.565818 0.603780 0.877493 0.142064
H11   H     H_    0.652843 0.505202 0.722508 0.166977
H12   H     H_    0.268183 0.686231 0.649184 0.177058
H13   H     H_    0.741281 0.510390 0.726839 0.146036
H14   H     H_    0.879273 0.230132 0.653656 0.193413
H15   H     H_    0.965191 0.238705 0.668249 0.146093
H16   H     H_    0.033673 0.286700 0.748615 0.133642
H17   H     H_    0.297440 0.309139 0.940998 0.075032
H18   H     H_    0.109814 0.180851 0.804588 0.033642
H19   H     H_    0.124327 0.805285 0.357863 0.194184
H20   H     H_    0.966855 0.826998 0.409168 0.143852
H21   H     H_    0.654187 0.496665 0.285602 0.170431
H22   H     H_    0.881050 0.813571 0.399307 0.193214
H23   H     H_    0.742862 0.501078 0.292581 0.147027
H24   H     H_    0.038886 0.807614 0.361368 0.145027
H25   H     H_    0.495724 0.110208 0.286156 0.206493
N1    N     N_R   0.203291 0.535847 0.523590 -0.357775
N2    N     N_R   0.799279 0.511254 0.514072 -0.357434
N3    N     N_R   0.499540 0.498800 0.142780 -0.110499
N4    N     N_R   0.499520 0.498720 0.857170 -0.112216
O1    O     O_R   0.500000 0.316780 0.614690 -0.571391
O2    O     O_R   0.571250 0.499990 0.614680 -0.637553
O3    O     O_R   0.571240 0.499970 0.385350 -0.617102
O4    O     O_2   0.204216 0.346056 0.639084 -0.483327
O5    O     O_2   0.320297 0.359650 0.759433 -0.510554
O6    O     O_2   0.158403 0.312269 0.864728 -0.517460
O7    O     O_2   0.797644 0.307592 0.602109 -0.546944
O8    O     O_2   0.205199 0.722967 0.400873 -0.541937
O9    O     O_2   0.798858 0.714680 0.425731 -0.549832
O10   O     O_R   0.500000 0.316750 0.385360 -0.638205
O11   O     O_R   0.428760 0.500030 0.614650 -0.555138
O12   O     O_R   0.428750 0.500010 0.385320 -0.655102
O13   O     O_R   0.500000 0.683250 0.614640 -0.631586
O14   O     O_R   0.500000 0.683220 0.385310 -0.622823
Zn1   Zn    Zn3+2 0.500000 0.500020 0.653130 1.003529
Zn2   Zn    Zn3+2 0.500000 0.499980 0.346870 0.971082

loop_
_geom_bond_atom_site_label_1
_geom_bond_atom_site_label_2
_ccdc_geom_bond_type
C10   C27   A    
C8    C13   A    
C22   C29   A    
C13   N2    A    
C15   C60   A    
C31   Cl1   S    
C35   C36   A    
C11   N2    A    
C52   H12   S    
C53   C59   A    
C7    C8    A    
C39   C41   A    
O13   Zn1   S    
C12   C23   A    
C26   C27   A    
C18   H23   S    
O14   Zn2   S    
C46   Cl2   S    
C28   O3    A    
C36   C37   A    
C49   N3    A    
C30   C31   A    
C6    H15   S    
C4    O11   A    
C26   H20   S    
C56   C57   S    
C28   O2    A    
C18   C19   A    
C47   N4    A    
C27   H22   S    
N4    Zn1   S    
C20   C24   A    
C45   C56   A    
C8    C9    A    
C48   N3    A    
C23   N1    S    
O10   Zn2   S    
C40   N1    A    
C9    C10   A    
C16   O14   A    
C7    H14   S    
C21   C22   A    
C2    C6    A    
C40   O4    S    
N3    Zn2   S    
C44   C46   A    
C54   C59   A    
C28   C60   S    
C25   C29   A    
C40   C45   A    
O2    Zn1   S    
C2    C20   A    
O3    Zn2   S    
C50   H10   S    
C51   C58   A    
C21   C34   A    
C12   H3    S    
C38   H25   S    
C14   H13   S    
C13   O7    S    
C43   C44   A    
C5    C9    A    
C37   C38   A    
C24   H16   S    
C47   C48   A    
C55   O5    D    
C17   C18   A    
C39   H6    S    
C11   O9    S    
C34   C45   A    
C42   C48   A    
C16   O13   A    
C32   H4    S    
C50   N4    A    
C49   H7    S    
C25   H19   S    
C57   H18   S    
C2    C5    A    
C42   C43   A    
O12   Zn2   S    
C52   C53   A    
C51   O8    S    
C43   H9    S    
C46   C47   A    
C14   C19   A    
C31   C32   A    
C3    C5    A    
C6    C7    A    
C1    C37   S    
C24   C56   A    
C3    C26   A    
C30   C36   A    
C17   H21   S    
C32   C33   A    
C19   N2    S    
O1    Zn1   S    
C55   H17   S    
C53   Cl3   S    
C44   C55   S    
C23   C52   A    
C38   C39   A    
C54   H1    S    
C57   O6    D    
C4    O12   A    
C4    C59   S    
C42   H8    S    
C33   C35   A    
C35   C41   A    
C12   C54   A    
C29   H24   S    
C30   H2    S    
C10   C11   A    
C17   C60   A    
C15   H11   S    
C20   C21   A    
C1    O1    A    
C49   C50   A    
C25   C58   A    
C34   C58   A    
C14   C15   A    
C3    C22   A    
O11   Zn1   S    
C1    O10   A    
C51   N1    A    
C33   H5    S    
C16   C41   S    
