data_mof_unit_28978.cif
_audit_creation_date              2012-12-10T16:38:29-0500
_audit_creation_method            fapswitch 2.2
_symmetry_space_group_name_H-M    P1
_symmetry_Int_Tables_number       1
_space_group_crystal_system       triclinic
_cell_length_a                    10.843937
_cell_length_b                    10.878441
_cell_length_c                    17.712547
_cell_angle_alpha                 98.377072
_cell_angle_beta                  72.84316
_cell_angle_gamma                 98.67044
_cell_volume                      1962.30341516

loop_
_atom_site_label
_atom_site_type_symbol
_atom_type_description
_atom_site_fract_x
_atom_site_fract_y
_atom_site_fract_z
_atom_type_partial_charge
C1    C     C_R   0.157187 0.479006 0.518116 0.537662
C2    C     C_R   0.662699 0.443057 0.908586 0.239178
C3    C     C_R   0.705328 0.366586 0.951177 0.298128
C4    C     C_R   0.843426 0.521618 0.482552 0.525747
C5    C     C_R   0.681883 0.393779 0.034402 -0.069813
C6    C     C_R   0.581684 0.467830 0.076374 -0.061535
C7    C     C_R   0.759390 0.354473 0.076523 0.250193
C8    C     C_R   0.711863 0.355625 0.160163 0.209872
C9    C     C_R   0.526302 0.458828 0.158886 0.141406
C10   C     C_2   0.982047 0.532895 0.475979 0.264927
C11   C     C_2   0.021471 0.472960 0.524014 -0.049540
C12   C     C_R   0.371248 0.712676 0.835591 -0.104739
C13   C     C_2   0.541902 0.967451 0.479886 -0.052864
C14   C     C_2   0.448948 0.036476 0.525763 0.281753
C15   C     C_R   0.469202 0.168465 0.516760 0.482851
C16   C     C_R   0.530040 0.833187 0.482960 0.530360
C17   C     C_R   0.563264 0.437401 0.287485 0.579699
C18   C     C_R   0.437009 0.564030 0.712706 0.518759
C19   C     C_R   0.425113 0.603191 0.797571 0.030406
C20   C     C_R   0.596354 0.409715 0.200730 -0.007251
C21   C     C_R   0.374742 0.755875 0.913130 -0.057413
C22   C     C_3   0.078864 0.724891 0.441857 -0.060760
C23   C     C_R   0.480662 0.537024 0.838594 -0.046763
C24   C     C_3   0.264024 0.062564 0.632557 -0.076769
C25   C     C_R   0.498402 0.585874 0.913006 0.021126
C26   C     C_R   0.437339 0.693269 0.953203 0.034852
C27   C     C_R   0.567982 0.524928 0.950475 -0.030355
C28   C     C_R   0.540875 0.547420 0.033984 -0.025206
C29   C     C_R   0.488780 0.658761 0.071923 -0.009244
C30   C     C_R   0.440030 0.733601 0.032263 0.260088
H1    H     H_    0.953542 0.419493 0.569141 0.085715
H2    H     H_    0.985441 0.762079 0.449260 0.135896
H3    H     H_    0.154329 0.774420 0.395629 0.193275
H4    H     H_    0.224072 0.132454 0.609101 0.126884
H5    H     H_    0.327514 0.109579 0.669989 0.140390
H6    H     H_    0.180718 0.008010 0.671305 0.161149
H7    H     H_    0.354906 0.593918 0.319217 0.343159
H8    H     H_    0.725864 0.193644 0.323981 0.350038
H9    H     H_    0.912875 0.133603 0.826761 0.363241
H10   H     H_    0.765026 0.382733 0.691386 0.365929
H11   H     H_    0.629347 0.011350 0.440480 0.071580
H12   H     H_    0.328605 0.838833 0.940597 0.206608
H13   H     H_    0.327217 0.765616 0.805246 0.162053
H14   H     H_    0.510669 0.446872 0.811777 0.196565
H15   H     H_    0.489350 0.689427 0.132601 0.220887
H16   H     H_    0.374377 0.981071 0.198198 0.392799
H17   H     H_    0.108150 0.404292 0.060926 0.392248
H18   H     H_    0.108152 0.746328 0.497978 0.131488
O1    O     O_3   0.500000 0.500000 0.500000 -0.476565
O2    O     O_R   0.470800 0.371790 0.332500 -0.466494
O3    O     O_R   0.380610 0.619380 0.674980 -0.535161
O4    O     O_R   0.632640 0.524780 0.317540 -0.513586
O5    O     O_R   0.515950 0.484050 0.674980 -0.524260
O6    O     O_2   0.441131 0.981196 0.037892 -0.226810
O7    O     O_2   0.233929 0.859824 0.097253 -0.222485
O8    O     O_3   0.408800 0.900668 0.174231 -0.479165
O9    O     O_2   0.955772 0.213949 0.003712 -0.166420
O10   O     O_2   0.972093 0.419066 0.957465 -0.232052
O11   O     O_3   0.016723 0.412575 0.091588 -0.414251
O12   O     O_R   0.535460 0.243030 0.556410 -0.551770
O13   O     O_3   0.071639 0.595644 0.416533 -0.513522
O14   O     O_3   0.330433 0.979540 0.570098 -0.553882
O15   O     O_2   0.286343 0.485656 0.147488 -0.208387
O16   O     O_2   0.293671 0.374792 0.254923 -0.203827
O17   O     O_3   0.351352 0.616073 0.267669 -0.488142
O18   O     O_2   0.870686 0.185756 0.163618 -0.153259
O19   O     O_2   0.874505 0.381730 0.251582 -0.198217
O20   O     O_3   0.677129 0.212746 0.288611 -0.529038
O21   O     O_2   0.719200 0.125913 0.966238 -0.209618
O22   O     O_2   0.660203 0.167411 0.850415 -0.232678
O23   O     O_R   0.437420 0.784080 0.535340 -0.482457
O24   O     O_3   0.901011 0.220698 0.850647 -0.414062
O25   O     O_2   0.756377 0.592918 0.789501 -0.294955
O26   O     O_2   0.902030 0.455035 0.805476 -0.189995
O27   O     O_3   0.716522 0.355205 0.744029 -0.491647
O28   O     O_R   0.223560 0.397520 0.472140 -0.508911
O29   O     O_R   0.803560 0.575360 0.436110 -0.491170
O30   O     O_R   0.209690 0.568800 0.556400 -0.534560
O31   O     O_R   0.763190 0.458310 0.535350 -0.576323
O32   O     O_R   0.414000 0.207090 0.472140 -0.525251
O33   O     O_R   0.613120 0.765800 0.436110 -0.543428
S1    S     S_3+6 0.378258 0.872942 0.085128 0.071063
S2    S     S_3+6 0.928890 0.347524 0.029044 0.132256
S3    S     S_3+6 0.359557 0.481475 0.206903 0.074708
S4    S     S_3+6 0.789646 0.283085 0.215346 0.113578
S5    S     S_3+6 0.744527 0.215220 0.904663 0.134613
S6    S     S_3+6 0.763241 0.465412 0.810297 0.052092
Zn1   Zn    Zn3+2 0.577310 0.422690 0.565550 0.957388
Zn2   Zn    Zn3+2 0.403760 0.371330 0.445150 1.022493
Zn3   Zn    Zn3+2 0.634990 0.589920 0.423760 1.016778
Zn4   Zn    Zn3+2 0.383940 0.616050 0.565540 0.982723

loop_
_geom_bond_atom_site_label_1
_geom_bond_atom_site_label_2
_ccdc_geom_bond_type
C22   H18   S    
C21   C26   A    
O20   S4    S    
C15   O12   A    
C7    S2    S    
C1    C11   S    
O1    Zn3   S    
O18   S4    D    
C13   H11   S    
O12   Zn1   S    
C7    C8    A    
C24   H6    S    
C22   H2    S    
C28   C29   A    
O11   S2    S    
C18   C19   S    
C12   H13   S    
C5    C6    A    
C14   O14   S    
C17   C20   S    
C8    S4    S    
O32   Zn2   S    
O16   S3    D    
C9    C20   A    
C18   O5    A    
O3    Zn4   S    
O4    Zn3   S    
O25   S6    D    
H7    O17   S    
H9    O24   S    
O9    S2    D    
C2    C27   A    
O26   S6    D    
O28   Zn2   S    
C11   H1    S    
C13   C14   D    
C3    S5    S    
C1    O30   A    
O1    Zn1   S    
C16   O23   A    
O1    Zn4   S    
C17   O4    A    
O31   Zn1   S    
C18   O3    A    
C6    C28   A    
O29   Zn3   S    
O19   S4    D    
C24   H5    S    
C4    O31   A    
C5    C7    A    
O17   S3    S    
C25   C26   A    
C12   C21   A    
C24   H4    S    
C23   H14   S    
C29   H15   S    
C30   S1    S    
C19   C23   A    
C29   C30   A    
O2    Zn2   S    
C15   O32   A    
C2    S6    S    
C8    C20   A    
O7    S1    D    
O33   Zn3   S    
O27   S6    S    
H8    O20   S    
C26   C30   A    
C10   O13   S    
C4    C10   S    
O22   S5    D    
O6    S1    D    
C22   H3    S    
C24   O14   S    
C1    O28   A    
O1    Zn2   S    
C3    C5    A    
C17   O2    A    
O24   S5    S    
O8    S1    S    
O30   Zn4   S    
C25   C27   A    
H10   O27   S    
O15   S3    D    
C2    C3    A    
C4    O29   A    
O10   S2    D    
C22   O13   S    
C12   C19   A    
C16   O33   A    
O5    Zn1   S    
C23   C25   A    
C10   C11   D    
C9    S3    S    
H17   O11   S    
C21   H12   S    
C6    C9    A    
O23   Zn4   S    
C13   C16   S    
H16   O8    S    
C27   C28   A    
C14   C15   S    
O21   S5    D    
