data_mof_unit_10992.cif
_audit_creation_date              2012-12-10T20:43:36-0500
_audit_creation_method            fapswitch 2.2
_symmetry_space_group_name_H-M    P1
_symmetry_Int_Tables_number       1
_space_group_crystal_system       triclinic
_cell_length_a                    18.664258
_cell_length_b                    18.690663
_cell_length_c                    18.745458
_cell_angle_alpha                 109.431988
_cell_angle_beta                  109.377113
_cell_angle_gamma                 109.26038
_cell_volume                      5055.21872458

loop_
_atom_site_label
_atom_site_type_symbol
_atom_type_description
_atom_site_fract_x
_atom_site_fract_y
_atom_site_fract_z
_atom_type_partial_charge
C1    C     C_R   0.381508 0.501908 0.380139 0.865379
C2    C     C_R   0.789060 0.806895 0.831639 -0.100465
C3    C     C_R   0.939822 0.726758 0.951321 -0.127870
C4    C     C_R   0.935796 0.712385 0.018773 -0.226635
C5    C     C_R   0.999691 0.774864 0.105723 0.137809
C6    C     C_R   0.283874 0.545724 0.956649 -0.155585
C7    C     C_R   0.200571 0.476057 0.891055 -0.088537
C8    C     C_R   0.169803 0.395875 0.889696 0.112108
C9    C     C_R   0.225535 0.384883 0.951700 -0.197085
C10   C     C_R   0.308645 0.454766 0.017424 -0.118103
C11   C     C_R   0.337601 0.535281 0.020187 -0.105608
C12   C     C_R   0.077868 0.253984 0.755166 -0.250631
C13   C     C_R   0.825037 0.819026 0.576882 -0.250823
C14   C     C_R   0.997049 0.183806 0.685733 -0.077250
C15   C     C_R   0.918021 0.178882 0.679583 -0.003513
C16   C     C_R   0.922365 0.244386 0.746226 -0.279108
C17   C     C_R   0.003174 0.314884 0.815427 -0.089550
C18   C     C_R   0.082151 0.321426 0.819529 -0.015556
C19   C     C_R   0.771404 0.126967 0.558064 -0.153462
C20   C     C_R   0.689209 0.059947 0.487535 -0.142474
C21   C     C_R   0.665605 0.972925 0.463537 -0.115744
C22   C     C_R   0.723876 0.952956 0.510534 -0.118014
C23   C     C_R   0.805634 0.019708 0.581915 -0.118477
C24   C     C_R   0.813804 0.809977 0.496352 -0.080044
C25   C     C_R   0.830641 0.107301 0.605364 0.130759
C26   C     C_R   0.738331 0.739979 0.417726 -0.006957
C27   C     C_R   0.677929 0.676898 0.422115 -0.263060
C28   C     C_R   0.689382 0.685869 0.502645 -0.083680
C29   C     C_R   0.762006 0.758734 0.581311 -0.009376
C30   C     C_R   0.640363 0.722615 0.276624 -0.160393
C31   C     C_R   0.621246 0.712356 0.193951 -0.142055
C32   C     C_R   0.680329 0.709571 0.164312 -0.121447
C33   C     C_R   0.621862 0.620077 0.501692 0.856628
C34   C     C_R   0.758807 0.717483 0.217496 -0.117337
C35   C     C_R   0.778326 0.728323 0.300402 -0.104835
C36   C     C_R   0.719361 0.730942 0.330730 0.132867
C37   C     C_R   0.435354 0.808583 0.514858 -0.148265
C38   C     C_R   0.369620 0.726787 0.442870 -0.156360
C39   C     C_R   0.391294 0.669374 0.396129 0.132679
C40   C     C_R   0.479607 0.695816 0.421701 -0.114310
C41   C     C_R   0.545082 0.777008 0.494701 -0.117057
C42   C     C_R   0.523094 0.833502 0.541028 -0.113974
C43   C     C_R   0.255941 0.577746 0.253588 -0.252858
C44   C     C_R   0.618336 0.498021 0.619920 0.860960
C45   C     C_R   0.185787 0.496991 0.183868 -0.067589
C46   C     C_R   0.178525 0.418005 0.180017 -0.000456
C47   C     C_R   0.246099 0.422555 0.244785 -0.265883
C48   C     C_R   0.316410 0.503251 0.314221 -0.078634
C49   C     C_R   0.321034 0.582146 0.320682 -0.007787
C50   C     C_R   0.059119 0.271854 0.133083 -0.156755
C51   C     C_R   0.989836 0.188057 0.068315 -0.138410
C52   C     C_R   0.963818 0.161576 0.980652 -0.121697
C53   C     C_R   0.006890 0.218930 0.957658 -0.119705
C54   C     C_R   0.075897 0.302890 0.022283 -0.107249
C55   C     C_R   0.378258 0.379977 0.498512 0.870641
C56   C     C_R   0.102733 0.330236 0.110567 0.128521
C57   C     C_R   0.208144 0.518830 0.569634 -0.146078
C58   C     C_R   0.222444 0.450048 0.570066 -0.148330
C59   C     C_R   0.225737 0.395505 0.499954 0.139204
C60   C     C_R   0.213444 0.410044 0.429019 -0.130537
C61   C     C_R   0.198662 0.478629 0.428649 -0.118838
C62   C     C_R   0.196358 0.533165 0.499020 -0.107227
C63   C     C_R   0.176859 0.255787 0.499817 -0.255715
C64   C     C_R   0.186086 0.184054 0.497592 -0.075589
C65   C     C_R   0.258023 0.176514 0.495490 -0.006411
C66   C     C_R   0.790456 0.869452 0.806313 -0.140922
C67   C     C_R   0.319853 0.241900 0.494853 -0.263246
C68   C     C_R   0.310701 0.313681 0.497041 -0.080957
C69   C     C_R   0.239021 0.321549 0.499759 -0.005418
C70   C     C_R   0.341171 0.112742 0.560457 -0.142911
C71   C     C_R   0.353627 0.041911 0.556000 -0.139527
C72   C     C_R   0.295323 0.959144 0.482445 -0.129628
C73   C     C_R   0.224430 0.947062 0.413294 -0.131896
C74   C     C_R   0.211088 0.017503 0.417875 -0.131796
C75   C     C_R   0.269455 0.100838 0.491620 0.136000
C76   C     C_R   0.546366 0.564052 0.855850 -0.140554
C77   C     C_R   0.782167 0.853828 0.724916 -0.159366
C78   C     C_R   0.616223 0.565235 0.842832 -0.153061
C79   C     C_R   0.601979 0.495070 0.770604 0.138993
C80   C     C_R   0.517227 0.423357 0.712215 -0.129379
C81   C     C_R   0.447656 0.422184 0.725871 -0.123539
C82   C     C_R   0.462134 0.492604 0.797376 -0.108825
C83   C     C_R   0.742073 0.495566 0.819965 -0.263922
C84   C     C_R   0.813315 0.496254 0.810350 -0.085995
C85   C     C_R   0.820465 0.497352 0.738243 -0.003072
C86   C     C_R   0.754238 0.496516 0.675704 -0.258153
C87   C     C_R   0.683034 0.495829 0.685359 -0.085897
C88   C     C_R   0.772861 0.775429 0.668334 0.125260
C89   C     C_R   0.676448 0.495915 0.758038 -0.008540
C90   C     C_R   0.950077 0.568845 0.723985 -0.136177
C91   C     C_R   0.018850 0.568430 0.709581 -0.139169
C92   C     C_R   0.032147 0.496760 0.695665 -0.131818
C93   C     C_R   0.976709 0.425413 0.696160 -0.130681
C94   C     C_R   0.908254 0.425839 0.711239 -0.124128
C95   C     C_R   0.894620 0.497690 0.725359 0.128903
C96   C     C_R   0.998541 0.877914 0.380262 0.871563
C97   C     C_R   0.879851 0.877710 0.497779 0.860738
C98   C     C_R   0.998275 0.118642 0.619838 0.867132
C99   C     C_R   0.773522 0.713787 0.695132 -0.080411
C100  C     C_R   0.120139 0.118887 0.498762 0.873185
C101  C     C_R   0.002138 0.380142 0.881568 0.868416
C102  C     C_R   0.119966 0.498335 0.118678 0.865151
C103  C     C_R   0.998518 0.620099 0.118638 0.871117
C104  C     C_R   0.879907 0.498109 0.877970 0.867157
C105  C     C_R   0.093087 0.763532 0.547025 -0.155832
C106  C     C_R   0.087331 0.776319 0.476376 -0.089933
C107  C     C_R   0.007731 0.727274 0.397588 0.113720
C108  C     C_R   0.935482 0.662059 0.389065 -0.194708
C109  C     C_R   0.941330 0.649695 0.459943 -0.116261
C110  C     C_R   0.780201 0.729086 0.775923 -0.057407
C111  C     C_R   0.019974 0.700664 0.539004 -0.103046
C112  C     C_R   0.998327 0.675850 0.254346 -0.253752
C113  C     C_R   0.996933 0.685946 0.183503 -0.079983
C114  C     C_R   0.997562 0.759530 0.177941 0.015915
C115  C     C_R   0.996603 0.820773 0.243534 -0.284029
C116  C     C_R   0.999091 0.811325 0.314952 -0.089791
C117  C     C_R   0.001922 0.739321 0.322028 -0.014306
C118  C     C_R   0.065904 0.853157 0.124183 -0.205634
C119  C     C_R   0.068981 0.867989 0.056646 -0.264664
C120  C     C_R   0.005835 0.804347 0.969359 0.518879
H1    H     H_    0.794545 0.818527 0.894262 0.118140
H2    H     H_    0.665338 0.701356 0.100204 0.118564
H3    H     H_    0.804530 0.715299 0.194502 0.142134
H4    H     H_    0.839408 0.735184 0.341212 0.103069
H5    H     H_    0.574055 0.896448 0.597287 0.127409
H6    H     H_    0.418270 0.852339 0.550758 0.120728
H7    H     H_    0.301891 0.707803 0.424119 0.118704
H8    H     H_    0.497606 0.653187 0.385741 0.093614
H9    H     H_    0.612909 0.795832 0.515938 0.130519
H10   H     H_    0.258958 0.637736 0.256543 0.153481
H11   H     H_    0.242995 0.362673 0.242248 0.154041
H12   H     H_    0.797115 0.929676 0.849390 0.119690
H13   H     H_    0.078646 0.291336 0.200776 0.124297
H14   H     H_    0.956503 0.143559 0.086125 0.129739
H15   H     H_    0.910383 0.096639 0.930573 0.119807
H16   H     H_    0.986861 0.198229 0.889761 0.143290
H17   H     H_    0.108337 0.346747 0.003767 0.105381
H18   H     H_    0.185026 0.586262 0.498635 0.124507
H19   H     H_    0.205922 0.560845 0.623922 0.120035
H20   H     H_    0.231316 0.439473 0.625077 0.117352
H21   H     H_    0.214533 0.367843 0.373896 0.099236
H22   H     H_    0.188564 0.489347 0.373692 0.140247
H23   H     H_    0.781901 0.902292 0.705504 0.118744
H24   H     H_    0.121003 0.260464 0.501696 0.154227
H25   H     H_    0.375806 0.237203 0.493307 0.156185
H26   H     H_    0.387158 0.176760 0.617492 0.122352
H27   H     H_    0.408757 0.051280 0.609352 0.125161
H28   H     H_    0.305286 0.904452 0.478823 0.116641
H29   H     H_    0.180207 0.883135 0.356018 0.144509
H30   H     H_    0.156183 0.007503 0.363723 0.103430
H31   H     H_    0.408157 0.491614 0.807686 0.123245
H32   H     H_    0.557584 0.618392 0.911432 0.119832
H33   H     H_    0.681277 0.620862 0.888681 0.116279
H34   H     H_    0.767689 0.653611 0.653014 0.089807
H35   H     H_    0.505339 0.368259 0.656818 0.103254
H36   H     H_    0.382546 0.366579 0.681328 0.140554
H37   H     H_    0.738103 0.495628 0.876452 0.155517
H38   H     H_    0.758573 0.497322 0.619626 0.152891
H39   H     H_    0.940118 0.624566 0.734310 0.150920
H40   H     H_    0.061606 0.623503 0.708837 0.123559
H41   H     H_    0.085183 0.496346 0.684164 0.117440
H42   H     H_    0.986657 0.369680 0.684464 0.142982
H43   H     H_    0.865342 0.370008 0.710951 0.102228
H44   H     H_    0.024481 0.690863 0.593750 0.121251
H45   H     H_    0.777538 0.680250 0.795013 0.119893
H46   H     H_    0.154304 0.802177 0.607901 0.119158
H47   H     H_    0.144668 0.824560 0.483075 0.131349
H48   H     H_    0.874638 0.621068 0.327684 0.133886
H49   H     H_    0.885042 0.600265 0.453424 0.135266
H50   H     H_    0.999785 0.619663 0.258317 0.157967
H51   H     H_    0.995501 0.877128 0.239746 0.158192
H52   H     H_    0.115678 0.902400 0.190924 0.144711
H53   H     H_    0.120764 0.928660 0.072383 0.133058
H54   H     H_    0.891849 0.677118 0.884633 0.146277
H55   H     H_    0.882035 0.874998 0.636768 0.157620
H56   H     H_    0.883362 0.652297 0.003242 0.119936
H57   H     H_    0.401927 0.589292 0.071072 0.115929
H58   H     H_    0.306842 0.607736 0.958103 0.117943
H59   H     H_    0.159900 0.484651 0.841655 0.131275
H60   H     H_    0.204301 0.322436 0.949507 0.135579
H61   H     H_    0.350725 0.446400 0.065994 0.134905
H62   H     H_    0.137972 0.257496 0.757710 0.157746
H63   H     H_    0.862332 0.241109 0.743618 0.156476
H64   H     H_    0.789242 0.194125 0.575305 0.125023
H65   H     H_    0.644045 0.075478 0.451164 0.132092
H66   H     H_    0.620161 0.621570 0.362400 0.152666
H67   H     H_    0.602262 0.920958 0.408508 0.129474
H68   H     H_    0.705883 0.885678 0.491147 0.130701
H69   H     H_    0.849644 0.003211 0.618403 0.093774
H70   H     H_    0.593920 0.724646 0.298729 0.119413
H71   H     H_    0.560631 0.706566 0.152852 0.118825
O1    O     O_R   0.408360 0.551710 0.460090 -0.603259
O2    O     O_R   0.948280 0.908380 0.356650 -0.623829
O3    O     O_R   0.960110 0.908350 0.551690 -0.617354
O4    O     O_R   0.856660 0.908370 0.448270 -0.609629
O5    O     O_R   0.051720 0.091580 0.643310 -0.628154
O6    O     O_R   0.948270 0.091600 0.539890 -0.610317
O7    O     O_R   0.143340 0.091590 0.551680 -0.614612
O8    O     O_R   0.039890 0.091610 0.448270 -0.626001
O9    O     O_R   0.051730 0.460050 0.908360 -0.616835
O10   O     O_R   0.948290 0.356630 0.908390 -0.622388
O11   O     O_R   0.143340 0.551690 0.091580 -0.618333
O12   O     O_R   0.408400 0.448280 0.356670 -0.628006
O13   O     O_R   0.039900 0.448270 0.091610 -0.615945
O14   O     O_R   0.051710 0.643320 0.091560 -0.611012
O15   O     O_R   0.948270 0.539900 0.091590 -0.627187
O16   O     O_R   0.960100 0.551680 0.908340 -0.605867
O17   O     O_R   0.856660 0.448270 0.908370 -0.626798
O18   O     O_R   0.591600 0.643340 0.551710 -0.610682
O19   O     O_R   0.591630 0.539900 0.448290 -0.625261
O20   O     O_R   0.591600 0.551720 0.643330 -0.612927
O21   O     O_R   0.591640 0.448290 0.539910 -0.625153
O22   O     O_R   0.408370 0.460100 0.551710 -0.603732
O23   O     O_R   0.408400 0.356660 0.448290 -0.627966
O24   O     O_R   0.051730 0.908360 0.460060 -0.615443
Zn1   Zn    Zn3+2 0.499980 0.569060 0.569060 0.990375
Zn2   Zn    Zn3+2 0.500020 0.430940 0.430940 0.941734
Zn3   Zn    Zn3+2 0.069070 0.999960 0.569030 0.958939
Zn4   Zn    Zn3+2 0.930930 0.999990 0.430930 0.968727
Zn5   Zn    Zn3+2 0.069070 0.569030 0.999960 0.973163
Zn6   Zn    Zn3+2 0.930930 0.430930 0.000000 0.954451
O25   O     O_3   0.006907 0.815921 0.900735 -0.791644
H72   H     H_    0.057114 0.873865 0.924320 0.324867

loop_
_geom_bond_atom_site_label_1
_geom_bond_atom_site_label_2
_ccdc_geom_bond_type
C92   H41   S    
C71   H27   S    
O14   Zn5   S    
C34   H3    S    
C5    C114  S    
C41   C42   A    
C96   O24   A    
C19   C20   A    
C103  O15   A    
O10   Zn6   S    
C55   O23   A    
O4    Zn4   S    
C81   C82   A    
C57   C58   A    
C101  O9    A    
C7    C8    A    
O3    Zn3   S    
C45   C46   A    
C116  C117  A    
O16   Zn5   S    
C93   C94   A    
O19   Zn2   S    
C13   C29   A    
C35   H4    S    
C103  C113  S    
C76   C78   A    
C113  C114  A    
C109  C111  A    
C112  C117  A    
O13   Zn6   S    
C51   H14   S    
C2    H1    S    
C54   H17   S    
O21   Zn2   S    
C76   H32   S    
O15   Zn6   S    
C15   C16   A    
C40   H8    S    
C99   H34   S    
C31   H71   S    
C90   H39   S    
C108  C109  A    
C57   H19   S    
O9    Zn5   S    
C17   C18   A    
C34   C35   A    
C73   C74   A    
C104  O16   A    
O11   Zn5   S    
C37   C42   A    
C17   C101  S    
C118  C119  A    
C29   C88   S    
C102  O13   A    
C42   H5    S    
C20   H65   S    
C68   C69   A    
C33   O18   A    
C112  H50   S    
C35   C36   A    
C77   C88   A    
C16   C17   A    
C65   C67   A    
C67   H25   S    
C48   C49   A    
C107  C108  A    
C21   H67   S    
C70   C71   A    
C70   H26   S    
C44   C87   S    
C9    C10   A    
C82   H31   S    
C72   C73   A    
C61   C62   A    
C30   H70   S    
C105  H46   S    
C108  H48   S    
C59   C60   A    
C21   C22   A    
C6    H58   S    
C22   H68   S    
O7    Zn3   S    
C53   H16   S    
C112  C113  A    
C109  H49   S    
C14   C98   S    
C66   H12   S    
C43   H10   S    
C38   C39   A    
C83   C89   A    
C12   H62   S    
C16   H63   S    
O18   Zn1   S    
C74   C75   A    
O12   Zn2   S    
C63   C64   A    
C98   O5    A    
C51   C52   A    
C47   C48   A    
C63   C69   A    
C57   C62   A    
O8    Zn4   S    
C84   C85   A    
C115  H51   S    
C3    C120  A    
O24   Zn3   S    
C76   C82   A    
C91   C92   A    
C55   C68   S    
C78   C79   A    
C8    C9    A    
O17   Zn6   S    
C85   C86   A    
C99   C110  A    
O23   Zn2   S    
C8    C18   S    
C67   C68   A    
C13   C24   A    
C47   H11   S    
C60   C61   A    
C44   O21   A    
C27   H66   S    
C32   C34   A    
C97   O3    A    
O1    Zn1   S    
C77   H23   S    
C37   C38   A    
C32   H2    S    
C60   H21   S    
C86   H38   S    
C33   O19   A    
C102  O11   A    
C3    H54   S    
C83   C84   A    
C83   H37   S    
C118  H52   S    
C100  O8    A    
C63   H24   S    
C14   C15   A    
C50   C51   A    
C26   C27   A    
C7    H59   S    
C78   H33   S    
C62   H18   S    
C81   H36   S    
C91   H40   S    
C9    H60   S    
C59   C69   S    
C11   H57   S    
C26   C36   S    
C40   C41   A    
C39   C49   S    
C12   C14   A    
C28   C33   S    
C10   C11   A    
C87   C89   A    
C4    H56   S    
C84   C104  S    
C52   H15   S    
C53   C54   A    
C3    C4    A    
C1    O12   A    
C6    C11   A    
C52   C53   A    
C80   H35   S    
C37   H6    S    
O22   Zn1   S    
C58   H20   S    
O2    Zn4   S    
C66   C77   A    
C46   C47   A    
C28   C29   A    
C120  O25   S    
C98   O6    A    
C73   H29   S    
C86   C87   A    
C31   C32   A    
C43   C49   A    
C111  H44   S    
C103  O14   A    
C24   C26   A    
C80   C81   A    
C2    C66   A    
C50   H13   S    
C90   C95   A    
C19   H64   S    
C55   O22   A    
O5    Zn3   S    
C119  C120  A    
C1    C48   S    
C114  C115  A    
C6    C7    A    
C105  C106  A    
C46   C56   S    
C65   C75   S    
C30   C36   A    
C5    C118  A    
C44   O20   A    
C64   C65   A    
C97   O4    A    
C58   C59   A    
C64   C100  S    
C71   C72   A    
C43   C45   A    
C72   H28   S    
C106  H47   S    
C41   H9    S    
C85   C95   S    
C90   C91   A    
C30   C31   A    
C93   H42   S    
C38   H7    S    
O25   H72   S    
C92   C93   A    
C110  H45   S    
C74   H30   S    
O20   Zn1   S    
C24   C97   S    
C104  O17   A    
C105  C111  A    
C94   C95   A    
C19   C25   A    
C50   C56   A    
C79   C89   S    
C88   C99   A    
C15   C25   S    
C45   C102  S    
C79   C80   A    
C39   C40   A    
C1    O1    A    
C96   O2    A    
C61   H22   S    
C4    C5    A    
C23   C25   A    
C20   C21   A    
C54   C56   A    
C106  C107  A    
C12   C18   A    
C70   C75   A    
C10   H61   S    
C13   H55   S    
C22   C23   A    
C96   C116  S    
C101  O10   A    
C23   H69   S    
O6    Zn4   S    
C94   H43   S    
C107  C117  S    
C119  H53   S    
C115  C116  A    
C100  O7    A    
C27   C28   A    
C2    C110  A    
