data_mof_unit_18247.cif
_audit_creation_date              2012-12-10T18:28:06-0500
_audit_creation_method            fapswitch 2.2
_symmetry_space_group_name_H-M    P1
_symmetry_Int_Tables_number       1
_space_group_crystal_system       triclinic
_cell_length_a                    23.492602
_cell_length_b                    20.273737
_cell_length_c                    14.978362
_cell_angle_alpha                 90.001219
_cell_angle_beta                  99.26446
_cell_angle_gamma                 89.999127
_cell_volume                      7040.87997882

loop_
_atom_site_label
_atom_site_type_symbol
_atom_type_description
_atom_site_fract_x
_atom_site_fract_y
_atom_site_fract_z
_atom_type_partial_charge
C1    C     C_R   0.575595 0.087073 0.554237 0.893313
C2    C     C_R   0.424297 0.913067 0.445643 0.893361
C3    C     C_R   0.425699 0.088612 0.446820 0.883091
C4    C     C_R   0.575657 0.912995 0.554287 0.892599
C5    C     C_R   0.074248 0.588671 0.553135 0.882641
C6    C     C_R   0.925614 0.411465 0.446754 0.883204
C7    C     C_R   0.925710 0.588640 0.446832 0.883474
C8    C     C_R   0.075685 0.413051 0.554347 0.893034
C9    C     C_R   0.255048 0.233447 0.677455 -0.207364
C10   C     C_R   0.801617 0.826956 0.383128 -0.202169
C11   C     C_R   0.801158 0.173484 0.382636 -0.201867
C12   C     C_R   0.198429 0.826881 0.616624 -0.201038
C13   C     C_R   0.755165 0.733532 0.677357 -0.206802
C14   C     C_R   0.301179 0.326534 0.382907 -0.200847
C15   C     C_R   0.244945 0.733423 0.322527 -0.207496
C16   C     C_R   0.754894 0.266791 0.677119 -0.206770
C17   C     C_R   0.627783 0.998475 0.203208 -0.322909
C18   C     C_R   0.372276 0.004344 0.796841 -0.326678
C19   C     C_R   0.127666 0.504811 0.203121 -0.326351
C20   C     C_R   0.872185 0.498738 0.796819 -0.329127
C21   C     C_R   0.606777 0.997822 0.284268 0.030270
C22   C     C_R   0.393208 0.001567 0.715766 0.023948
C23   C     C_R   0.106780 0.501752 0.284200 0.024782
C24   C     C_R   0.893224 0.497803 0.715760 0.018367
C25   C     C_R   0.510075 0.003382 0.208360 -0.034150
C26   C     C_R   0.490003 0.000817 0.791694 -0.043398
C27   C     C_R   0.009933 0.500926 0.208352 -0.027178
C28   C     C_R   0.989881 0.503603 0.791687 -0.034123
C29   C     C_R   0.528329 0.003773 0.123807 -0.016911
C30   C     C_R   0.471808 0.003381 0.876262 -0.018536
C31   C     C_R   0.028092 0.503922 0.123794 -0.014641
C32   C     C_R   0.971584 0.504275 0.876250 -0.015961
C33   C     C_R   0.588640 0.001156 0.122530 0.192667
C34   C     C_R   0.411488 0.005374 0.877535 0.193797
C35   C     C_R   0.088416 0.505999 0.122478 0.191662
C36   C     C_R   0.911281 0.501701 0.877529 0.192269
C37   C     C_R   0.489088 0.005694 0.041569 0.088591
C38   C     C_R   0.511086 0.003790 0.958508 0.086484
C39   C     C_R   0.988784 0.504554 0.041594 0.088460
C40   C     C_R   0.010790 0.506386 0.958504 0.086768
C41   C     C_R   0.571503 0.001938 0.960384 -0.279856
C42   C     C_R   0.428704 0.008927 0.039707 -0.277662
C43   C     C_R   0.071167 0.509721 0.960340 -0.277187
C44   C     C_R   0.928346 0.502998 0.039792 -0.274206
C45   C     C_R   0.609404 0.000827 0.041013 -0.206945
C46   C     C_R   0.390781 0.008568 0.959035 -0.209200
C47   C     C_R   0.109099 0.509387 0.040982 -0.208120
C48   C     C_R   0.890479 0.501738 0.959070 -0.210304
C49   C     C_R   0.622259 0.867537 0.590563 -0.165185
C50   C     C_R   0.389462 0.146408 0.420032 -0.174244
C51   C     C_R   0.377630 0.867745 0.409188 -0.167655
C52   C     C_R   0.622071 0.132695 0.590392 -0.164690
C53   C     C_R   0.122323 0.367707 0.590790 -0.167545
C54   C     C_R   0.889570 0.646555 0.420137 -0.176521
C55   C     C_R   0.889221 0.353784 0.419851 -0.177042
C56   C     C_R   0.110329 0.646613 0.579779 -0.174163
C57   C     C_R   0.668923 0.790133 0.702351 -0.310845
C58   C     C_R   0.366395 0.246882 0.333687 -0.303432
C59   C     C_R   0.330548 0.791075 0.296666 -0.310237
C60   C     C_R   0.668448 0.210510 0.701810 -0.310920
C61   C     C_R   0.169472 0.291142 0.703390 -0.310211
C62   C     C_R   0.866490 0.746954 0.333582 -0.302740
C63   C     C_R   0.865655 0.253740 0.332729 -0.302505
C64   C     C_R   0.133086 0.747318 0.665748 -0.303353
C65   C     C_R   0.623698 0.834193 0.673689 0.541075
C66   C     C_R   0.395992 0.186682 0.345404 0.543168
C67   C     C_R   0.375592 0.835332 0.325232 0.540740
C68   C     C_R   0.623209 0.166469 0.673115 0.540794
C69   C     C_R   0.124421 0.335392 0.674823 0.540833
C70   C     C_R   0.895914 0.686645 0.345238 0.542583
C71   C     C_R   0.895107 0.314016 0.344444 0.542795
C72   C     C_R   0.103559 0.687068 0.654125 0.542973
C73   C     C_R   0.667246 0.859543 0.541059 -0.346995
C74   C     C_R   0.351844 0.165391 0.478150 -0.334259
C75   C     C_R   0.333070 0.858998 0.459314 -0.347253
C76   C     C_R   0.667192 0.140466 0.541126 -0.345743
C77   C     C_R   0.166810 0.358857 0.540566 -0.346581
C78   C     C_R   0.852240 0.665837 0.478564 -0.332013
C79   C     C_R   0.852065 0.334390 0.478481 -0.334057
C80   C     C_R   0.148012 0.665551 0.521736 -0.332769
C81   C     C_R   0.713091 0.816804 0.569799 0.095771
C82   C     C_R   0.325479 0.227099 0.471071 0.099838
C83   C     C_R   0.287124 0.816479 0.430311 0.095519
C84   C     C_R   0.712931 0.183372 0.569709 0.095453
C85   C     C_R   0.212770 0.316376 0.569573 0.095363
C86   C     C_R   0.825965 0.727612 0.471450 0.099839
C87   C     C_R   0.825684 0.272676 0.471214 0.099938
C88   C     C_R   0.174293 0.727310 0.528686 0.099828
C89   C     C_R   0.712796 0.780644 0.650650 0.104412
C90   C     C_R   0.331035 0.267052 0.395558 0.099094
C91   C     C_R   0.287148 0.780768 0.349041 0.104173
C92   C     C_R   0.712501 0.219721 0.650376 0.104954
C93   C     C_R   0.212821 0.280762 0.650934 0.104238
C94   C     C_R   0.831410 0.767415 0.395753 0.099169
C95   C     C_R   0.830896 0.233051 0.395241 0.098683
C96   C     C_R   0.168584 0.767386 0.604016 0.098979
C97   C     C_R   0.756298 0.804736 0.515842 0.089623
C98   C     C_R   0.291971 0.248675 0.535798 0.089155
C99   C     C_R   0.244025 0.804294 0.484340 0.088914
C100  C     C_R   0.756131 0.195446 0.515724 0.089459
C101  C     C_R   0.255803 0.304130 0.515455 0.089016
C102  C     C_R   0.792502 0.749286 0.536200 0.088325
C103  C     C_R   0.792321 0.250913 0.536061 0.088897
C104  C     C_R   0.207879 0.748812 0.464028 0.088944
C105  C     C_R   0.293608 0.216750 0.620221 -0.225761
C106  C     C_R   0.763761 0.844986 0.441261 -0.224977
C107  C     C_R   0.763521 0.155277 0.441018 -0.224006
C108  C     C_R   0.236479 0.844684 0.558727 -0.225244
C109  C     C_R   0.794083 0.717300 0.620549 -0.224338
C110  C     C_R   0.263252 0.344435 0.440940 -0.224841
C111  C     C_R   0.206330 0.716788 0.379695 -0.225035
C112  C     C_R   0.793911 0.282889 0.620427 -0.225753
H1    H     H_    0.256729 0.207157 0.740856 0.145328
H2    H     H_    0.806233 0.858782 0.326578 0.143146
H3    H     H_    0.805639 0.141770 0.325911 0.143498
H4    H     H_    0.193648 0.858882 0.672923 0.144529
H5    H     H_    0.756663 0.706981 0.740526 0.146126
H6    H     H_    0.305864 0.358453 0.326487 0.144554
H7    H     H_    0.243325 0.707061 0.259191 0.145466
H8    H     H_    0.756329 0.293430 0.740209 0.145553
H9    H     H_    0.591478 0.001089 0.900790 0.123440
H10   H     H_    0.408788 0.011785 0.099343 0.123900
H11   H     H_    0.091077 0.512665 0.900705 0.123924
H12   H     H_    0.908340 0.502571 0.099492 0.125229
H13   H     H_    0.343483 0.130917 0.529315 0.176572
H14   H     H_    0.664303 0.884811 0.477269 0.181383
H15   H     H_    0.664413 0.114862 0.477618 0.182616
H16   H     H_    0.336396 0.883464 0.523751 0.183276
H17   H     H_    0.843959 0.631483 0.529916 0.177748
H18   H     H_    0.163420 0.383219 0.476053 0.183620
H19   H     H_    0.156510 0.630994 0.470746 0.176397
H20   H     H_    0.844019 0.368617 0.530114 0.176951
H21   H     H_    0.668475 0.761157 0.763023 0.149932
H22   H     H_    0.372024 0.278329 0.277232 0.155130
H23   H     H_    0.330720 0.762843 0.235263 0.151099
H24   H     H_    0.667847 0.239757 0.762200 0.149686
H25   H     H_    0.169352 0.262989 0.764870 0.151173
H26   H     H_    0.871926 0.778166 0.276795 0.155445
H27   H     H_    0.870779 0.222763 0.275564 0.155777
H28   H     H_    0.127299 0.778884 0.722012 0.155159
H29   H     H_    0.325105 0.179438 0.644483 0.154126
H30   H     H_    0.741953 0.891605 0.427544 0.136983
H31   H     H_    0.741776 0.108631 0.427276 0.137689
H32   H     H_    0.258280 0.891328 0.572282 0.139273
H33   H     H_    0.825687 0.680133 0.644954 0.155863
H34   H     H_    0.241457 0.391081 0.427364 0.139280
H35   H     H_    0.174854 0.679446 0.355455 0.155001
H36   H     H_    0.825528 0.320021 0.644894 0.153807
H37   H     H_    0.534373 0.999821 0.782468 0.126281
H38   H     H_    0.465715 0.005209 0.217562 0.123072
H39   H     H_    0.034247 0.505393 0.782521 0.122886
H40   H     H_    0.965552 0.499602 0.217587 0.121021
H41   H     H_    0.363719 0.001226 0.652340 0.122296
H42   H     H_    0.636204 0.995678 0.347688 0.117932
H43   H     H_    0.863812 0.495481 0.652352 0.126625
H44   H     H_    0.136288 0.501354 0.347606 0.122090
H45   H     H_    0.673925 0.996585 0.203506 0.137622
H46   H     H_    0.326123 0.005877 0.796520 0.139757
H47   H     H_    0.173812 0.506446 0.203399 0.139899
H48   H     H_    0.826042 0.496868 0.796495 0.142172
N1    N     N_R   0.549130 0.000000 0.284090 -0.090863
N2    N     N_R   0.450870 0.000000 0.715910 -0.090920
N3    N     N_R   0.049130 0.500000 0.284090 -0.090852
N4    N     N_R   0.950870 0.500000 0.715910 -0.091024
O1    O     O_R   0.541320 0.066090 0.608930 -0.570451
O2    O     O_R   0.458680 0.933910 0.391070 -0.568442
O3    O     O_R   0.458680 0.066090 0.391070 -0.571494
O4    O     O_R   0.541320 0.933910 0.608930 -0.568909
O5    O     O_R   0.041320 0.566090 0.608930 -0.572238
O6    O     O_R   0.958680 0.433910 0.391070 -0.570361
O7    O     O_R   0.958680 0.566090 0.391070 -0.571653
O8    O     O_R   0.041320 0.433910 0.608930 -0.568867
O9    O     O_R   0.572880 0.066110 0.470280 -0.624291
O10   O     O_R   0.427120 0.933890 0.529720 -0.625435
O11   O     O_R   0.427120 0.066110 0.529720 -0.625886
O12   O     O_R   0.572880 0.933890 0.470280 -0.628019
O13   O     O_R   0.072880 0.566110 0.470280 -0.624505
O14   O     O_R   0.927120 0.433890 0.529720 -0.625828
O15   O     O_R   0.927120 0.566110 0.529720 -0.621973
O16   O     O_R   0.072880 0.433890 0.470280 -0.624170
Zn1   Zn    Zn3+2 0.478910 0.000000 0.592580 0.979102
Zn2   Zn    Zn3+2 0.521090 1.000000 0.407420 0.981192
Zn3   Zn    Zn3+2 0.978910 0.500000 0.592580 0.979232
Zn4   Zn    Zn3+2 0.021090 0.500000 0.407420 0.981118
O17   O     O_3   0.435059 0.170689 0.289017 -0.580466
C113  C     C_3   0.404463 0.145805 0.207274 -0.308489
H49   H     H_    0.375326 0.183701 0.170725 0.153756
H50   H     H_    0.379636 0.100733 0.219147 0.142104
H51   H     H_    0.435969 0.131803 0.162839 0.199119
O18   O     O_3   0.577706 0.838941 0.720788 -0.583505
C114  C     C_3   0.596798 0.866213 0.807079 -0.293654
H52   H     H_    0.621344 0.912799 0.802668 0.134908
H53   H     H_    0.623049 0.830316 0.852261 0.156188
H54   H     H_    0.558475 0.878160 0.838629 0.199001
O19   O     O_3   0.576896 0.162183 0.719598 -0.584251
C115  C     C_3   0.595541 0.135779 0.806537 -0.292272
H55   H     H_    0.620454 0.089302 0.803418 0.135103
H56   H     H_    0.556977 0.123898 0.837510 0.199302
H57   H     H_    0.621266 0.172235 0.851480 0.156438
O20   O     O_3   0.420763 0.841155 0.276681 -0.583347
C116  C     C_3   0.400912 0.872711 0.193548 -0.291449
H58   H     H_    0.438535 0.882996 0.159512 0.198782
H59   H     H_    0.379837 0.920740 0.203733 0.136105
H60   H     H_    0.371134 0.840533 0.147552 0.153848
O21   O     O_3   0.934477 0.670279 0.288190 -0.581330
C117  C     C_3   0.903408 0.643270 0.208167 -0.305443
H61   H     H_    0.873289 0.679992 0.170979 0.153141
H62   H     H_    0.879552 0.598040 0.222581 0.142694
H63   H     H_    0.934486 0.628850 0.163201 0.198631
O22   O     O_3   0.079309 0.341307 0.723478 -0.583630
C118  C     C_3   0.099225 0.373058 0.806446 -0.291727
H64   H     H_    0.120195 0.421105 0.795991 0.136359
H65   H     H_    0.129118 0.341018 0.852479 0.153996
H66   H     H_    0.061650 0.383351 0.840592 0.198626
O23   O     O_3   0.064310 0.671199 0.710265 -0.581067
C119  C     C_3   0.094709 0.646543 0.792294 -0.308532
H67   H     H_    0.119690 0.601497 0.780823 0.142253
H68   H     H_    0.063055 0.632565 0.836491 0.199018
H69   H     H_    0.123673 0.684575 0.828891 0.153893
O24   O     O_3   0.933141 0.330721 0.286701 -0.580739
C120  C     C_3   0.901554 0.358859 0.207884 -0.305875
H70   H     H_    0.932190 0.373579 0.162334 0.197920
H71   H     H_    0.878261 0.404092 0.223936 0.142593
H72   H     H_    0.870845 0.322765 0.170576 0.153205
H73   H     H_    0.655375 0.999098 0.039445 0.139086
H74   H     H_    0.344818 0.010667 0.960546 0.139326
H75   H     H_    0.155058 0.511567 0.039447 0.139314
H76   H     H_    0.844499 0.500174 0.960574 0.139650

loop_
_geom_bond_atom_site_label_1
_geom_bond_atom_site_label_2
_ccdc_geom_bond_type
C88   C96   A    
C27   H40   S    
C7    O7    A    
C33   C45   A    
C116  H58   S    
C5    C56   S    
C53   C77   A    
O2    Zn2   S    
C119  H69   S    
C6    C55   S    
C53   C69   A    
C76   C84   A    
C79   C87   A    
C3    O3    A    
O21   C117  S    
C58   H22   S    
C70   O21   S    
O12   Zn2   S    
C99   C108  A    
C1    O9    A    
O18   C114  S    
C98   C105  A    
C57   C89   A    
C32   C36   A    
C78   H17   S    
C51   C75   A    
C120  H72   S    
C50   C74   A    
O22   C118  S    
C105  H29   S    
C48   H76   S    
C117  H62   S    
O3    Zn2   S    
C10   C94   A    
C9    C105  A    
C73   H14   S    
C63   C95   A    
C37   C42   A    
C59   C67   A    
C62   C70   A    
C75   H16   S    
C42   C46   A    
C41   H9    S    
N1    Zn2   S    
O5    Zn3   S    
C85   C101  A    
C13   C109  A    
C86   C94   A    
C27   N3    A    
C85   C93   A    
C58   C66   A    
C40   C43   A    
C14   C90   A    
C20   C24   A    
C29   C33   A    
C25   N1    A    
O20   C116  S    
C56   C72   A    
C87   C95   A    
O16   Zn4   S    
C21   H42   S    
C15   H7    S    
C34   C46   A    
C17   H45   S    
C60   H24   S    
C23   N3    A    
O14   Zn3   S    
C10   H2    S    
C24   H43   S    
O11   Zn1   S    
C81   C89   A    
C78   C86   A    
C32   C40   A    
C99   C104  A    
C35   C47   A    
C80   H19   S    
C83   C99   A    
C23   H44   S    
C6    O14   A    
C116  H59   S    
C57   H21   S    
C24   N4    A    
C17   C33   A    
C74   C82   A    
C115  H57   S    
O10   Zn1   S    
C73   C81   A    
O24   C120  S    
C88   C104  A    
C3    C50   S    
C106  H30   S    
O15   Zn3   S    
C60   C92   A    
C25   C29   A    
C21   N1    A    
C82   C98   A    
C27   C31   A    
C114  H52   S    
C84   C100  A    
C75   C83   A    
C15   C111  A    
O7    Zn4   S    
C28   C32   A    
C8    O8    A    
C119  H67   S    
C64   C96   A    
N2    Zn1   S    
C115  H56   S    
C67   O20   S    
C39   C40   A    
C12   C108  A    
C30   C34   A    
C117  H61   S    
C20   C36   A    
C51   C67   A    
C14   H6    S    
C101  C110  A    
C26   N2    A    
C100  C103  A    
C17   C21   A    
C71   O24   S    
C4    O4    A    
C103  C112  A    
C6    O6    A    
C37   C38   A    
C19   C23   A    
O23   C119  S    
C114  H53   S    
O8    Zn3   S    
C120  H70   S    
C18   H46   S    
C111  H35   S    
C47   H75   S    
C55   C79   A    
C8    O16   A    
O6    Zn4   S    
C118  H64   S    
C54   C70   A    
C16   C112  A    
C1    O1    A    
C118  H66   S    
C4    O12   A    
C46   H74   S    
C7    C54   S    
C7    O15   A    
C45   H73   S    
C82   C90   A    
C62   H26   S    
C18   C34   A    
C5    O13   A    
C49   C65   A    
C38   C41   A    
C87   C103  A    
C97   C106  A    
C3    O11   A    
C118  H65   S    
C63   C71   A    
O9    Zn2   S    
C16   C92   A    
C43   C47   A    
C62   C94   A    
C11   C107  A    
C116  H60   S    
C31   C35   A    
C59   C91   A    
C10   C106  A    
C43   H11   S    
C107  H31   S    
C86   C102  A    
C9    C93   A    
C108  H32   S    
C11   H3    S    
C42   H10   S    
C64   H28   S    
C61   C69   A    
C14   C110  A    
C28   N4    A    
C2    O2    A    
C100  C107  A    
C5    O5    A    
C13   C89   A    
N3    Zn4   S    
C18   C22   A    
C63   H27   S    
C26   H37   S    
C109  H33   S    
C97   C102  A    
C57   C65   A    
C115  H55   S    
C52   C76   A    
C119  H68   S    
C52   C68   A    
C8    C53   S    
C104  C111  A    
C13   H5    S    
C50   C66   A    
C26   C30   A    
C39   C44   A    
O13   Zn4   S    
C83   C91   A    
C56   C80   A    
C98   C101  A    
C4    C49   S    
C58   C90   A    
O1    Zn1   S    
C25   H38   S    
C113  H51   S    
C16   H8    S    
C114  H54   S    
C19   H47   S    
C120  H71   S    
N4    Zn3   S    
C19   C35   A    
C2    O10   A    
C117  H63   S    
C61   H25   S    
O17   C113  S    
C81   C97   A    
C77   C85   A    
C22   N2    A    
C79   H20   S    
C59   H23   S    
C44   H12   S    
C36   C48   A    
C68   O19   S    
C49   C73   A    
C77   H18   S    
C64   C72   A    
C1    C52   S    
C9    H1    S    
C2    C51   S    
C15   C91   A    
O19   C115  S    
C74   H13   S    
C112  H36   S    
C72   O23   S    
C11   C95   A    
C65   O18   S    
C60   C68   A    
C28   H39   S    
C80   C88   A    
O4    Zn1   S    
C20   H48   S    
C66   O17   S    
C29   C37   A    
C31   C39   A    
C76   H15   S    
C41   C45   A    
C12   C96   A    
C102  C109  A    
C69   O22   S    
C84   C92   A    
C30   C38   A    
C54   C78   A    
C113  H49   S    
C110  H34   S    
C61   C93   A    
C113  H50   S    
C55   C71   A    
C44   C48   A    
C12   H4    S    
C22   H41   S    
