data_mof_unit_57591.cif
_audit_creation_date              2012-10-26T19:59:12-0400
_audit_creation_method            fapswitch 2.2
_symmetry_space_group_name_H-M    P1
_symmetry_Int_Tables_number       1
_space_group_crystal_system       triclinic
_cell_length_a                    7.415524
_cell_length_b                    8.685161
_cell_length_c                    15.920508
_cell_angle_alpha                 94.281483
_cell_angle_beta                  74.586647
_cell_angle_gamma                 103.279439
_cell_volume                      961.950163268

loop_
_atom_site_label
_atom_site_type_symbol
_atom_type_description
_atom_site_fract_x
_atom_site_fract_y
_atom_site_fract_z
_atom_type_partial_charge
C1    C     C_R   0.545225 0.800257 0.502593 0.554961
C2    C     C_R   0.616812 0.508840 0.333507 0.567835
C3    C     C_R   0.310088 0.472364 0.762223 0.015077
C4    C     C_R   0.689915 0.527642 0.237778 0.015080
C5    C     C_R   0.110195 0.297051 0.877974 -0.108507
C6    C     C_R   0.889788 0.702966 0.122030 -0.108508
C7    C     C_R   0.139589 0.360033 0.796112 0.079775
C8    C     C_R   0.860400 0.639992 0.203892 0.079769
C9    C     C_R   0.428919 0.544395 0.817750 -0.058471
C10   C     C_R   0.571092 0.455600 0.182250 -0.058468
C11   C     C_R   0.390773 0.486874 0.903947 0.008589
C12   C     C_R   0.454775 0.199742 0.497407 0.554961
C13   C     C_R   0.609225 0.513125 0.096055 0.008591
C14   C     C_R   0.242635 0.349806 0.927566 0.018515
C15   C     C_R   0.757352 0.650200 0.072436 0.018516
C16   C     C_R   0.504787 0.547370 0.964318 0.031867
C17   C     C_R   0.495207 0.452627 0.035684 0.031866
C18   C     C_1   0.397775 0.339538 0.219868 0.189597
C19   C     C_1   0.602258 0.660434 0.780131 0.189602
C20   C     C_R   0.375304 0.300192 0.042688 -0.123902
C21   C     C_R   0.624682 0.699807 0.957315 -0.123897
C22   C     C_R   0.238486 0.256847 0.995815 -0.128036
C23   C     C_R   0.761496 0.743158 0.004189 -0.128034
C24   C     C_2   0.570683 0.968213 0.503885 -0.141306
C25   C     C_2   0.429317 0.031787 0.496115 -0.141306
C26   C     C_R   0.383188 0.491163 0.666493 0.567831
Cu1   Cu    Cu3+1 0.322120 0.483240 0.490330 1.004973
Cu2   Cu    Cu3+1 0.677880 0.516760 0.509670 1.004971
H1    H     H_    0.138655 0.143252 0.008373 0.104211
H2    H     H_    0.996397 0.385944 0.431027 0.250402
H3    H     H_    0.098502 0.796874 0.225260 0.229490
H4    H     H_    0.062167 0.613478 0.261481 0.247105
H5    H     H_    0.937836 0.386597 0.738528 0.247108
H6    H     H_    0.901448 0.203195 0.774752 0.229484
H7    H     H_    0.861320 0.856756 0.991633 0.104211
H8    H     H_    0.990240 0.198699 0.900518 0.105927
H9    H     H_    0.009731 0.801327 0.099487 0.105925
H10   H     H_    0.387212 0.210099 0.082542 0.130749
H11   H     H_    0.612771 0.789896 0.917458 0.130744
H12   H     H_    0.706804 0.039854 0.511241 0.143590
H13   H     H_    0.293196 0.960146 0.488758 0.143590
H14   H     H_    0.003603 0.614056 0.568973 0.250406
N1    N     N_2   0.945180 0.542040 0.524240 -0.252746
N2    N     N_2   0.054820 0.457960 0.475760 -0.252748
N3    N     N_1   0.259691 0.247686 0.250709 -0.312595
N4    N     N_1   0.740361 0.752268 0.749290 -0.312594
N5    N     N_3   0.992080 0.702655 0.256360 -0.585691
N6    N     N_3   0.007892 0.297398 0.743649 -0.585687
O1    O     O_R   0.384450 0.714270 0.493720 -0.513535
O2    O     O_R   0.615550 0.285730 0.506280 -0.513533
O3    O     O_R   0.684880 0.742590 0.510050 -0.481820
O4    O     O_R   0.315120 0.257410 0.489950 -0.481819
O5    O     O_R   0.265540 0.477900 0.617090 -0.483657
O6    O     O_R   0.734460 0.522100 0.382910 -0.483662
O7    O     O_R   0.565970 0.506210 0.633420 -0.492398
O8    O     O_R   0.434030 0.493790 0.366580 -0.492398

loop_
_geom_bond_atom_site_label_1
_geom_bond_atom_site_label_2
_ccdc_geom_bond_type
C8    N5    S    
C2    C4    S    
N1    N2    D    
Cu1   O5    S    
C24   C25   D    
C16   C21   A    
C3    C9    A    
C22   H1    S    
C9    C11   A    
C11   C16   A    
C12   O4    A    
Cu2   N1    S    
C12   O2    A    
Cu2   O3    S    
C21   H11   S    
C13   C17   A    
C12   C25   S    
C4    C8    A    
C7    N6    S    
C14   C22   A    
C15   C23   A    
C6    H9    S    
H3    N5    S    
C26   O7    A    
C1    O3    A    
H2    N2    S    
C5    C14   A    
C23   H7    S    
C1    O1    A    
C10   C18   S    
C6    C8    A    
C11   C14   A    
Cu2   O7    S    
C20   C22   A    
C5    H8    S    
C3    C7    A    
C13   C15   A    
C21   C23   A    
H4    N5    S    
C19   N4    T    
H6    N6    S    
H14   N1    S    
C4    C10   A    
C26   O5    A    
C18   N3    T    
C17   C20   A    
C20   H10   S    
Cu1   O4    S    
C1    C24   S    
C2    O6    A    
C25   H13   S    
Cu1   Cu2   S    
C5    C7    A    
H5    N6    S    
Cu2   O6    S    
Cu1   O8    S    
C2    O8    A    
C24   H12   S    
C6    C15   A    
Cu2   O2    S    
Cu1   N2    S    
C9    C19   S    
C3    C26   S    
Cu1   O1    S    
C16   C17   A    
C10   C13   A    
