data_mof_unit_5521.cif
_audit_creation_date              2012-12-10T16:47:56-0500
_audit_creation_method            fapswitch 2.2
_symmetry_space_group_name_H-M    P1
_symmetry_Int_Tables_number       1
_space_group_crystal_system       triclinic
_cell_length_a                    7.794313
_cell_length_b                    8.573351
_cell_length_c                    10.629948
_cell_angle_alpha                 91.036113
_cell_angle_beta                  86.276384
_cell_angle_gamma                 93.386906
_cell_volume                      707.51908147

loop_
_atom_site_label
_atom_site_type_symbol
_atom_type_description
_atom_site_fract_x
_atom_site_fract_y
_atom_site_fract_z
_atom_type_partial_charge
C1    C     C_R   0.545489 0.794554 0.496898 0.960260
C2    C     C_2   0.569518 0.957969 0.495363 -0.372495
C3    C     C_2   0.430553 0.042101 0.505424 -0.379766
C4    C     C_R   0.503742 0.503017 0.737135 0.962388
C5    C     C_R   0.454535 0.205462 0.503392 0.950772
C6    C     C_R   0.494310 0.483720 0.263468 0.949679
C7    C     C_2   0.604397 0.389233 0.057749 0.104052
C8    C     C_2   0.474899 0.435002 0.135417 -0.385697
C9    C     C_2   0.573840 0.380963 0.924378 0.038562
C10   C     C_2   0.516603 0.507570 0.869207 -0.082430
H1    H     H_    0.346443 0.438708 0.101416 0.131907
H2    H     H_    0.384654 0.656285 0.987955 0.189615
H3    H     H_    0.999309 0.379482 0.294473 0.185804
H4    H     H_    0.974044 0.242475 0.405998 0.173934
H5    H     H_    0.700973 0.008522 0.485821 0.176321
H6    H     H_    0.299098 0.991575 0.515005 0.179492
H7    H     H_    0.987264 0.618730 0.593434 0.171232
H8    H     H_    0.861405 0.440544 0.047903 0.185072
H9    H     H_    0.803087 0.251155 0.077336 0.170789
H10   H     H_    0.647922 0.155185 0.911412 0.180797
H11   H     H_    0.488249 0.194481 0.821957 0.170350
H12   H     H_    0.604749 0.686250 0.983660 0.197623
N1    N     N_2   0.950320 0.457950 0.466680 -0.046340
N2    N     N_2   0.049680 0.542050 0.533320 -0.120186
N3    N     N_3   0.772751 0.365989 0.099039 -0.426963
N4    N     N_3   0.606040 0.239805 0.852818 -0.438059
N5    N     N_3   0.498628 0.657441 0.930687 -0.494396
N6    N     N_3   0.030936 0.353201 0.385343 -0.307133
O1    O     O_R   0.389250 0.738570 0.508180 -0.614780
O2    O     O_R   0.678390 0.711630 0.486820 -0.639341
O3    O     O_R   0.355470 0.513470 0.691600 -0.625380
O4    O     O_R   0.644610 0.486520 0.670240 -0.617184
O5    O     O_R   0.321610 0.288370 0.513180 -0.613457
O6    O     O_R   0.610750 0.261430 0.491820 -0.618064
O7    O     O_R   0.355390 0.513480 0.329760 -0.616952
O8    O     O_R   0.644530 0.486530 0.308400 -0.591028
Zn1   Zn    Zn3+2 0.306940 0.517990 0.514260 0.957964
Zn2   Zn    Zn3+2 0.693060 0.482010 0.485740 0.953039

loop_
_geom_bond_atom_site_label_1
_geom_bond_atom_site_label_2
_ccdc_geom_bond_type
C10   N5    S    
H11   N4    S    
H3    N6    S    
O4    Zn2   S    
N1    Zn2   S    
C9    C10   D    
C7    N3    S    
N1    N2    D    
C5    O6    A    
C1    O1    A    
C2    C3    D    
C7    C8    D    
N1    N6    S    
C2    H5    S    
C4    O4    A    
H8    N3    S    
H10   N4    S    
C8    H1    S    
O8    Zn2   S    
C1    O2    A    
O7    Zn1   S    
C6    O8    A    
C9    N4    S    
N2    Zn1   S    
H12   N5    S    
H9    N3    S    
H7    N2    S    
H2    N5    S    
C4    C10   S    
C4    O3    A    
C6    O7    A    
O2    Zn2   S    
C1    C2    S    
O1    Zn1   S    
C7    C9    S    
C6    C8    S    
H4    N6    S    
O6    Zn2   S    
O5    Zn1   S    
C3    H6    S    
O3    Zn1   S    
C3    C5    S    
C5    O5    A    
