data_mof_unit_59001.cif
_audit_creation_date              2013-03-05T15:44:19-0500
_audit_creation_method            fapswitch 2.2
_symmetry_space_group_name_H-M    P1
_symmetry_Int_Tables_number       1
_space_group_crystal_system       triclinic
_cell_length_a                    23.564505
_cell_length_b                    10.900796
_cell_length_c                    9.686506
_cell_angle_alpha                 89.960627
_cell_angle_beta                  90.090363
_cell_angle_gamma                 90.238182
_cell_volume                      2488.16566082

loop_
_atom_site_label
_atom_site_type_symbol
_atom_site_description
_atom_site_fract_x
_atom_site_fract_y
_atom_site_fract_z
_atom_type_partial_charge
O1    O     O_R   0.500010 0.321960 0.617040 -0.537265
O2    O     O_R   0.499990 0.321920 0.382900 -0.588861
C1    C     C_R   0.498511 0.265307 0.499888 0.883164
O3    O     O_R   0.417890 0.499980 0.617100 -0.551121
O4    O     O_R   0.417870 0.499940 0.382950 -0.552872
C2    C     C_R   0.391112 0.499805 0.499606 0.924150
Cu1   Cu    Cu3+1 0.500010 0.500020 0.638630 1.025917
Cu2   Cu    Cu3+1 0.499990 0.499980 0.361370 0.972749
O5    O     O_R   0.500010 0.678080 0.617100 -0.544114
O6    O     O_R   0.499990 0.678040 0.382960 -0.584780
O7    O     O_R   0.582130 0.500060 0.617050 -0.545965
O8    O     O_R   0.582110 0.500020 0.382900 -0.590811
C3    C     C_R   0.503166 0.734729 0.500240 0.729562
C4    C     C_R   0.609172 0.502831 0.500269 0.833965
C5    C     C_R   0.881526 0.607728 0.508490 0.606882
N1    N     N_R   0.852349 0.501867 0.481462 -0.452571
C6    C     C_R   0.879780 0.395591 0.447773 0.615390
C7    C     C_R   0.939779 0.392755 0.438440 -0.092753
C8    C     C_R   0.970298 0.499833 0.474589 -0.057323
C9    C     C_R   0.940867 0.608127 0.509567 0.009595
C10   C     C_R   0.969887 0.285971 0.398364 0.194302
C11   C     C_R   0.030009 0.284732 0.403404 0.194122
C12   C     C_R   0.060450 0.393002 0.438999 -0.098189
C13   C     C_R   0.030262 0.499576 0.476240 -0.059809
C14   C     C_R   0.060016 0.606593 0.516555 0.006092
C15   C     C_R   0.030059 0.713161 0.551030 -0.147822
C16   C     C_R   0.971165 0.714274 0.546242 -0.144608
C17   C     C_R   0.120499 0.399653 0.436079 0.616057
N2    N     N_R   0.148313 0.503212 0.479811 -0.441497
C18   C     C_R   0.119320 0.604745 0.522066 0.618672
O9    O     O_2   0.853011 0.712162 0.535391 -0.502705
O10   O     O_2   0.848837 0.292816 0.427259 -0.477713
O11   O     O_2   0.151180 0.304867 0.387515 -0.470372
O12   O     O_2   0.147932 0.703685 0.569501 -0.504120
H1    H     H_    0.052030 0.796455 0.581188 0.181326
H2    H     H_    0.949456 0.798287 0.573286 0.188377
C19   C     C_R   0.240813 0.586119 0.400216 0.342814
C20   C     C_R   0.300645 0.588059 0.410480 0.066715
C21   C     C_R   0.328615 0.502192 0.496747 -0.233884
C22   C     C_R   0.296569 0.416855 0.574673 0.273643
C23   C     C_R   0.237401 0.422362 0.570613 -0.204861
H3    H     H_    0.212465 0.358557 0.631470 0.206663
C24   C     C_R   0.209398 0.504287 0.483247 0.146533
C25   C     C_R   0.759491 0.485735 0.370262 -0.147422
H4    H     H_    0.780549 0.471330 0.272321 0.181047
C26   C     C_R   0.700640 0.487213 0.375147 -0.242454
H5    H     H_    0.677428 0.471705 0.280114 0.187573
C27   C     C_R   0.672085 0.507307 0.500198 -0.107448
C28   C     C_R   0.704127 0.528833 0.622454 0.111808
C29   C     C_R   0.764074 0.521724 0.617875 0.338238
C30   C     C_R   0.791440 0.501840 0.490433 0.214493
C31   C     C_2   0.500824 0.933375 0.389988 -0.268885
C32   C     C_2   0.514758 0.865870 0.501467 0.197340
H6    H     H_    0.483711 0.889816 0.297975 0.161097
C33   C     C_2   0.504523 0.067207 0.387357 -0.116955
C34   C     C_2   0.493598 0.133335 0.500466 -0.193609
H7    H     H_    0.513817 0.111352 0.289331 0.171447
H8    H     H_    0.480539 0.090047 0.596230 0.179890
C35   C     C_2   0.468139 0.426681 0.922707 0.301563
N3    N     N_2   0.499380 0.498660 0.846910 -0.278559
H9    H     H_    0.520423 0.569821 0.894298 0.180513
C36   C     C_2   0.463675 0.438466 0.077921 -0.116909
N4    N     N_2   0.499370 0.498630 0.153040 -0.288392
H10   H     H_    0.429875 0.388547 0.129486 0.173396
H11   H     H_    0.533931 0.537799 0.105594 0.194424
N5    N     N_2   0.939772 0.179953 0.351857 -0.381529
H12   H     H_    0.955247 0.097097 0.386171 0.256095
C37   C     C_3   0.926579 0.180337 0.205859 -0.546755
H13   H     H_    0.966116 0.176590 0.143753 0.198977
H14   H     H_    0.902544 0.264219 0.177701 0.247252
H15   H     H_    0.899961 0.099107 0.180559 0.242345
N6    N     N_2   0.676152 0.554469 0.749574 -0.421334
H16   H     H_    0.695258 0.518483 0.836340 0.282291
C38   C     C_3   0.659021 0.681042 0.766470 -0.470756
H17   H     H_    0.696783 0.741961 0.773417 0.254353
H18   H     H_    0.633816 0.690283 0.862630 0.211532
H19   H     H_    0.632276 0.711233 0.678363 0.236155
N7    N     N_R   0.797333 0.533306 0.741776 0.120596
O13   O     O_R   0.836568 0.453359 0.769739 -0.346408
O14   O     O_R   0.791610 0.628356 0.821582 -0.340189
N8    N     N_R   0.546568 0.916546 0.615559 0.104624
O15   O     O_R   0.534411 0.885657 0.741913 -0.374169
O16   O     O_R   0.591529 0.983178 0.592416 -0.343422
N9    N     N_2   0.434152 0.335838 0.857706 -0.340882
H20   H     H_    0.391798 0.347033 0.880416 0.280122
C39   C     C_3   0.452314 0.211397 0.884694 -0.549240
H21   H     H_    0.426352 0.146759 0.822259 0.257282
H22   H     H_    0.446721 0.188185 0.995619 0.186533
H23   H     H_    0.497601 0.199597 0.855953 0.241042
N10   N     N_2   0.059747 0.174047 0.374047 -0.375733
H24   H     H_    0.044228 0.123742 0.292180 0.260820
C40   C     C_3   0.072256 0.099748 0.494177 -0.551642
H25   H     H_    0.032451 0.064971 0.541707 0.184160
H26   H     H_    0.096302 0.154011 0.571929 0.245590
H27   H     H_    0.098608 0.020216 0.463126 0.256659
N11   N     N_R   0.211865 0.665230 0.304696 0.133773
O17   O     O_R   0.173255 0.620755 0.222375 -0.331058
O18   O     O_R   0.221114 0.782952 0.305895 -0.323224
N12   N     N_2   0.333194 0.672623 0.330369 -0.400540
H28   H     H_    0.316698 0.692700 0.234394 0.295704
C41   C     C_3   0.352269 0.780227 0.404932 -0.544582
H29   H     H_    0.315453 0.835487 0.439474 0.265952
H30   H     H_    0.379174 0.837669 0.336462 0.211758
H31   H     H_    0.377833 0.753691 0.496459 0.196334
N13   N     N_R   0.322974 0.318813 0.650299 0.129828
O19   O     O_R   0.365548 0.259941 0.596956 -0.388072
O20   O     O_R   0.297954 0.272658 0.758324 -0.355115

loop_
_geom_bond_atom_site_label_1
_geom_bond_atom_site_label_2
_geom_bond_distance
_ccdc_geom_bond_type
N5    C37   1.447508 S    
C33   C34   1.337843 D    
N4    H11   1.027044 S    
C41   H29   1.110395 S    
C10   N5    1.426541 S    
C7    C10   1.420355 A    
C23   H3    1.083359 S    
C8    C9    1.413301 A    
N1    C30   1.438070 S    
N8    O15   1.301221 A    
Cu1   Cu2   2.685679 S    
C25   H4    1.083180 S    
Cu1   O7    1.946700 S    
N13   O20   1.301711 A    
C15   C16   1.388629 A    
C19   C20   1.413333 A    
C38   H18   1.110354 S    
C17   N2    1.370046 A    
N9    C39   1.447612 S    
C20   C21   1.418148 A    
O7    C4    1.299481 A    
N7    O14   1.300745 A    
C5    N1    1.366066 A    
C32   N8    1.443334 S    
C7    C8    1.412453 A    
O5    C3    1.291173 A    
C36   H10   1.084997 S    
C25   C26   1.387816 A    
C37   H13   1.110718 S    
C38   H19   1.110635 S    
N11   O18   1.300810 A    
C12   C13   1.412119 A    
O6    C3    1.295521 A    
N2    C18   1.366406 A    
C31   C33   1.461319 S    
N6    H16   1.030908 S    
N5    H12   1.030131 S    
C35   N3    1.301061 D    
C41   H30   1.109681 S    
O1    Cu1   1.952373 S    
C10   C11   1.417620 A    
N2    C24   1.439774 S    
C23   C24   1.396861 A    
O3    Cu1   1.945991 S    
C29   N7    1.437707 S    
N8    O16   1.301710 A    
C31   H6    1.086433 S    
C29   C30   1.410946 A    
C3    C32   1.454339 S    
C5    C9    1.398362 A    
C26   C27   1.404355 A    
C38   H17   1.110074 S    
C18   O12   1.350022 S    
C13   C14   1.413494 A    
N6    C38   1.448648 S    
C21   C22   1.414337 A    
N7    O13   1.301235 A    
N1    C6    1.368871 A    
C4    C27   1.483113 S    
C14   C15   1.402650 A    
C28   N6    1.425993 S    
C40   H27   1.110457 S    
C19   N11   1.437674 S    
N3    H9    1.027082 S    
O1    C1    1.292690 A    
C19   C24   1.409258 A    
C36   N4    1.288893 D    
C1    C34   1.442775 S    
N10   C40   1.447932 S    
N12   H28   1.030813 S    
Cu2   O8    1.945996 S    
C2    C21   1.473270 S    
N11   O17   1.301239 A    
C40   H26   1.111147 S    
C6    C7    1.417343 A    
C11   N10   1.426833 S    
C12   C17   1.416906 A    
N9    H20   1.030130 S    
C25   C30   1.396077 A    
O3    C2    1.300452 A    
C22   C23   1.396309 A    
N12   C41   1.447507 S    
O8    C4    1.302972 A    
C17   O11   1.348904 S    
C41   H31   1.109953 S    
C33   H7    1.086415 S    
C6    O10   1.348826 S    
Cu1   N3    2.017627 S    
C31   C32   1.347266 D    
C14   C18   1.398630 A    
Cu1   O5    1.952024 S    
C26   H5    1.083067 S    
C27   C28   1.422557 A    
C35   C36   1.512910 S    
C39   H21   1.110093 S    
O2    Cu2   1.952024 S    
C20   N12   1.426617 S    
C39   H23   1.111313 S    
O4    Cu2   1.946700 S    
C5    O9    1.350069 S    
C9    C16   1.402742 A    
C16   H2    1.083352 S    
N13   O19   1.301048 A    
C35   N9    1.418145 S    
O2    C1    1.290424 A    
N10   H24   1.030201 S    
O4    C2    1.294867 A    
C37   H15   1.110291 S    
C40   H25   1.110707 S    
C34   H8    1.084867 S    
C8    C13   1.413099 A    
C39   H22   1.111615 S    
Cu2   N4    2.018084 S    
C15   H1    1.083399 S    
Cu2   O6    1.952372 S    
C28   C29   1.415836 A    
C37   H14   1.111183 S    
C11   C12   1.420960 A    
C22   N13   1.438401 S    
