data_mof_unit_5474.cif
_audit_creation_date              2012-12-10T16:54:59-0500
_audit_creation_method            fapswitch 2.2
_symmetry_space_group_name_H-M    P1
_symmetry_Int_Tables_number       1
_space_group_crystal_system       triclinic
_cell_length_a                    7.856488
_cell_length_b                    8.560795
_cell_length_c                    15.724183
_cell_angle_alpha                 90.850331
_cell_angle_beta                  87.258864
_cell_angle_gamma                 93.00565
_cell_volume                      1054.82981033

loop_
_atom_site_label
_atom_site_type_symbol
_atom_type_description
_atom_site_fract_x
_atom_site_fract_y
_atom_site_fract_z
_atom_type_partial_charge
Br1   Br    Br    0.768883 0.019595 0.407521 -0.410558
Br2   Br    Br    0.576013 0.838940 0.079409 -0.388142
Br3   Br    Br    0.829641 0.591162 0.103116 -0.443479
C1    C     C_R   0.544402 0.793615 0.493516 0.886631
C2    C     C_2   0.435534 0.042513 0.500665 -0.414260
C3    C     C_R   0.504173 0.500418 0.661154 0.882732
C4    C     C_R   0.455519 0.205965 0.498770 0.975858
C5    C     C_R   0.495675 0.499248 0.338862 0.888527
C6    C     C_3   0.326238 0.552528 0.949373 -0.327368
C7    C     C_3   0.643516 0.602362 0.951804 -0.448341
C8    C     C_3   0.617404 0.620796 0.049585 0.466597
C9    C     C_1   0.483902 0.497681 0.250561 0.005348
C10   C     C_3   0.502618 0.486785 0.916764 -0.007030
C11   C     C_2   0.219914 0.677640 0.089981 1.003436
C12   C     C_3   0.293704 0.529868 0.049018 -0.244038
C13   C     C_2   0.175160 0.520524 0.893136 1.014394
C14   C     C_2   0.165384 0.394453 0.074747 0.968700
C15   C     C_2   0.399678 0.194256 0.919523 1.011291
C16   C     C_2   0.702510 0.252526 0.921049 0.953932
C17   C     C_3   0.475152 0.497362 0.083469 -0.024753
C18   C     C_3   0.526928 0.331316 0.051479 -0.482801
C19   C     C_3   0.531151 0.316799 0.951530 -0.138477
C20   C     C_1   0.475070 0.497086 0.175571 0.128129
C21   C     C_1   0.514824 0.492540 0.824746 0.058216
C22   C     C_1   0.513505 0.497070 0.749552 -0.066928
C23   C     C_2   0.565511 0.954217 0.475968 0.112949
H1    H     H_    0.653779 0.308444 0.075799 0.247490
H2    H     H_    0.989309 0.613429 0.828851 0.346268
H3    H     H_    0.053508 0.264904 0.170490 0.374536
H4    H     H_    0.302592 0.079998 0.817910 0.366591
H5    H     H_    0.872060 0.085900 0.933884 0.398273
H6    H     H_    0.317406 0.994766 0.531340 0.175536
H7    H     H_    0.011781 0.382257 0.436350 0.226835
H8    H     H_    0.988207 0.617765 0.563630 0.199318
H9    H     H_    0.349133 0.680531 0.939681 0.210947
H10   H     H_    0.771897 0.560847 0.935389 0.246392
H11   H     H_    0.641287 0.718153 0.920652 0.215190
H12   H     H_    0.442476 0.239167 0.082899 0.243844
H13   H     H_    0.117017 0.886600 0.074954 0.400213
N1    N     N_2   0.950340 0.457950 0.477370 -0.141591
N2    N     N_2   0.049660 0.542050 0.522630 -0.159489
O1    O     O_R   0.389240 0.738570 0.505550 -0.630794
O2    O     O_R   0.164565 0.797222 0.039789 -0.710033
O3    O     O_2   0.145993 0.391215 0.861619 -0.536461
O4    O     O_R   0.077012 0.644731 0.872047 -0.770849
O5    O     O_2   0.079325 0.323635 0.022738 -0.559069
O6    O     O_R   0.141864 0.354245 0.160668 -0.763203
O7    O     O_2   0.309538 0.113302 0.968824 -0.553262
O8    O     O_R   0.391023 0.165913 0.831885 -0.787322
O9    O     O_2   0.785845 0.309020 0.860303 -0.585029
O10   O     O_R   0.759555 0.120405 0.960198 -0.731765
O11   O     O_R   0.678400 0.711630 0.491050 -0.595119
O12   O     O_R   0.355360 0.513470 0.630110 -0.602372
O13   O     O_R   0.644510 0.486530 0.615610 -0.619868
O14   O     O_R   0.321600 0.288370 0.508950 -0.619689
O15   O     O_R   0.610760 0.261430 0.494450 -0.569804
O16   O     O_R   0.355490 0.513470 0.384390 -0.601252
O17   O     O_R   0.644640 0.486530 0.369890 -0.582653
O18   O     O_2   0.203592 0.690327 0.167570 -0.543490
Zn1   Zn    Zn3+2 0.306930 0.517990 0.509680 1.010624
Zn2   Zn    Zn3+2 0.693070 0.482010 0.490320 1.040494

loop_
_geom_bond_atom_site_label_1
_geom_bond_atom_site_label_2
_ccdc_geom_bond_type
C13   O4    S    
C1    C23   S    
O13   Zn2   S    
H5    O10   S    
C5    O16   A    
C13   O3    D    
C16   O9    D    
C17   C20   S    
C4    O14   A    
C5    C9    S    
C2    H6    S    
C17   C18   S    
O17   Zn2   S    
C6    C12   S    
O15   Zn2   S    
O14   Zn1   S    
C21   C22   T    
C11   O18   D    
C9    C20   T    
C12   C17   S    
H8    N2    S    
C1    O1    A    
C4    O15   A    
H3    O6    S    
C7    H11   S    
Br2   C8    S    
C18   C19   S    
N1    N2    D    
O12   Zn1   S    
C1    O11   A    
C10   C19   S    
C3    O13   A    
C2    C4    S    
O11   Zn2   S    
C18   H1    S    
Br1   C23   S    
H2    O4    S    
C8    C17   S    
C3    C22   S    
Br3   C8    S    
C7    C8    S    
N1    Zn2   S    
C3    O12   A    
C2    C23   D    
H7    N1    S    
C16   O10   S    
C16   C19   S    
C14   O5    D    
C15   O8    S    
C12   C14   S    
O1    Zn1   S    
C6    H9    S    
C6    C10   S    
C11   C12   S    
O16   Zn1   S    
H13   O2    S    
N2    Zn1   S    
C5    O17   A    
C15   C19   S    
H4    O8    S    
C18   H12   S    
C14   O6    S    
C10   C21   S    
C6    C13   S    
C11   O2    S    
C7    H10   S    
C7    C10   S    
C15   O7    D    
