data_mof_unit_64343.cif
_audit_creation_date              2012-12-10T16:57:20-0500
_audit_creation_method            fapswitch 2.2
_symmetry_space_group_name_H-M    P1
_symmetry_Int_Tables_number       1
_space_group_crystal_system       triclinic
_cell_length_a                    21.755022
_cell_length_b                    21.791698
_cell_length_c                    22.047605
_cell_angle_alpha                 60.32094
_cell_angle_beta                  118.388434
_cell_angle_gamma                 89.240667
_cell_volume                      7554.42354095

loop_
_atom_site_label
_atom_site_type_symbol
_atom_type_description
_atom_site_fract_x
_atom_site_fract_y
_atom_site_fract_z
_atom_type_partial_charge
C1    C     C_R   0.615347 0.502990 0.492520 0.790986
C2    C     C_3   0.290688 0.710362 0.083059 -0.096943
C3    C     C_3   0.198206 0.720181 0.974880 0.208879
C4    C     C_3   0.206758 0.792135 0.917030 -0.107445
C5    C     C_3   0.206054 0.748396 0.028950 0.386336
C6    C     C_3   0.215806 0.820016 0.972113 0.417218
C7    C     C_1   0.336334 0.664584 0.173757 0.130106
C8    C     C_1   0.161385 0.837134 0.826301 0.165244
C9    C     C_2   0.758435 0.567748 0.449015 -0.144628
C10   C     C_2   0.818344 0.506264 0.507786 0.375837
C11   C     C_2   0.694063 0.569215 0.454798 -0.154495
C12   C     C_R   0.418706 0.581585 0.337417 0.897347
C13   C     C_2   0.669827 0.510270 0.470554 0.364135
C14   C     C_3   0.733856 0.184234 0.029823 -0.389840
C15   C     C_3   0.680398 0.264914 0.974010 0.318211
C16   C     C_1   0.625896 0.373479 0.751303 -0.159739
C17   C     C_1   0.875582 0.125124 0.248635 -0.160276
C18   C     C_3   0.763420 0.210934 0.972574 0.358138
C19   C     C_3   0.709505 0.290560 0.916843 -0.062499
C20   C     C_3   0.822070 0.231723 0.026335 0.286007
C21   C     C_3   0.792573 0.206871 0.083106 -0.092929
C22   C     C_3   0.768580 0.311464 0.971529 0.291392
C23   C     C_R   0.382957 0.497604 0.504542 0.816773
C24   C     C_3   0.738059 0.286931 0.027449 0.376365
C25   C     C_1   0.663701 0.335822 0.826164 0.165095
C26   C     C_1   0.838291 0.162069 0.173767 0.128799
C27   C     C_2   0.247428 0.504166 0.565534 0.447984
C28   C     C_2   0.180701 0.526682 0.495315 0.258759
C29   C     C_2   0.311721 0.512636 0.558875 0.298854
C30   C     C_2   0.323875 0.487334 0.519138 0.166022
C31   C     C_R   0.001814 0.879592 0.502235 0.853660
C32   C     C_R   0.080871 0.918580 0.662621 0.910289
C33   C     C_R   0.996512 0.121994 0.493550 0.970965
C34   C     C_R   0.581214 0.418436 0.662563 0.896461
C35   C     C_R   0.919125 0.081200 0.337391 0.876947
C36   C     C_R   0.995346 0.619163 0.499439 0.922467
C37   C     C_R   0.881369 0.501761 0.501293 0.749078
C38   C     C_R   0.001337 0.380354 0.500822 0.905222
C39   C     C_R   0.118234 0.507096 0.499172 0.891842
C40   C     C_2   0.000609 0.684060 0.564288 -0.219540
C41   C     C_2   0.981391 0.685814 0.496077 -0.278860
C42   C     C_2   0.991500 0.754785 0.557336 0.407004
C43   C     C_2   0.009896 0.809046 0.510510 0.221918
C44   C     C_2   0.013516 0.310394 0.447005 0.210712
C45   C     C_3   0.291071 0.753999 0.971304 0.448553
C46   C     C_2   0.008812 0.311667 0.505276 0.272834
C47   C     C_2   0.026197 0.238584 0.456322 0.399619
C48   C     C_2   0.985077 0.196429 0.474380 -0.313312
C49   C     C_3   0.300923 0.782870 0.026119 -0.464224
C50   C     C_1   0.374053 0.626648 0.248641 -0.170762
C51   C     C_1   0.124340 0.874352 0.751410 -0.139426
C52   C     C_3   0.281947 0.682472 0.028369 0.303234
H1    H     H_    0.343638 0.807286 0.048811 0.180358
H2    H     H_    0.720191 0.131905 0.054305 0.192378
H3    H     H_    0.023035 0.631569 0.624762 0.171124
H4    H     H_    0.952354 0.738574 0.434520 0.177677
H5    H     H_    0.939352 0.218508 0.473513 0.118953
H6    H     H_    0.756912 0.616592 0.397879 0.105561
H7    H     H_    0.670153 0.615995 0.451089 0.119141
O1    O     O_R   0.590490 0.448940 0.499990 -0.623297
O2    O     O_R   0.948920 0.909510 0.500030 -0.578065
O3    O     O_R   0.112670 0.938280 0.623210 -0.606655
O4    O     O_R   0.010540 0.938370 0.623230 -0.601300
O5    O     O_R   0.051080 0.090340 0.499970 -0.544082
O6    O     O_R   0.948950 0.090430 0.499990 -0.644974
O7    O     O_R   0.989460 0.061480 0.376770 -0.607041
O8    O     O_R   0.887330 0.061570 0.376790 -0.622606
O9    O     O_R   0.965150 0.625240 0.430430 -0.642413
O10   O     O_R   0.034710 0.555670 0.569560 -0.605547
O11   O     O_R   0.874770 0.534770 0.430450 -0.628595
O12   O     O_R   0.590420 0.551070 0.499980 -0.629294
O13   O     O_R   0.944330 0.465210 0.569580 -0.631853
O14   O     O_R   0.965290 0.444330 0.430440 -0.572563
O15   O     O_R   0.034850 0.374760 0.569570 -0.613910
O16   O     O_R   0.055670 0.534790 0.430420 -0.581308
O17   O     O_R   0.125230 0.465230 0.569550 -0.589637
O18   O     O_R   0.438430 0.510550 0.376780 -0.600946
O19   O     O_R   0.438360 0.612680 0.376770 -0.618399
O20   O     O_R   0.409580 0.448930 0.500020 -0.615781
O21   O     O_R   0.409510 0.551060 0.500010 -0.606102
O22   O     O_R   0.561640 0.387320 0.623230 -0.600385
O23   O     O_R   0.561570 0.489450 0.623220 -0.609019
O24   O     O_R   0.051050 0.909420 0.500010 -0.629860
Zn1   Zn    Zn3+2 0.500050 0.431810 0.500010 1.011838
Zn2   Zn    Zn3+2 0.499950 0.568190 0.499990 1.000228
Zn3   Zn    Zn3+2 0.068190 0.999870 0.499990 1.048813
Zn4   Zn    Zn3+2 0.931810 0.999990 0.500010 1.016020
Zn5   Zn    Zn3+2 0.953560 0.546450 0.407100 1.015640
Zn6   Zn    Zn3+2 0.046440 0.453550 0.592900 1.013261
O25   O     O_3   0.694647 0.458291 0.461263 -0.738294
H8    H     H_    0.675926 0.415833 0.479032 0.352913
O26   O     O_3   0.605360 0.283118 0.943839 -0.752973
H9    H     H_    0.603658 0.256865 0.994474 0.346933
O27   O     O_3   0.728351 0.321893 0.063149 -0.605933
C53   C     C_3   0.672538 0.391947 0.999232 -0.243584
H10   H     H_    0.617379 0.385390 0.970723 0.199203
H11   H     H_    0.683000 0.427491 0.950036 0.191626
H12   H     H_    0.671508 0.421837 0.027549 0.184728
O28   O     O_3   0.782687 0.379207 0.934975 -0.602330
C54   C     C_3   0.841971 0.381841 0.998275 -0.220829
H13   H     H_    0.894906 0.341299 0.027080 0.199866
H14   H     H_    0.832791 0.372243 0.047329 0.188441
H15   H     H_    0.847024 0.438402 0.969267 0.183083
O29   O     O_3   0.896872 0.211216 0.056061 -0.743186
H16   H     H_    0.898066 0.233615 0.005200 0.356441
O30   O     O_3   0.776028 0.173153 0.941506 -0.724398
H17   H     H_    0.812559 0.123519 0.991771 0.351039
O31   O     O_3   0.253700 0.477471 0.640880 -0.605209
C55   C     C_3   0.317627 0.414524 0.708659 -0.204992
H18   H     H_    0.367857 0.431462 0.727309 0.194959
H19   H     H_    0.323465 0.373217 0.694363 0.151492
H20   H     H_    0.312840 0.386221 0.763361 0.188121
O32   O     O_3   0.170120 0.567342 0.416845 -0.583991
C56   C     C_3   0.149048 0.643929 0.384115 -0.276852
H21   H     H_    0.193387 0.657195 0.423958 0.173826
H22   H     H_    0.096467 0.662200 0.376707 0.167019
H23   H     H_    0.139698 0.676528 0.321004 0.206073
O33   O     O_3   0.357181 0.543851 0.596079 -0.753986
H24   H     H_    0.408911 0.518178 0.620283 0.331632
O34   O     O_3   0.330920 0.757974 0.935057 -0.581138
C57   C     C_3   0.407198 0.728169 0.997364 -0.225683
H25   H     H_    0.422822 0.670168 0.050994 0.187598
H26   H     H_    0.425046 0.764551 0.019717 0.154450
H27   H     H_    0.437596 0.726053 0.969504 0.189259
O35   O     O_3   0.282956 0.444451 0.498466 -0.756838
H28   H     H_    0.290640 0.437822 0.460963 0.369668
O36   O     O_3   0.968288 0.763916 0.601726 -0.764739
H29   H     H_    0.957657 0.718240 0.631915 0.340179
O37   O     O_3   0.046220 0.794074 0.479461 -0.786688
H30   H     H_    0.049633 0.841136 0.440656 0.344567
O38   O     O_3   0.008746 0.374582 0.381208 -0.756365
H31   H     H_    0.008125 0.363386 0.342510 0.347050
O39   O     O_3   0.026299 0.244672 0.578381 -0.616384
C58   C     C_3   0.971886 0.248603 0.595352 -0.309300
H32   H     H_    0.914732 0.277026 0.537681 0.134150
H33   H     H_    0.982220 0.276474 0.628290 0.195395
H34   H     H_    0.975407 0.190846 0.637942 0.208079
O40   O     O_3   0.079730 0.214879 0.448592 -0.728573
H35   H     H_    0.107525 0.250807 0.442195 0.346263
O41   O     O_3   0.177287 0.893904 0.936069 -0.594090
C59   C     C_3   0.203359 0.907321 0.998872 -0.246827
H36   H     H_    0.261018 0.908202 0.022248 0.163848
H37   H     H_    0.199479 0.865762 0.051780 0.186994
H38   H     H_    0.168389 0.963177 0.971129 0.188610
O42   O     O_3   0.166595 0.742207 0.066173 -0.602357
C60   C     C_3   0.090475 0.778219 0.003506 -0.236774
H39   H     H_    0.068028 0.747667 0.974251 0.200115
H40   H     H_    0.078114 0.837438 0.954775 0.190366
H41   H     H_    0.061265 0.778248 0.033240 0.183457
O43   O     O_3   0.145604 0.688404 0.946290 -0.735247
H42   H     H_    0.155140 0.642118 0.997638 0.362226
O44   O     O_3   0.317496 0.609783 0.060011 -0.735877
H43   H     H_    0.301926 0.609517 0.009989 0.361707
O45   O     O_3   0.823259 0.450511 0.579699 -0.730045
H44   H     H_    0.866890 0.406434 0.612433 0.340370

loop_
_geom_bond_atom_site_label_1
_geom_bond_atom_site_label_2
_ccdc_geom_bond_type
C21   C26   S    
C40   C41   D    
C13   O25   S    
C27   C29   S    
O1    Zn1   S    
C14   C18   S    
C53   H10   S    
C4    C8    S    
O11   Zn5   S    
C10   O45   S    
C58   H34   S    
C56   H21   S    
C53   H12   S    
C33   O6    A    
C48   H5    S    
O14   Zn5   S    
C36   O9    A    
O34   C57   S    
C44   O38   S    
C15   C19   S    
O3    Zn3   S    
C29   C30   D    
C31   C43   S    
C10   C37   S    
C5    C6    S    
C17   C26   T    
O15   Zn6   S    
O32   C56   S    
C41   H4    S    
C55   H19   S    
O42   C60   S    
O20   Zn1   S    
O10   Zn6   S    
O30   H17   S    
C31   O24   A    
O31   C55   S    
C57   H26   S    
C18   C19   S    
C31   O2    A    
O33   H24   S    
O26   H9    S    
C57   H27   S    
O2    Zn4   S    
C16   C34   S    
C15   O26   S    
O12   Zn2   S    
C2    C7    S    
C12   O19   A    
C34   O22   A    
C39   O16   A    
C23   O21   A    
C9    C10   D    
C44   C47   S    
O17   Zn6   S    
C40   C42   S    
C30   O35   S    
C37   O11   A    
C36   C41   S    
C11   H7    S    
O5    Zn3   S    
O29   H16   S    
C44   C46   D    
O6    Zn4   S    
C60   H40   S    
C4    C45   S    
C5    O42   S    
C23   C30   S    
C43   O37   S    
C19   C22   S    
O41   C59   S    
C32   O4    A    
C4    C6    S    
C28   O32   S    
C59   H38   S    
C58   H33   S    
O18   Zn1   S    
C54   H15   S    
C3    C4    S    
C18   O30   S    
C32   C51   S    
O21   Zn2   S    
C2    C49   S    
C24   O27   S    
C60   H41   S    
C56   H22   S    
C47   C48   D    
C35   O8    A    
C52   O44   S    
C40   H3    S    
C12   O18   A    
C54   H14   S    
C45   C49   S    
C57   H25   S    
C1    O12   A    
C39   O17   A    
C20   C21   S    
C9    C11   S    
C8    C51   T    
O45   H44   S    
C2    C52   S    
C42   O36   S    
O19   Zn2   S    
C15   C24   S    
C14   H2    S    
C20   C22   S    
O39   C58   S    
O9    Zn5   S    
C22   C24   S    
C55   H20   S    
C2    C5    S    
C1    C13   S    
C42   C43   D    
C21   C24   S    
O36   H29   S    
O22   Zn1   S    
C36   O10   A    
C45   O34   S    
C60   H39   S    
C38   O15   A    
C16   C25   T    
C9    H6    S    
C3    O43   S    
C22   O28   S    
O4    Zn4   S    
C35   O7    A    
C7    C50   T    
C3    C5    S    
O7    Zn3   S    
C12   C50   S    
C3    C52   S    
C53   H11   S    
C58   H32   S    
C20   O29   S    
O23   Zn2   S    
C34   O23   A    
C29   O33   S    
C28   C39   S    
O8    Zn4   S    
C45   C52   S    
O28   C54   S    
C59   H37   S    
O37   H30   S    
C32   O3    A    
C55   H18   S    
C46   O39   S    
O13   Zn6   S    
C11   C13   D    
O25   H8    S    
O35   H28   S    
C27   O31   S    
C33   O5    A    
C49   H1    S    
C47   O40   S    
C54   H13   S    
C18   C20   S    
C6    C49   S    
C6    O41   S    
O27   C53   S    
C1    O1    A    
C38   C46   S    
C56   H23   S    
O40   H35   S    
C19   C25   S    
C14   C21   S    
O16   Zn5   S    
O24   Zn3   S    
O44   H43   S    
C37   O13   A    
C27   C28   D    
C33   C48   S    
C14   C15   S    
C17   C35   S    
C23   O20   A    
C59   H36   S    
O38   H31   S    
O43   H42   S    
C38   O14   A    
