data_mof_unit_9556.cif
_audit_creation_date              2012-12-10T20:25:38-0500
_audit_creation_method            fapswitch 2.2
_symmetry_space_group_name_H-M    P1
_symmetry_Int_Tables_number       1
_space_group_crystal_system       triclinic
_cell_length_a                    8.589077
_cell_length_b                    10.679203
_cell_length_c                    9.871576
_cell_angle_alpha                 89.830176
_cell_angle_beta                  98.365963
_cell_angle_gamma                 90.323099
_cell_volume                      895.813884782

loop_
_atom_site_label
_atom_site_type_symbol
_atom_type_description
_atom_site_fract_x
_atom_site_fract_y
_atom_site_fract_z
_atom_type_partial_charge
C1    C     C_R   0.506989 0.259995 0.500847 0.878704
C2    C     C_R   0.529363 0.936015 0.376817 -0.229628
C3    C     C_R   0.531173 0.871535 0.501036 -0.102826
C4    C     C_R   0.568156 0.935639 0.624153 0.094314
C5    C     C_3   0.500355 0.928216 0.755189 -0.488306
C6    C     C_3   0.510984 0.070809 0.758500 -0.052296
C7    C     C_R   0.428440 0.405225 0.062715 0.216042
C8    C     C_R   0.584070 0.586417 0.082314 -0.135896
C9    C     C_R   0.584500 0.586144 0.938392 -0.130243
C10   C     C_R   0.427114 0.405983 0.920256 0.182601
C11   C     C_3   0.257055 0.371359 0.894771 -0.503445
C12   C     C_R   0.201252 0.500206 0.464226 0.973643
C13   C     C_3   0.259278 0.368869 0.048791 -0.507633
C14   C     C_R   0.504666 0.740129 0.500190 0.881004
C15   C     C_R   0.798627 0.501245 0.535562 0.967876
C16   C     C_2   0.036173 0.499173 0.444642 -0.391383
C17   C     C_2   0.963391 0.505331 0.554235 -0.385335
C18   C     C_R   0.573835 0.063647 0.624806 0.137943
C19   C     C_R   0.536068 0.128959 0.502042 -0.139899
C20   C     C_R   0.531297 0.065233 0.377249 -0.218992
H1    H     H_    0.974965 0.491863 0.340387 0.178894
H2    H     H_    0.650751 0.656799 0.892268 0.140015
H3    H     H_    0.183231 0.447788 0.844518 0.215018
H4    H     H_    0.236478 0.277785 0.846427 0.191692
H5    H     H_    0.184875 0.442517 0.085856 0.220492
H6    H     H_    0.242885 0.273388 0.089783 0.194375
H7    H     H_    0.024226 0.514356 0.657892 0.168826
H8    H     H_    0.515710 0.113817 0.279720 0.168973
H9    H     H_    0.513487 0.888086 0.279148 0.170072
H10   H     H_    0.376986 0.892897 0.739514 0.183633
H11   H     H_    0.578691 0.879354 0.837667 0.201690
H12   H     H_    0.393200 0.115511 0.748199 0.133315
H13   H     H_    0.649401 0.657715 0.144598 0.143902
N1    N     N_R   0.498950 0.499140 0.142680 -0.105454
N2    N     N_R   0.498950 0.499180 0.857030 -0.105792
O1    O     O_R   0.500020 0.316790 0.614690 -0.629074
O2    O     O_R   0.500000 0.316760 0.385350 -0.622798
O3    O     O_R   0.271760 0.500010 0.587850 -0.611698
O4    O     O_R   0.271740 0.499970 0.358500 -0.626149
O5    O     O_R   0.500000 0.683240 0.614650 -0.621354
O6    O     O_R   0.499980 0.683210 0.385310 -0.629413
O7    O     O_R   0.728260 0.500030 0.641500 -0.627613
O8    O     O_R   0.728240 0.499990 0.412150 -0.615621
Zn1   Zn    Zn3+2 0.500010 0.500020 0.653130 0.933747
Zn2   Zn    Zn3+2 0.499990 0.499980 0.346870 0.936903
C21   C     C_3   0.628492 0.126326 0.877206 -0.339921
C22   C     C_3   0.799598 0.082962 0.884944 -0.848968
H14   H     H_    0.810001 0.980478 0.901571 0.248131
H15   H     H_    0.847703 0.108817 0.790124 0.256826
H16   H     H_    0.872585 0.130124 0.972384 0.240267
H17   H     H_    0.628555 0.229552 0.865785 0.218645
H18   H     H_    0.585967 0.104194 0.975666 0.192195

loop_
_geom_bond_atom_site_label_1
_geom_bond_atom_site_label_2
_ccdc_geom_bond_type
C7    C10   A    
C6    H12   S    
O3    Zn1   S    
C16   H1    S    
O2    Zn2   S    
O8    Zn2   S    
C19   C20   A    
C6    C21   S    
C1    O2    A    
O4    Zn2   S    
C4    C18   A    
C12   O4    A    
C7    C13   S    
C2    C3    A    
C15   O8    A    
C22   H15   S    
N1    Zn2   S    
C8    N1    A    
N2    Zn1   S    
C11   C13   S    
C13   H5    S    
C10   N2    A    
C3    C14   S    
O7    Zn1   S    
C14   O6    A    
C12   C16   S    
C11   H3    S    
C18   C19   A    
C22   H16   S    
C8    H13   S    
C2    H9    S    
C12   O3    A    
C5    C6    S    
C6    C18   S    
C7    N1    A    
C13   H6    S    
O1    Zn1   S    
C1    C19   S    
C10   C11   S    
C14   O5    A    
C3    C4    A    
C17   H7    S    
C16   C17   D    
C21   H18   S    
C11   H4    S    
O5    Zn1   S    
C1    O1    A    
C15   C17   S    
C5    H10   S    
C9    N2    A    
O6    Zn2   S    
C9    H2    S    
C8    C9    A    
C20   H8    S    
C21   C22   S    
C2    C20   A    
C21   H17   S    
C22   H14   S    
C15   O7    A    
C4    C5    S    
C5    H11   S    
