data_mof_unit_38955.cif
_audit_creation_date              2012-12-10T17:17:32-0500
_audit_creation_method            fapswitch 2.2
_symmetry_space_group_name_H-M    P1
_symmetry_Int_Tables_number       1
_space_group_crystal_system       triclinic
_cell_length_a                    10.299612
_cell_length_b                    10.813735
_cell_length_c                    12.541179
_cell_angle_alpha                 90.867828
_cell_angle_beta                  110.370255
_cell_angle_gamma                 94.202712
_cell_volume                      1304.69389163

loop_
_atom_site_label
_atom_site_type_symbol
_atom_type_description
_atom_site_fract_x
_atom_site_fract_y
_atom_site_fract_z
_atom_type_partial_charge
C1    C     C_R   0.050934 0.732504 0.495230 0.951890
C2    C     C_R   0.212297 0.522951 0.836686 -0.138990
C3    C     C_2   0.082599 0.865697 0.507945 -0.345541
C4    C     C_R   0.135441 0.511337 0.713483 0.878424
C5    C     C_2   0.996471 0.932414 0.539760 -0.110297
C6    C     C_2   0.919509 0.135945 0.505187 -0.032741
C7    C     C_2   0.021008 0.063910 0.559959 0.159528
C8    C     C_2   0.434952 0.503649 0.521681 0.297425
C9    C     C_2   0.581147 0.469467 0.532139 0.190876
C10   C     C_R   0.950051 0.268204 0.507418 0.893476
C11   C     C_R   0.865566 0.488805 0.287308 0.891612
C12   C     C_R   0.417138 0.484167 0.997645 0.041462
C13   C     C_R   0.727383 0.316969 0.008169 -0.179974
C14   C     C_R   0.787315 0.461214 0.168644 -0.049168
C15   C     C_R   0.177642 0.611672 0.905193 0.074613
C16   C     C_R   0.245472 0.615105 0.023926 0.216602
C17   C     C_R   0.362262 0.547313 0.070954 0.091578
C18   C     C_3   0.610765 0.337390 0.557738 -0.822541
C19   C     C_3   0.309068 0.337761 0.384491 -0.667109
C20   C     C_3   0.524507 0.205210 0.797242 -0.917777
C21   C     C_3   0.070803 0.703104 0.852311 -0.760235
C22   C     C_3   0.412914 0.529610 0.197427 -0.853329
C23   C     C_R   0.330367 0.455102 0.884915 -0.030345
C24   C     C_3   0.156590 0.112824 0.647985 -0.904609
C25   C     C_R   0.554844 0.448536 0.031730 0.067858
C26   C     C_R   0.591769 0.356472 0.967886 0.153817
C27   C     C_R   0.493133 0.307915 0.865175 0.171062
C28   C     C_R   0.366049 0.360394 0.823349 -0.170711
C29   C     C_R   0.659229 0.508844 0.124106 -0.226410
C30   C     C_R   0.823647 0.367362 0.109588 -0.172038
H1    H     H_    0.923444 0.329044 0.144328 0.160934
H2    H     H_    0.210966 0.331812 0.309947 0.230927
H3    H     H_    0.396525 0.341434 0.352185 0.201843
H4    H     H_    0.308851 0.253010 0.433219 0.218115
H5    H     H_    0.439894 0.182594 0.715229 0.241530
H6    H     H_    0.619062 0.233434 0.777515 0.241797
H7    H     H_    0.541132 0.119942 0.846828 0.259373
H8    H     H_    0.084993 0.787525 0.907494 0.249939
H9    H     H_    0.081989 0.737864 0.772817 0.228779
H10   H     H_    0.964375 0.658287 0.833963 0.262454
H11   H     H_    0.482697 0.453620 0.222930 0.245013
H12   H     H_    0.903367 0.891335 0.551413 0.214248
H13   H     H_    0.466012 0.617630 0.243213 0.280962
H14   H     H_    0.323001 0.502972 0.223692 0.261573
H15   H     H_    0.217820 0.036490 0.692441 0.259412
H16   H     H_    0.219082 0.166343 0.605734 0.249861
H17   H     H_    0.134920 0.169991 0.713091 0.225444
H18   H     H_    0.175453 0.908421 0.496522 0.189256
H19   H     H_    0.759199 0.244651 0.964486 0.159837
H20   H     H_    0.640138 0.589614 0.166591 0.184543
H21   H     H_    0.295877 0.325511 0.742133 0.177385
H22   H     H_    0.526447 0.287422 0.579731 0.214908
H23   H     H_    0.617425 0.288884 0.481750 0.272819
H24   H     H_    0.707624 0.333765 0.632532 0.255325
I1    I     I_    0.721761 0.065322 0.388052 -0.352454
I2    I     I_    0.445868 0.644143 0.648590 -0.288581
I3    I     I_    0.632695 0.724443 0.473096 -0.250140
I4    I     I_    0.168785 0.718540 0.134370 -0.359471
N1    N     N_2   0.313640 0.446500 0.454900 -0.078474
N2    N     N_2   0.686360 0.553430 0.545150 -0.030308
O1    O     O_R   0.936910 0.692950 0.509080 -0.596075
O2    O     O_R   0.138320 0.658600 0.480130 -0.567765
O3    O     O_R   0.002900 0.525670 0.675280 -0.606642
O4    O     O_R   0.204310 0.491320 0.646330 -0.601375
O5    O     O_R   0.861680 0.341400 0.519870 -0.613838
O6    O     O_R   0.063090 0.307050 0.490920 -0.611854
O7    O     O_R   0.795690 0.508680 0.353670 -0.598113
O8    O     O_R   0.997100 0.474330 0.324720 -0.601871
Zn1   Zn    Zn3+2 0.865520 0.522940 0.519330 0.988459
Zn2   Zn    Zn3+2 0.134480 0.477060 0.480670 0.983818

loop_
_geom_bond_atom_site_label_1
_geom_bond_atom_site_label_2
_ccdc_geom_bond_type
C12   C17   A    
C6    C10   S    
C2    C4    S    
C5    H12   S    
C6    C7    D    
C2    C15   A    
C20   C27   S    
O4    Zn2   S    
C4    O4    A    
C17   C22   S    
C21   H9    S    
C6    I1    S    
C9    N2    D    
C24   H16   S    
C1    O2    A    
C8    I2    S    
C18   H22   S    
O3    Zn1   S    
C16   I4    S    
C23   C28   A    
C11   O8    A    
O7    Zn1   S    
C20   H7    S    
C24   H17   S    
C12   C23   A    
C26   C27   A    
O6    Zn2   S    
C21   H10   S    
C9    C18   S    
C14   C30   A    
C13   H19   S    
C24   H15   S    
N2    Zn1   S    
C4    O3    A    
C11   C14   S    
C11   O7    A    
C29   H20   S    
C10   O6    A    
C8    N1    D    
C25   C29   A    
C30   H1    S    
C28   H21   S    
O5    Zn1   S    
C13   C26   A    
C22   H11   S    
C18   H24   S    
C12   C25   A    
C15   C16   A    
C20   H6    S    
C3    C5    D    
C3    H18   S    
C15   C21   S    
C13   C30   A    
O2    Zn2   S    
C2    C23   A    
O8    Zn2   S    
C19   H3    S    
C10   O5    A    
O1    Zn1   S    
C27   C28   A    
C5    C7    S    
C16   C17   A    
I3    N2    S    
N1    Zn2   S    
C18   H23   S    
C19   N1    S    
C25   C26   A    
C20   H5    S    
C19   H2    S    
C22   H13   S    
C22   H14   S    
C21   H8    S    
C7    C24   S    
C14   C29   A    
C8    C9    S    
C1    C3    S    
C19   H4    S    
C1    O1    A    
