data_mof_unit_18655.cif
_audit_creation_date              2013-03-05T15:57:26-0500
_audit_creation_method            fapswitch 2.2
_symmetry_space_group_name_H-M    P1
_symmetry_Int_Tables_number       1
_space_group_crystal_system       triclinic
_cell_length_a                    13.019295
_cell_length_b                    13.046356
_cell_length_c                    15.449593
_cell_angle_alpha                 117.605761
_cell_angle_beta                  63.471201
_cell_angle_gamma                 97.834285
_cell_volume                      2072.31140022

loop_
_atom_site_label
_atom_site_type_symbol
_atom_site_description
_atom_site_fract_x
_atom_site_fract_y
_atom_site_fract_z
_atom_type_partial_charge
C1    C     C_R   0.997436 0.832639 0.060208 -0.108573
H1    H     H_    0.026352 0.893695 0.119434 0.097892
N1    N     N_R   0.037320 0.720000 0.995830 -0.045672
C2    C     C_R   0.678870 0.476901 0.219675 -0.142326
H2    H     H_    0.608355 0.440082 0.199543 0.100905
N2    N     N_R   0.790770 0.446140 0.151990 -0.043145
C3    C     C_R   0.756084 0.519628 0.893588 -0.174338
H3    H     H_    0.778844 0.548835 0.832660 0.099959
N3    N     N_R   0.824900 0.517970 0.936430 -0.042746
C4    C     C_R   0.025766 0.695844 0.297157 -0.147481
H4    H     H_    0.012267 0.652944 0.345766 0.100977
N4    N     N_R   0.003190 0.648180 0.211390 -0.042358
C5    C     C_R   0.674848 0.423697 0.991642 -0.092544
H5    H     H_    0.622668 0.367048 0.024298 0.129872
N5    N     N_R   0.774330 0.457010 0.995830 -0.053158
C6    C     C_R   0.103097 0.796825 0.205014 -0.148585
H6    H     H_    0.157944 0.850906 0.170682 0.117537
N6    N     N_R   0.053760 0.709130 0.151980 -0.041509
C7    C     C_R   0.783005 0.576166 0.309470 -0.088363
H7    H     H_    0.808800 0.638558 0.370330 0.118283
N7    N     N_R   0.853840 0.498830 0.211390 -0.042159
C8    C     C_R   0.895023 0.747726 0.965656 -0.167344
H8    H     H_    0.828133 0.730752 0.939001 0.102435
N8    N     N_R   0.974250 0.667320 0.936430 -0.039214
C9    C     C_R   0.905904 0.852150 0.044782 0.119719
C10   C     C_R   0.672243 0.556709 0.320573 0.039313
C11   C     C_R   0.662562 0.459985 0.925933 0.198046
C12   C     C_R   0.091493 0.788026 0.294678 0.072912
C13   C     C_R   0.337341 0.511016 0.945639 -0.152812
H9    H     H_    0.394620 0.543008 0.889368 0.102015
N9    N     N_R   0.225670 0.542990 0.004170 -0.036275
C14   C     C_R   0.965454 0.178188 0.780884 -0.093641
H10   H     H_    0.929724 0.115423 0.809528 0.128670
N10   N     N_R   0.946240 0.290870 0.848020 -0.042308
C15   C     C_R   0.206110 0.494304 0.690698 -0.134280
H11   H     H_    0.178464 0.454232 0.628064 0.134380
N11   N     N_R   0.146160 0.501170 0.788610 -0.040701
C16   C     C_R   0.051046 0.255134 0.087120 -0.102113
H12   H     H_    0.089127 0.274637 0.141837 0.084292
N12   N     N_R   0.025750 0.332680 0.063570 -0.042397
C17   C     C_R   0.948328 0.172213 0.995012 -0.129828
H13   H     H_    0.889164 0.116598 0.967040 0.118372
N13   N     N_R   0.962680 0.280000 0.004170 -0.045092
C18   C     C_R   0.300659 0.591713 0.790248 -0.147590
H14   H     H_    0.354900 0.652752 0.822261 0.098084
N14   N     N_R   0.209230 0.553860 0.848010 -0.036703
C19   C     C_R   0.259564 0.414371 0.044376 -0.079914
H15   H     H_    0.248054 0.361398 0.084035 0.139524
N15   N     N_R   0.175100 0.482030 0.063570 -0.050329
C20   C     C_R   0.048174 0.275415 0.683532 -0.117126
H16   H     H_    0.090633 0.298206 0.617914 0.093487
N16   N     N_R   0.996810 0.351820 0.788610 -0.039602
Ni1   Ni    Ni4+2 0.130310 0.630310 0.000000 0.215610
Ni2   Ni    Ni4+2 0.869690 0.369690 0.000000 0.233926
Ni3   Ni    Ni4+2 0.985660 0.509480 0.863750 0.219535
Ni4   Ni    Ni4+2 0.014340 0.490520 0.136250 0.214893
C21   C     C_R   0.362552 0.429055 0.968099 0.003058
C22   C     C_R   0.034420 0.163762 0.675752 0.052141
C23   C     C_R   0.301043 0.555045 0.690882 0.061989
C24   C     C_R   0.004720 0.151828 0.044292 0.049865
H17   H     H_    0.497134 0.987531 0.013051 0.127519
C25   C     C_R   0.440410 0.885841 0.100563 -0.147929
H18   H     H_    0.507195 0.815647 0.038544 0.106446
C26   C     C_R   0.360038 0.879528 0.195048 -0.136489
H19   H     H_    0.365892 0.804008 0.205102 0.115346
C27   C     C_R   0.272809 0.970311 0.276104 0.120934
C28   C     C_R   0.268033 0.067509 0.260819 -0.199230
H20   H     H_    0.201130 0.137875 0.321317 0.106706
C29   C     C_R   0.348647 0.073450 0.166222 -0.087767
H21   H     H_    0.344173 0.148362 0.154906 0.143164
C30   C     C_R   0.434778 0.982748 0.086198 -0.072160
C31   C     C_R   0.162084 0.059706 0.477836 -0.229850
H22   H     H_    0.199156 0.139724 0.480127 0.124537
C32   C     C_R   0.085020 0.053809 0.574501 0.069538
C33   C     C_R   0.057879 0.942438 0.568774 0.031646
C34   C     C_R   0.092776 0.846385 0.468346 -0.226696
H23   H     H_    0.068202 0.763115 0.466234 0.122820
C35   C     C_R   0.136001 0.860954 0.374825 0.041636
C36   C     C_R   0.188325 0.963410 0.376632 0.033863
C37   C     C_R   0.021664 0.911955 0.727024 -0.167353
H24   H     H_    0.111140 0.923191 0.711554 0.125859
C38   C     C_R   0.946266 0.893150 0.815703 -0.160807
H25   H     H_    0.978551 0.889872 0.867708 0.138226
C39   C     C_R   0.829983 0.880345 0.837394 -0.129967
H26   H     H_    0.771045 0.866622 0.906366 0.096388
C40   C     C_R   0.789175 0.885434 0.769787 -0.088401
H27   H     H_    0.699465 0.874767 0.786195 0.115760
C41   C     C_R   0.864048 0.905215 0.681496 -0.142288
H28   H     H_    0.831681 0.909779 0.629706 0.128409
C42   C     C_R   0.980112 0.920573 0.661087 0.098179
H29   H     H_    0.025275 0.419034 0.352424 0.109718
C43   C     C_R   0.860093 0.364678 0.359388 -0.109908
H30   H     H_    0.893576 0.277217 0.296361 0.112873
C44   C     C_R   0.744317 0.400528 0.402521 -0.104715
H31   H     H_    0.689454 0.341328 0.369728 0.116585
C45   C     C_R   0.702561 0.516030 0.480433 0.117176
C46   C     C_R   0.773485 0.591309 0.523699 -0.193617
H32   H     H_    0.741791 0.680339 0.584158 0.120792
C47   C     C_R   0.890026 0.556225 0.477379 -0.132999
H33   H     H_    0.946927 0.617725 0.504055 0.131482
C48   C     C_R   0.933975 0.444183 0.392860 -0.111749
C49   C     C_R   0.499552 0.572048 0.594375 -0.240317
H34   H     H_    0.514892 0.558130 0.651857 0.129325
C50   C     C_R   0.388796 0.577464 0.604266 0.072117
C51   C     C_R   0.369552 0.587539 0.524946 0.024876
C52   C     C_R   0.464246 0.591395 0.436429 -0.244740
H35   H     H_    0.451700 0.596087 0.373457 0.131515
C53   C     C_R   0.575413 0.576519 0.423203 0.076540
C54   C     C_R   0.592434 0.562589 0.501662 0.016188
C55   C     C_R   0.241580 0.465059 0.446180 -0.168275
H36   H     H_    0.315678 0.406474 0.377695 0.120285
C56   C     C_R   0.131878 0.426031 0.466539 -0.157424
H37   H     H_    0.121651 0.340003 0.412080 0.109855
C57   C     C_R   0.036250 0.495111 0.560732 -0.127993
H38   H     H_    0.952079 0.462334 0.579456 0.133964
C58   C     C_R   0.048920 0.606691 0.630621 -0.123564
H39   H     H_    0.974269 0.659080 0.703090 0.133768
C59   C     C_R   0.158860 0.645761 0.611572 -0.130912
H40   H     H_    0.169203 0.726762 0.672308 0.115637
C60   C     C_R   0.256274 0.571870 0.522641 0.109628
C61   C     C_2   0.479917 0.381714 0.928132 0.328619
C62   C     C_2   0.566119 0.446895 0.900296 -0.349448
H41   H     H_    0.554470 0.516883 0.885539 0.114317
C63   C     C_2   0.823750 0.956706 0.109292 -0.196533
H42   H     H_    0.758340 0.959972 0.085138 0.137730
C64   C     C_2   0.822720 0.046041 0.199483 -0.160745
H43   H     H_    0.883642 0.048686 0.230463 0.128326
N17   N     N_R   0.501683 0.272133 0.921813 0.232247
O1    O     O_R   0.419624 0.225637 0.975276 -0.459050
O2    O     O_R   0.599906 0.210588 0.850385 -0.407078

loop_
_geom_bond_atom_site_label_1
_geom_bond_atom_site_label_2
_geom_bond_distance
_ccdc_geom_bond_type
C6    C12   1.382284 A    
C64   H43   1.084323 S    
C17   H13   1.077466 S    
C7    H7    1.075960 S    
C14   C22   1.392763 A    
N17   O1    1.300384 A    
C56   C57   1.397122 A    
C57   H38   1.082187 S    
C3    H3    1.082373 S    
C19   N15   1.344281 A    
C58   H39   1.079413 S    
N8    Ni3   1.820664 S    
C27   C36   1.485488 S    
C25   H18   1.082772 S    
C23   C50   1.444812 S    
C7    N7    1.324019 A    
N9    N15   1.379164 A    
C31   C36   1.399676 A    
C29   H21   1.082635 S    
C16   H12   1.079733 S    
C40   C41   1.395471 A    
C52   H35   1.084811 S    
C18   C23   1.377954 A    
C3    C11   1.377053 A    
C53   C54   1.416539 A    
C15   C23   1.374636 A    
C1    H1    1.078878 S    
C29   C30   1.397745 A    
C7    C10   1.375847 A    
C55   H36   1.083538 S    
C56   H37   1.081422 S    
C25   C26   1.398581 A    
N6    Ni1   1.874892 S    
C59   H40   1.081879 S    
N12   N13   1.386920 A    
C15   H11   1.063134 S    
C6    H6    1.077118 S    
N12   Ni4   1.820664 S    
C8    C9    1.388922 A    
C20   N16   1.337350 A    
C51   C60   1.475148 S    
N3    Ni3   1.871427 S    
C12   C35   1.474128 S    
C33   C42   1.465916 S    
N16   Ni3   1.821380 S    
H17   C30   1.082627 S    
C27   C28   1.407057 A    
C5    H5    1.079255 S    
C1    C9    1.390802 A    
C17   N13   1.341643 A    
N1    N8    1.386921 A    
C44   H31   1.083328 S    
H29   C48   1.078826 S    
C50   C51   1.419271 A    
C46   C47   1.392677 A    
C11   C62   1.444207 S    
C18   N14   1.325305 A    
C46   H32   1.082944 S    
C59   C60   1.405254 A    
C32   C33   1.418681 A    
C13   C21   1.383042 A    
C28   H20   1.081934 S    
C20   C22   1.397935 A    
N5    Ni2   1.835309 S    
C34   H23   1.079515 S    
C61   N17   1.445709 S    
C31   C32   1.410624 A    
C55   C60   1.406239 A    
C40   H27   1.082433 S    
C31   H22   1.080599 S    
N2    N7    1.386934 A    
N9    Ni1   1.835309 S    
C28   C29   1.398595 A    
C26   C27   1.407990 A    
C49   C50   1.388711 A    
C33   C34   1.381198 A    
C13   H9    1.076296 S    
C19   C21   1.396771 A    
N13   Ni2   1.834338 S    
C2    C10   1.386238 A    
C19   H15   1.075957 S    
C45   C46   1.399899 A    
C43   C44   1.393173 A    
C20   H16   1.075023 S    
C39   H26   1.079475 S    
C44   C45   1.404605 A    
C61   C62   1.347300 D    
N4    Ni4   1.821380 S    
C4    N4    1.327910 A    
C43   C48   1.394187 A    
C16   C24   1.387969 A    
C2    N2    1.336629 A    
C47   C48   1.400286 A    
C41   C42   1.404742 A    
N2    Ni2   1.875643 S    
C38   C39   1.400680 A    
C5    N5    1.328876 A    
C8    N8    1.344685 A    
C10   C53   1.446917 S    
C18   H14   1.082199 S    
C22   C32   1.481946 S    
C63   C64   1.335152 D    
C45   C54   1.471383 S    
C4    C12   1.383082 A    
C3    N3    1.337751 A    
C15   N11   1.320701 A    
C35   C36   1.409154 A    
C5    C11   1.375299 A    
C17   C24   1.389107 A    
C34   C35   1.392633 A    
C37   H24   1.082970 S    
N17   O2    1.302282 A    
N7    Ni4   1.871899 S    
C57   C58   1.396104 A    
N10   Ni2   1.874893 S    
N15   Ni4   1.871426 S    
C51   C52   1.390477 A    
N10   N16   1.379169 A    
C47   H33   1.080130 S    
C14   H10   1.063424 S    
N3    N5    1.379165 A    
C13   N9    1.321671 A    
C26   H19   1.083305 S    
C16   N12   1.342893 A    
N1    Ni1   1.834338 S    
C52   C53   1.396350 A    
N14   Ni1   1.875644 S    
C43   H30   1.080228 S    
C37   C38   1.394749 A    
C58   C59   1.399650 A    
C25   C30   1.397458 A    
C37   C42   1.399316 A    
C49   H34   1.085958 S    
C9    C63   1.477685 S    
C55   C56   1.395333 A    
C4    H4    1.073753 S    
C21   C61   1.469201 S    
N11   Ni3   1.871898 S    
C2    H2    1.080136 S    
C41   H28   1.083307 S    
C6    N6    1.339373 A    
C38   H25   1.078178 S    
N4    N6    1.379168 A    
C62   H41   1.081788 S    
C8    H8    1.077176 S    
C39   C40   1.395450 A    
C49   C54   1.363377 A    
C1    N1    1.345547 A    
N11   N14   1.386935 A    
C14   N10   1.324723 A    
C63   H42   1.083883 S    
