data_mof_unit_5348.cif
_audit_creation_date              2013-03-05T15:40:48-0500
_audit_creation_method            fapswitch 2.2
_symmetry_space_group_name_H-M    P1
_symmetry_Int_Tables_number       1
_space_group_crystal_system       triclinic
_cell_length_a                    7.930476
_cell_length_b                    8.553683
_cell_length_c                    14.84821
_cell_angle_alpha                 93.650976
_cell_angle_beta                  85.574681
_cell_angle_gamma                 92.625751
_cell_volume                      1001.33715437

loop_
_atom_site_label
_atom_site_type_symbol
_atom_site_description
_atom_site_fract_x
_atom_site_fract_y
_atom_site_fract_z
_atom_type_partial_charge
O1    O     O_R   0.389250 0.738570 0.505970 -0.608946
O2    O     O_R   0.610750 0.261430 0.494030 -0.608949
O3    O     O_R   0.678390 0.711620 0.490370 -0.647518
O4    O     O_R   0.321610 0.288380 0.509630 -0.647514
C1    C     C_R   0.544262 0.793800 0.498585 0.955492
C2    C     C_R   0.455738 0.206200 0.501413 0.955488
O5    O     O_R   0.355420 0.513510 0.639950 -0.612833
O6    O     O_R   0.644580 0.486490 0.360050 -0.612839
O7    O     O_R   0.644560 0.486560 0.624350 -0.652173
O8    O     O_R   0.355440 0.513440 0.375650 -0.652180
C3    C     C_R   0.501416 0.500356 0.672351 0.868703
C4    C     C_R   0.498584 0.499644 0.327649 0.868698
Zn1   Zn    Zn3+2 0.306940 0.517990 0.510420 0.941394
Zn2   Zn    Zn3+2 0.693060 0.482010 0.489580 0.941397
C5    C     C_R   0.417906 0.376174 0.185850 -0.185126
C6    C     C_R   0.582091 0.623826 0.814150 -0.185125
C7    C     C_R   0.495336 0.501855 0.232521 -0.064540
C8    C     C_R   0.504663 0.498145 0.767479 -0.064547
C9    C     C_R   0.571028 0.629181 0.189193 -0.177740
C10   C     C_R   0.428970 0.370819 0.810807 -0.177742
C11   C     C_R   0.568306 0.634026 0.095856 0.001794
C12   C     C_R   0.431689 0.365976 0.904145 0.001796
C13   C     C_R   0.497354 0.502021 0.047027 0.022358
C14   C     C_R   0.502641 0.497981 0.952973 0.022358
C15   C     C_R   0.421437 0.373542 0.092511 0.092924
C16   C     C_R   0.578558 0.626460 0.907489 0.092923
C17   C     C_R   0.638881 0.764217 0.049839 0.302684
C18   C     C_R   0.361110 0.235786 0.950161 0.302687
C19   C     C_R   0.646118 0.757287 0.955565 -0.210652
C20   C     C_R   0.353875 0.242716 0.044435 -0.210653
H1    H     H_    0.360291 0.278736 0.222220 0.143419
H2    H     H_    0.639706 0.721265 0.777780 0.143419
H3    H     H_    0.632295 0.722383 0.229159 0.184634
H4    H     H_    0.367705 0.277617 0.770841 0.184634
H5    H     H_    0.700124 0.856564 0.919745 0.205455
H6    H     H_    0.299867 0.143439 0.080255 0.205450
C21   C     C_2   0.567505 0.957203 0.500677 -0.350685
C22   C     C_2   0.432496 0.042797 0.499315 -0.350681
H7    H     H_    0.695446 0.006608 0.504785 0.174171
H8    H     H_    0.304557 0.993392 0.495205 0.174155
N1    N     N_2   0.950330 0.457950 0.475660 -0.033461
N2    N     N_2   0.049670 0.542050 0.524340 -0.033466
N3    N     N_R   0.698353 0.905495 0.097232 0.200617
O9    O     O_R   0.602432 0.972438 0.162217 -0.431236
O10   O     O_R   0.832004 0.982870 0.064585 -0.347960
N4    N     N_R   0.301634 0.094510 0.902769 0.200616
O11   O     O_R   0.397555 0.027559 0.837787 -0.431234
O12   O     O_R   0.167971 0.017146 0.935412 -0.347958
C23   C     C_3   0.022261 0.376727 0.393757 -0.159064
C24   C     C_3   0.921550 0.226126 0.369238 -0.803785
H9    H     H_    0.909837 0.150177 0.427372 0.242003
H10   H     H_    0.795251 0.249144 0.347894 0.299841
H11   H     H_    0.990137 0.161289 0.311445 0.233978
H12   H     H_    0.028916 0.455421 0.336776 0.188004
H13   H     H_    0.146673 0.335214 0.402930 0.228268
C25   C     C_3   0.977741 0.623281 0.606240 -0.159085
C26   C     C_3   0.078455 0.773883 0.630749 -0.803759
H14   H     H_    0.204724 0.750858 0.652136 0.299822
H15   H     H_    0.090240 0.849784 0.572594 0.242035
H16   H     H_    0.009828 0.838773 0.688509 0.233958
H17   H     H_    0.853327 0.664790 0.597067 0.228269
H18   H     H_    0.971090 0.544597 0.663225 0.188006

loop_
_geom_bond_atom_site_label_1
_geom_bond_atom_site_label_2
_geom_bond_distance
_ccdc_geom_bond_type
C4    C7    1.416046 S    
O5    C3    1.299788 A    
O7    Zn2   2.006615 S    
C2    C22   1.400085 S    
C3    C8    1.416046 S    
C5    H1    1.086005 S    
C21   C22   1.326596 D    
C1    C21   1.400088 S    
C6    H2    1.086005 S    
N3    O10   1.301439 A    
N1    N2    1.276839 D    
C19   H5    1.084655 S    
C24   H10   1.103372 S    
O6    C4    1.299788 A    
N3    O9    1.301488 A    
C10   H4    1.082837 S    
C18   C20   1.394125 A    
C24   H9    1.108730 S    
C11   C17   1.414573 A    
C21   H7    1.085708 S    
C12   C18   1.414574 A    
C22   H8    1.085701 S    
O7    C3    1.298958 A    
C18   N4    1.438284 S    
C26   H14   1.103392 S    
O2    C2    1.295766 A    
O3    Zn2   1.972004 S    
O8    C4    1.298956 A    
C16   C19   1.396881 A    
Zn2   N1    2.053234 S    
O1    C1    1.295769 A    
C12   C14   1.420451 A    
N1    C23   1.452121 S    
Zn1   N2    2.053234 S    
C7    C9    1.389284 A    
C10   C12   1.391002 A    
C8    C10   1.389284 A    
C11   C13   1.420451 A    
C6    C16   1.382799 A    
O2    Zn2   1.971483 S    
C25   H18   1.110890 S    
C26   H15   1.108724 S    
O4    C2    1.295389 A    
C17   C19   1.394127 A    
C13   C14   1.392206 A    
C23   H12   1.110895 S    
C24   H11   1.111221 S    
N4    O12   1.301444 A    
C17   N3    1.438286 S    
O5    Zn1   1.993282 S    
C13   C15   1.413315 A    
O1    Zn1   1.971481 S    
C25   C26   1.523394 S    
C5    C15   1.382798 A    
C6    C8    1.386827 A    
C23   C24   1.523405 S    
C9    H3    1.082838 S    
C15   C20   1.396881 A    
C5    C7    1.386827 A    
C25   H17   1.084951 S    
C26   H16   1.111234 S    
O6    Zn2   1.993283 S    
N2    C25   1.452116 S    
C9    C11   1.391003 A    
N4    O11   1.301489 A    
O8    Zn1   2.006617 S    
O4    Zn1   1.972006 S    
C14   C16   1.413316 A    
O3    C1    1.295388 A    
C23   H13   1.084953 S    
C20   H6    1.084657 S    
