data_mof_unit_44409.cif
_audit_creation_date              2012-12-10T16:49:24-0500
_audit_creation_method            fapswitch 2.2
_symmetry_space_group_name_H-M    P1
_symmetry_Int_Tables_number       1
_space_group_crystal_system       triclinic
_cell_length_a                    7.813779
_cell_length_b                    8.622924
_cell_length_c                    12.854175
_cell_angle_alpha                 89.124974
_cell_angle_beta                  87.064461
_cell_angle_gamma                 92.765502
_cell_volume                      863.803248962

loop_
_atom_site_label
_atom_site_type_symbol
_atom_type_description
_atom_site_fract_x
_atom_site_fract_y
_atom_site_fract_z
_atom_type_partial_charge
Br1   Br    Br    0.882456 0.326535 0.205597 -0.389201
Br2   Br    Br    0.117543 0.673465 0.794403 -0.389201
Br3   Br    Br    0.983350 0.671678 0.365981 -0.262751
Br4   Br    Br    0.016650 0.328322 0.634019 -0.262751
Br5   Br    Br    0.227182 0.976983 0.594828 -0.314990
Br6   Br    Br    0.772818 0.023017 0.405172 -0.314990
C1    C     C_R   0.456293 0.205917 0.497774 0.912575
C2    C     C_R   0.698077 0.418019 0.137068 0.282067
C3    C     C_R   0.568889 0.446514 0.868281 -0.231499
C4    C     C_R   0.431112 0.553487 0.131719 -0.231499
C5    C     C_R   0.567571 0.462365 0.974413 0.113900
C6    C     C_R   0.432429 0.537636 0.025587 0.113900
C7    C     C_2   0.433796 0.044483 0.512993 0.016139
C8    C     C_2   0.566204 0.955517 0.487007 0.016139
C9    C     C_R   0.543707 0.794083 0.502226 0.912575
C10   C     C_R   0.464422 0.504627 0.699814 0.899153
C11   C     C_R   0.535578 0.495373 0.300186 0.899153
C12   C     C_R   0.559757 0.490648 0.188428 -0.120444
C13   C     C_R   0.440243 0.509353 0.811572 -0.120444
C14   C     C_R   0.299343 0.594926 0.970298 -0.197948
C15   C     C_R   0.700657 0.405074 0.029702 -0.197948
C16   C     C_R   0.301923 0.581982 0.862932 0.282067
H1    H     H_    0.326728 0.612554 0.170451 0.201989
H2    H     H_    0.673273 0.387447 0.829549 0.201989
H3    H     H_    0.194746 0.651741 0.010350 0.186964
H4    H     H_    0.805254 0.348260 0.989650 0.186964
N1    N     N_2   0.054030 0.541640 0.471970 0.103003
N2    N     N_2   0.945970 0.458360 0.528030 0.103003
O1    O     O_R   0.609680 0.261530 0.506880 -0.587160
O2    O     O_R   0.390320 0.738470 0.493120 -0.587160
O3    O     O_R   0.323330 0.288220 0.488910 -0.570111
O4    O     O_R   0.676670 0.711780 0.511090 -0.570110
O5    O     O_R   0.619510 0.488830 0.661140 -0.613200
O6    O     O_R   0.380490 0.511170 0.338860 -0.613200
O7    O     O_R   0.333160 0.515520 0.643180 -0.565066
O8    O     O_R   0.666840 0.484480 0.356820 -0.565066
Zn1   Zn    Zn3+2 0.691200 0.482180 0.511990 1.136581
Zn2   Zn    Zn3+2 0.308800 0.517820 0.488010 1.136581

loop_
_geom_bond_atom_site_label_1
_geom_bond_atom_site_label_2
_ccdc_geom_bond_type
Br2   C16   S    
C5    C6    A    
C3    H2    S    
C1    O1    A    
C11   O8    A    
C10   O5    A    
Br6   C8    S    
Br1   C2    S    
Br5   C7    S    
O3    Zn2   S    
C15   H4    S    
C6    C14   A    
Br3   N1    S    
C2    C15   A    
C9    O4    A    
O6    Zn2   S    
C7    C8    D    
C3    C5    A    
C4    C6    A    
N2    Zn1   S    
C4    C12   A    
C10   C13   S    
O8    Zn1   S    
Br4   N2    S    
C5    C15   A    
C11   C12   S    
C10   O7    A    
C4    H1    S    
C2    C12   A    
C1    O3    A    
C14   H3    S    
N1    Zn2   S    
C1    C7    S    
C13   C16   A    
O2    Zn2   S    
C9    O2    A    
C11   O6    A    
O1    Zn1   S    
N1    N2    D    
O7    Zn2   S    
O4    Zn1   S    
C8    C9    S    
C3    C13   A    
O5    Zn1   S    
C14   C16   A    
