data_mof_unit_52293.cif
_audit_creation_date              2012-10-26T20:18:38-0400
_audit_creation_method            fapswitch 2.2
_symmetry_space_group_name_H-M    P1
_symmetry_Int_Tables_number       1
_space_group_crystal_system       triclinic
_cell_length_a                    10.974442
_cell_length_b                    11.2279
_cell_length_c                    10.000606
_cell_angle_alpha                 109.681588
_cell_angle_beta                  97.957586
_cell_angle_gamma                 95.444948
_cell_volume                      1135.80145139

loop_
_atom_site_label
_atom_site_type_symbol
_atom_type_description
_atom_site_fract_x
_atom_site_fract_y
_atom_site_fract_z
_atom_type_partial_charge
C1    C     C_R   0.490000 0.254953 0.442485 0.540661
C2    C     C_2   0.494131 0.492144 0.926357 0.420681
C3    C     C_R   0.259433 0.498725 0.499762 0.580355
C4    C     C_R   0.507442 0.743549 0.556056 0.550869
C5    C     C_R   0.736753 0.490162 0.496371 0.531044
C6    C     C_3   0.068359 0.401458 0.580401 0.162011
C7    C     C_3   0.918636 0.380494 0.559469 0.009068
C8    C     C_3   0.087512 0.628865 0.576127 0.122808
C9    C     C_3   0.043900 0.440829 0.330262 0.203539
C10   C     C_3   0.118044 0.490759 0.494848 0.045338
C11   C     C_3   0.887682 0.735580 0.564629 -0.370474
C12   C     C_3   0.872208 0.483314 0.492374 0.009879
C13   C     C_3   0.370599 0.834869 0.333768 -0.237743
C14   C     C_3   0.418941 0.126148 0.645070 -0.330108
C15   C     C_3   0.615326 0.621729 0.185728 -0.381145
C16   C     C_3   0.671123 0.642920 0.925116 -0.235285
C17   C     C_3   0.121398 0.273169 0.543686 -0.312240
C18   C     C_3   0.854854 0.241596 0.463648 -0.388553
C19   C     C_3   0.874204 0.391582 0.706459 -0.305828
C20   C     C_3   0.070526 0.305248 0.237855 -0.302255
C21   C     C_3   0.809596 0.350667 0.201407 -0.374068
C22   C     C_3   0.946531 0.621751 0.587676 -0.127954
C23   C     C_3   0.902036 0.451993 0.332790 -0.096236
C24   C     C_2   0.491154 0.116957 0.413301 0.208554
C25   C     C_2   0.462467 0.058735 0.507419 -0.051524
C26   C     C_2   0.511506 0.878637 0.576248 -0.081396
C27   C     C_2   0.457413 0.920373 0.472255 0.017125
C28   C     C_2   0.516621 0.512245 0.085379 0.164119
Cl1   Cl    Cl    0.129908 0.484281 0.772604 -0.561237
Cl2   Cl    Cl    0.147707 0.754785 0.519356 -0.629516
Cl3   Cl    Cl    0.540009 0.031158 0.251035 -0.635477
Cl4   Cl    Cl    0.364910 0.389271 0.818212 -0.489140
Cl5   Cl    Cl    0.403883 0.281405 0.044245 -0.420854
Cl6   Cl    Cl    0.092987 0.539525 0.229470 -0.524305
Cu1   Cu    Cu3+1 0.522160 0.521810 0.644910 0.998543
Cu2   Cu    Cu3+1 0.477840 0.478190 0.355090 1.066530
H1    H     H_    0.887315 0.540377 0.310701 0.194330
H2    H     H_    0.310349 0.758908 0.350660 0.245228
H3    H     H_    0.386501 0.060326 0.698917 0.187831
H4    H     H_    0.496496 0.196710 0.722665 0.196073
H5    H     H_    0.336521 0.167277 0.617384 0.179201
H6    H     H_    0.708270 0.605761 0.160364 0.078704
H7    H     H_    0.591029 0.714222 0.184028 0.127607
H8    H     H_    0.634356 0.636291 0.298188 0.198294
H9    H     H_    0.701493 0.678720 0.843245 0.179211
H10   H     H_    0.658593 0.732765 0.007645 0.131378
H11   H     H_    0.747426 0.593921 0.955942 0.099294
H12   H     H_    0.562010 0.947066 0.678913 0.099521
H13   H     H_    0.106588 0.228097 0.624638 0.198233
H14   H     H_    0.079920 0.201356 0.437180 0.080971
H15   H     H_    0.221896 0.288651 0.543467 0.160866
H16   H     H_    0.876475 0.172030 0.517384 0.138432
H17   H     H_    0.752153 0.236041 0.444370 0.163676
H18   H     H_    0.881478 0.203834 0.358681 0.136851
H19   H     H_    0.889872 0.490294 0.786117 0.178607
H20   H     H_    0.774031 0.353637 0.691735 0.145554
H21   H     H_    0.923067 0.331354 0.757958 0.174547
H22   H     H_    0.070406 0.295817 0.123568 0.208573
H23   H     H_    0.141386 0.667383 0.687673 0.213829
H24   H     H_    0.162260 0.283934 0.276834 0.151687
H25   H     H_    0.001676 0.224826 0.229124 0.079080
H26   H     H_    0.738252 0.396851 0.155723 0.163196
H27   H     H_    0.854770 0.305974 0.108346 0.140157
H28   H     H_    0.757478 0.275362 0.227970 0.184215
H29   H     H_    0.942588 0.637065 0.702314 0.153321
H30   H     H_    0.791835 0.735377 0.588075 0.116864
H31   H     H_    0.942015 0.827490 0.641583 0.183769
H32   H     H_    0.884887 0.735827 0.453554 0.180310
H33   H     H_    0.307684 0.890909 0.291266 0.172176
H34   H     H_    0.423879 0.789821 0.249437 0.173568
N1    N     N_2   0.444530 0.445420 0.137360 -0.013281
N2    N     N_2   0.555520 0.554510 0.862630 -0.249707
O1    O     O_R   0.511820 0.332340 0.577400 -0.524346
O2    O     O_R   0.474400 0.295500 0.332650 -0.413623
O3    O     O_R   0.336400 0.518400 0.622370 -0.411899
O4    O     O_R   0.298980 0.481560 0.377620 -0.441827
O5    O     O_R   0.525600 0.704500 0.667350 -0.490854
O6    O     O_R   0.488180 0.667660 0.422600 -0.545782
O7    O     O_R   0.701020 0.518440 0.622380 -0.550023
O8    O     O_R   0.663600 0.481600 0.377630 -0.549594

loop_
_geom_bond_atom_site_label_1
_geom_bond_atom_site_label_2
_ccdc_geom_bond_type
C19   H20   S    
Cu1   Cu2   S    
C16   N2    S    
C17   H15   S    
C18   H16   S    
C19   H21   S    
C12   C23   S    
Cu1   O3    S    
C26   C27   D    
C1    O2    A    
C15   H8    S    
C8    H23   S    
C13   H34   S    
C12   C22   S    
C2    Cl4   S    
C20   H25   S    
C21   H28   S    
Cu2   O4    S    
C18   H17   S    
C14   H3    S    
C8    C22   S    
C5    O7    A    
C3    O3    A    
C9    C10   S    
C11   H30   S    
C26   H12   S    
C2    N2    D    
C16   H11   S    
C11   H31   S    
C7    C12   S    
C24   C25   D    
C5    C12   S    
Cu2   O8    S    
C16   H10   S    
C18   H18   S    
C9    C23   S    
C23   H1    S    
C14   H4    S    
Cu1   O5    S    
C16   H9    S    
C22   H29   S    
C4    O6    A    
C9    C20   S    
C7    C18   S    
C21   H26   S    
C5    O8    A    
C3    O4    A    
C13   H2    S    
Cu2   O2    S    
C14   H5    S    
Cu1   N2    S    
C7    C19   S    
C21   C23   S    
C9    Cl6   S    
C28   N1    D    
C20   H24   S    
C17   H13   S    
C11   H32   S    
C19   H19   S    
C6    C17   S    
Cu1   O1    S    
C15   H6    S    
C17   H14   S    
C6    C10   S    
C4    C26   S    
Cu2   N1    S    
C6    C7    S    
C25   C27   S    
C11   C22   S    
C8    Cl2   S    
C24   Cl3   S    
C1    O1    A    
C4    O5    A    
C3    C10   S    
Cu2   O6    S    
C15   C28   S    
C13   H33   S    
Cu1   O7    S    
C14   C25   S    
C21   H27   S    
Cl5   N1    S    
C15   H7    S    
C6    Cl1   S    
C1    C24   S    
C8    C10   S    
C13   C27   S    
C2    C28   S    
C20   H22   S    
