data_mof_unit_42520.cif
_audit_creation_date              2012-12-10T20:35:50-0500
_audit_creation_method            fapswitch 2.2
_symmetry_space_group_name_H-M    P1
_symmetry_Int_Tables_number       1
_space_group_crystal_system       triclinic
_cell_length_a                    15.724008
_cell_length_b                    10.692602
_cell_length_c                    9.878152
_cell_angle_alpha                 89.638827
_cell_angle_beta                  89.198421
_cell_angle_gamma                 90.343117
_cell_volume                      1660.59303036

loop_
_atom_site_label
_atom_site_type_symbol
_atom_type_description
_atom_site_fract_x
_atom_site_fract_y
_atom_site_fract_z
_atom_type_partial_charge
C1    C     C_R   0.502329 0.259982 0.500382 0.899821
C2    C     C_3   0.952490 0.384763 0.563138 -0.046819
C3    C     C_3   0.917816 0.504424 0.493562 0.077366
C4    C     C_3   0.947729 0.618286 0.577529 -0.660483
C5    C     C_3   0.047251 0.626253 0.584445 1.009889
C6    C     C_1   0.826033 0.501908 0.494928 0.047405
C7    C     C_1   0.174672 0.509450 0.500097 0.013226
C8    C     C_1   0.249806 0.503916 0.502165 -0.213722
C9    C     C_R   0.517355 0.062716 0.623096 -0.010947
C10   C     C_R   0.515109 0.128588 0.500877 -0.100697
C11   C     C_R   0.528942 0.065722 0.378260 -0.208160
C12   C     C_R   0.338419 0.499724 0.500887 0.897441
C13   C     C_R   0.528971 0.936505 0.377612 -0.218239
C14   C     C_R   0.515357 0.871350 0.499578 -0.149107
C15   C     C_R   0.516939 0.934774 0.622139 0.055929
C16   C     C_3   0.459910 0.921883 0.744235 0.353550
C17   C     C_3   0.460391 0.065248 0.747107 0.100778
C18   C     C_R   0.425380 0.498744 0.072914 0.063088
C19   C     C_R   0.573438 0.518763 0.069279 0.543220
C20   C     C_R   0.573337 0.515124 0.925502 -0.218265
C21   C     C_R   0.425220 0.500792 0.930642 0.182479
C22   C     C_3   0.354788 0.406457 0.927385 -0.122205
C23   C     C_R   0.502424 0.739944 0.499614 0.861229
C24   C     C_3   0.356246 0.403031 0.081858 -0.527717
C25   C     C_R   0.661715 0.499904 0.499047 0.897912
C26   C     C_3   0.050620 0.389182 0.560566 -0.601851
C27   C     C_3   0.052335 0.525490 0.343660 0.477909
C28   C     C_3   0.952096 0.520769 0.345633 0.319809
C29   C     C_1   0.750661 0.500637 0.496762 -0.170022
C30   C     C_3   0.083265 0.514526 0.495727 0.065111
H1    H     H_    0.073434 0.380610 0.666450 0.226506
H2    H     H_    0.930976 0.386250 0.671292 0.165138
H3    H     H_    0.922075 0.705973 0.532781 0.195367
H4    H     H_    0.533844 0.115217 0.282395 0.176837
H5    H     H_    0.533552 0.888821 0.281476 0.160077
H6    H     H_    0.397935 0.876991 0.718368 0.031285
H7    H     H_    0.077971 0.306630 0.508435 0.188465
H8    H     H_    0.632699 0.524705 0.869853 0.175685
H9    H     H_    0.373082 0.317653 0.878277 0.196401
H10   H     H_    0.297857 0.439750 0.131828 0.204640
H11   H     H_    0.378859 0.312427 0.123404 0.204519
H12   H     H_    0.928262 0.614459 0.312003 0.106919
H13   H     H_    0.918843 0.611077 0.680793 0.190513
N1    N     N_R   0.499430 0.499140 0.142800 -0.146372
N2    N     N_R   0.499430 0.499180 0.857150 -0.138633
O1    O     O_R   0.500010 0.316790 0.614690 -0.613048
O2    O     O_R   0.500000 0.316760 0.385350 -0.625556
O3    O     O_R   0.377150 0.500020 0.614720 -0.587170
O4    O     O_R   0.377140 0.499990 0.385380 -0.622645
O5    O     O_R   0.500000 0.683240 0.614650 -0.585363
O6    O     O_R   0.499990 0.683210 0.385310 -0.636890
O7    O     O_R   0.622860 0.500010 0.614620 -0.634981
O8    O     O_R   0.622850 0.499980 0.385280 -0.540616
Zn1   Zn    Zn3+2 0.500010 0.500020 0.653130 0.967344
Zn2   Zn    Zn3+2 0.499990 0.499980 0.346870 0.968163
N3    N     N_3   0.918817 0.269180 0.503933 -0.404116
H14   H     H_    0.930952 0.195354 0.570774 0.173036
H15   H     H_    0.950917 0.248185 0.413829 0.240918
O9    O     O_3   0.503795 0.865198 0.852220 -0.575288
C31   C     C_3   0.445562 0.837137 0.958042 -0.307006
H16   H     H_    0.397054 0.767924 0.925303 0.150645
H17   H     H_    0.414036 0.923082 0.996334 0.164650
H18   H     H_    0.480738 0.794743 0.043173 0.172929
N4    N     N_3   0.376628 0.120000 0.722937 -0.463730
H19   H     H_    0.336713 0.095455 0.804536 0.169765
H20   H     H_    0.349992 0.080731 0.636354 0.151885
N5    N     N_3   0.501715 0.119482 0.865772 -0.432145
H21   H     H_    0.563979 0.086251 0.872769 0.216586
H22   H     H_    0.507039 0.216050 0.851319 0.206018
O10   O     O_3   0.649292 0.536995 0.134370 -0.588496
C32   C     C_3   0.669044 0.665837 0.130142 -0.307105
H23   H     H_    0.615874 0.723373 0.170771 0.167797
H24   H     H_    0.686442 0.696570 0.025533 0.157146
H25   H     H_    0.724704 0.683239 0.195278 0.175258
N6    N     N_3   0.276524 0.459377 0.873001 -0.404585
H26   H     H_    0.227025 0.395977 0.893290 0.195509
H27   H     H_    0.261363 0.542712 0.922677 0.185852
O11   O     O_3   0.075669 0.645877 0.289147 -0.597425
C33   C     C_3   0.150605 0.649307 0.208029 -0.311016
H28   H     H_    0.136708 0.618325 0.103546 0.160341
H29   H     H_    0.203043 0.593568 0.250906 0.174785
H30   H     H_    0.173195 0.747601 0.200816 0.179262
N7    N     N_3   0.088062 0.422395 0.260662 -0.471412
H31   H     H_    0.063995 0.335687 0.291651 0.187946
H32   H     H_    0.070006 0.433123 0.159885 0.202664
O12   O     O_3   0.919759 0.423601 0.262584 -0.614983
C34   C     C_3   0.891788 0.471258 0.137399 -0.320326
H33   H     H_    0.941721 0.529077 0.085768 0.148705
H34   H     H_    0.833012 0.526710 0.152152 0.202667
H35   H     H_    0.876463 0.391653 0.070376 0.201110
O13   O     O_3   0.073730 0.609466 0.721513 -0.652030
C35   C     C_3   0.046571 0.706079 0.809641 -0.365275
H36   H     H_    0.001669 0.666081 0.886206 0.172944
H37   H     H_    0.015018 0.786226 0.758856 0.194046
H38   H     H_    0.102580 0.742829 0.864075 0.179257
O14   O     O_3   0.072295 0.746081 0.530870 -0.604103
C36   C     C_3   0.157888 0.781025 0.554810 -0.270830
H39   H     H_    0.189019 0.730211 0.638799 0.178218
H40   H     H_    0.159575 0.881922 0.580075 0.159270
H41   H     H_    0.196260 0.768815 0.460881 0.176149

loop_
_geom_bond_atom_site_label_1
_geom_bond_atom_site_label_2
_ccdc_geom_bond_type
C34   H33   S    
C18   C21   A    
C19   C20   A    
C12   O3    A    
C3    C6    S    
C36   H41   S    
C12   O4    A    
C7    C8    T    
O3    Zn1   S    
O5    Zn1   S    
C31   H18   S    
C18   C24   S    
C2    H2    S    
C3    C28   S    
C25   O8    A    
C13   H5    S    
C17   N4    S    
C1    O1    A    
C15   C16   S    
N3    H14   S    
C31   H17   S    
C16   C17   S    
O10   C32   S    
C9    C10   A    
C20   N2    A    
C27   O11   S    
O9    C31   S    
C7    C30   S    
C21   C22   S    
C27   C30   S    
C24   H11   S    
C22   N6    S    
C36   H40   S    
O7    Zn1   S    
C36   H39   S    
C21   N2    A    
O8    Zn2   S    
C25   C29   S    
C17   N5    S    
N5    H21   S    
O13   C35   S    
C33   H29   S    
O11   C33   S    
C1    O2    A    
C23   O5    A    
O4    Zn2   S    
C35   H38   S    
C31   H16   S    
N5    H22   S    
C16   O9    S    
N4    H20   S    
C14   C23   S    
N6    H26   S    
C18   N1    A    
C32   H25   S    
C20   H8    S    
C23   O6    A    
N7    H31   S    
C8    C12   S    
O14   C36   S    
O1    Zn1   S    
C35   H37   S    
C2    C26   S    
N6    H27   S    
C5    O13   S    
C9    C17   S    
N7    H32   S    
N2    Zn1   S    
C26   C30   S    
C34   H34   S    
C28   O12   S    
C22   C24   S    
C3    C4    S    
C5    O14   S    
C19   N1    A    
O2    Zn2   S    
C5    C30   S    
C4    H3    S    
O12   C34   S    
C11   H4    S    
C1    C10   S    
C4    C5    S    
C33   H30   S    
C26   H7    S    
C4    H13   S    
N4    H19   S    
C27   N7    S    
C2    C3    S    
C9    C15   A    
C25   O7    A    
C32   H23   S    
C2    N3    S    
C16   H6    S    
C11   C13   A    
N1    Zn2   S    
C22   H9    S    
C28   H12   S    
C35   H36   S    
C24   H10   S    
N3    H15   S    
O6    Zn2   S    
C10   C11   A    
C33   H28   S    
C26   H1    S    
C6    C29   T    
C34   H35   S    
C32   H24   S    
C27   C28   S    
C14   C15   A    
C19   O10   S    
C13   C14   A    
