data_mof_unit_7448.cif
_audit_creation_date              2012-12-10T17:33:42-0500
_audit_creation_method            fapswitch 2.2
_symmetry_space_group_name_H-M    P1
_symmetry_Int_Tables_number       1
_space_group_crystal_system       triclinic
_cell_length_a                    11.677222
_cell_length_b                    12.377004
_cell_length_c                    13.186092
_cell_angle_alpha                 116.75644
_cell_angle_beta                  77.007435
_cell_angle_gamma                 101.619316
_cell_volume                      1647.12273126

loop_
_atom_site_label
_atom_site_type_symbol
_atom_type_description
_atom_site_fract_x
_atom_site_fract_y
_atom_site_fract_z
_atom_type_partial_charge
C1    C     C_R   0.505563 0.854452 0.286646 0.795738
C2    C     C_R   0.473358 0.226651 0.836553 -0.080800
C3    C     C_R   0.543040 0.807266 0.075416 0.080877
C4    C     C_R   0.611768 0.732142 0.973159 0.160593
C5    C     C_R   0.617900 0.610426 0.954420 0.099476
C6    C     C_R   0.531834 0.559850 0.022346 0.009732
C7    C     C_R   0.480086 0.641428 0.131170 0.031393
C8    C     C_R   0.494306 0.432861 0.987177 0.061799
C9    C     C_R   0.428245 0.388499 0.068329 0.151996
C10   C     C_R   0.381973 0.472299 0.176612 -0.248020
C11   C     C_R   0.399898 0.595191 0.203390 -0.164590
C12   C     C_R   0.715714 0.000480 0.500389 0.834568
C13   C     C_R   0.506340 0.351410 0.870987 -0.288276
C14   C     C_R   0.426035 0.181531 0.919132 -0.240542
C15   C     C_R   0.506130 0.767979 0.163608 -0.164963
C16   C     C_R   0.699680 0.358975 0.344505 -0.344981
C17   C     C_R   0.338595 0.760683 0.642873 0.026406
C18   C     C_R   0.304515 0.671605 0.685599 0.073037
C19   C     C_R   0.374654 0.573614 0.643205 0.102706
C20   C     C_R   0.464297 0.556321 0.544022 -0.079447
C21   C     C_R   0.495189 0.654085 0.509349 0.176946
C22   C     C_R   0.528921 0.450730 0.480291 -0.049112
C23   C     C_R   0.484946 0.145059 0.713675 0.807263
C24   C     C_R   0.630822 0.455769 0.398520 0.087201
C25   C     C_R   0.662397 0.555890 0.370002 0.088379
C26   C     C_R   0.591241 0.649599 0.423322 -0.148094
C27   C     C_R   0.494849 0.337410 0.489228 -0.018242
C28   C     C_R   0.669806 0.257689 0.367664 0.190723
C29   C     C_R   0.284156 0.000063 0.500485 0.813863
C30   C     C_1   0.837368 0.001446 0.501568 -0.184382
C31   C     C_1   0.939818 0.001233 0.501927 -0.011060
C32   C     C_1   0.059610 0.000556 0.501600 -0.014387
C33   C     C_1   0.162222 0.000068 0.501109 -0.193577
C34   C     C_R   0.400631 0.261260 0.035269 0.162734
Cu1   Cu    Cu3+1 0.526510 0.098270 0.475420 0.926631
Cu2   Cu    Cu3+1 0.473490 0.901730 0.524580 0.912558
H1    H     H_    0.403097 0.084296 0.892381 0.152453
H2    H     H_    0.779578 0.360827 0.284687 0.136774
H3    H     H_    0.410961 0.319223 0.535002 0.173016
H4    H     H_    0.291548 0.839266 0.676764 0.165550
H5    H     H_    0.613774 0.720828 0.397257 0.231600
H6    H     H_    0.323301 0.444145 0.238570 0.152395
H7    H     H_    0.537303 0.385798 0.806143 0.163005
H8    H     H_    0.346585 0.652819 0.280278 0.173975
N1    N     N_R   0.566700 0.246290 0.438210 -0.197842
N2    N     N_R   0.434010 0.754320 0.561170 -0.223786
O1    O     O_R   0.533340 0.972510 0.318140 -0.577739
O2    O     O_R   0.488570 0.806530 0.359650 -0.605807
O3    O     O_R   0.685190 0.083000 0.479260 -0.562268
O4    O     O_R   0.640410 0.917020 0.520770 -0.594626
O5    O     O_R   0.511430 0.193470 0.640350 -0.587330
O6    O     O_R   0.466660 0.027490 0.681860 -0.586964
O7    O     O_R   0.359590 0.082980 0.479230 -0.584680
O8    O     O_R   0.314810 0.917000 0.520740 -0.587190
C35   C     C_3   0.770767 0.560149 0.280234 -0.396650
C36   C     C_3   0.799151 0.673898 0.256744 -0.862487
H9    H     H_    0.727041 0.682372 0.219202 0.256600
H10   H     H_    0.813799 0.756519 0.336825 0.257701
H11   H     H_    0.882111 0.666850 0.194484 0.241204
H12   H     H_    0.850295 0.553013 0.308997 0.206355
H13   H     H_    0.758667 0.480438 0.197012 0.210447
C37   C     C_3   0.370481 0.510038 0.720437 -0.399203
C38   C     C_3   0.261349 0.416354 0.717441 -0.849000
H14   H     H_    0.189501 0.458243 0.788129 0.238028
H15   H     H_    0.227341 0.377643 0.634346 0.246996
H16   H     H_    0.284755 0.340906 0.729872 0.250750
H17   H     H_    0.452390 0.468031 0.701501 0.195086
H18   H     H_    0.373009 0.578832 0.810431 0.196446
C39   C     C_3   0.194177 0.679882 0.776035 -0.385783
C40   C     C_3   0.128932 0.792069 0.820291 -0.909712
H19   H     H_    0.188055 0.876728 0.861552 0.246783
H20   H     H_    0.095068 0.794615 0.749220 0.257321
H21   H     H_    0.052042 0.787758 0.886026 0.247462
H22   H     H_    0.130263 0.598399 0.738391 0.218843
H23   H     H_    0.217300 0.678943 0.852456 0.210856
C41   C     C_3   0.341265 0.207686 0.119940 -0.434579
C42   C     C_3   0.423994 0.225513 0.202323 -0.810461
H24   H     H_    0.507279 0.185285 0.153416 0.243528
H25   H     H_    0.446119 0.323538 0.256744 0.258030
H26   H     H_    0.380209 0.180270 0.259419 0.246176
H27   H     H_    0.257777 0.247521 0.168386 0.194152
H28   H     H_    0.315005 0.108707 0.073802 0.198040
C43   C     C_3   0.478136 0.903749 0.078210 -0.399983
C44   C     C_3   0.349742 0.852207 0.062220 -0.833328
H29   H     H_    0.346806 0.763872 0.985320 0.246165
H30   H     H_    0.300643 0.838101 0.138693 0.246315
H31   H     H_    0.304899 0.915360 0.050211 0.233946
H32   H     H_    0.478038 0.985639 0.160765 0.223217
H33   H     H_    0.517922 0.935110 0.010237 0.208641
C45   C     C_3   0.723632 0.544150 0.876219 -0.409333
C46   C     C_3   0.836710 0.600176 0.930134 -0.862099
H34   H     H_    0.851506 0.700364 0.960671 0.240352
H35   H     H_    0.831154 0.578745 0.004313 0.259880
H36   H     H_    0.914071 0.560488 0.866034 0.243820
H37   H     H_    0.713908 0.447884 0.861787 0.216337
H38   H     H_    0.735603 0.544209 0.790339 0.206393
C47   C     C_3   0.678981 0.782243 0.887198 -0.429724
C48   C     C_3   0.613717 0.741245 0.785639 -0.818112
H39   H     H_    0.609237 0.640964 0.736044 0.242746
H40   H     H_    0.522841 0.768504 0.815631 0.257863
H41   H     H_    0.661880 0.784127 0.727716 0.252472
H42   H     H_    0.694019 0.883188 0.928769 0.187315
H43   H     H_    0.769115 0.754081 0.854040 0.215984
C49   C     C_R   0.756881 0.168460 0.315221 0.166923
C50   C     C_R   0.861632 0.194962 0.362079 -0.144271
C51   C     C_R   0.951116 0.118358 0.306595 -0.144876
C52   C     C_R   0.937873 0.016240 0.202908 -0.121120
C53   C     C_R   0.836651 0.992697 0.153115 -0.156734
C54   C     C_R   0.747762 0.070039 0.207796 -0.127875
H44   H     H_    0.873503 0.274667 0.441764 0.122283
H45   H     H_    0.030802 0.138364 0.343850 0.137583
H46   H     H_    0.007040 0.956848 0.160001 0.128853
H47   H     H_    0.828393 0.916170 0.070934 0.122243
H48   H     H_    0.673767 0.055481 0.165128 0.110512

loop_
_geom_bond_atom_site_label_1
_geom_bond_atom_site_label_2
_ccdc_geom_bond_type
C16   C28   A    
C35   C36   S    
C38   H15   S    
C8    C13   A    
C10   H6    S    
C52   H46   S    
C19   C20   A    
C44   H31   S    
C21   C26   A    
Cu1   O1    S    
C47   C48   S    
C45   C46   S    
C3    C15   A    
C45   H37   S    
C42   H24   S    
C36   H9    S    
C7    C11   A    
C37   H17   S    
C50   H44   S    
C44   H30   S    
C30   C31   T    
Cu1   O7    S    
C51   C52   A    
C19   C37   S    
C29   C33   S    
C53   C54   A    
C18   C19   A    
C2    C13   A    
C44   H29   S    
Cu1   Cu2   S    
C27   H3    S    
C8    C9    A    
Cu1   O3    S    
C52   C53   A    
Cu2   N2    S    
C40   H19   S    
C1    C15   S    
C9    C10   A    
C47   H42   S    
Cu2   O6    S    
C27   N1    A    
C18   C39   S    
C7    C15   A    
C43   H32   S    
C38   H16   S    
C16   C24   A    
C4    C47   S    
C49   C50   A    
C12   O3    A    
C51   H45   S    
C42   H25   S    
C43   H33   S    
C28   N1    A    
C25   C35   S    
C39   H22   S    
C24   C25   A    
C41   H28   S    
C46   H34   S    
C1    O1    A    
C6    C8    A    
C25   C26   A    
C17   H4    S    
C53   H47   S    
C37   C38   S    
C46   H35   S    
C28   C49   S    
C23   O5    A    
C43   C44   S    
C40   H21   S    
C17   C18   A    
C11   H8    S    
C17   N2    A    
C47   H43   S    
C54   H48   S    
C20   C22   A    
C48   H40   S    
C22   C27   A    
C3    C43   S    
C9    C34   A    
C22   C24   A    
C39   H23   S    
C3    C4    A    
Cu1   N1    S    
C13   H7    S    
Cu2   O4    S    
C21   N2    A    
C42   H26   S    
C12   C30   S    
C31   C32   S    
C5    C45   S    
C4    C5    A    
C41   H27   S    
C14   C34   A    
C12   O4    A    
C1    O2    A    
C45   H38   S    
C6    C7    A    
C48   H41   S    
C50   C51   A    
C36   H11   S    
C37   H18   S    
C32   C33   T    
C14   H1    S    
Cu1   O5    S    
C41   C42   S    
C23   O6    A    
C5    C6    A    
C29   O7    A    
C35   H13   S    
C36   H10   S    
Cu2   O2    S    
C39   C40   S    
C2    C14   A    
Cu2   O8    S    
C10   C11   A    
C38   H14   S    
C20   C21   A    
C48   H39   S    
C29   O8    A    
C16   H2    S    
C2    C23   S    
C49   C54   A    
C40   H20   S    
C35   H12   S    
C26   H5    S    
C34   C41   S    
C46   H36   S    
