data_mof_unit_37439.cif
_audit_creation_date              2012-12-10T17:00:00-0500
_audit_creation_method            fapswitch 2.2
_symmetry_space_group_name_H-M    P1
_symmetry_Int_Tables_number       1
_space_group_crystal_system       triclinic
_cell_length_a                    23.630093
_cell_length_b                    10.927535
_cell_length_c                    9.882358
_cell_angle_alpha                 88.000593
_cell_angle_beta                  89.485912
_cell_angle_gamma                 93.411141
_cell_volume                      2545.58128401

loop_
_atom_site_label
_atom_site_type_symbol
_atom_type_description
_atom_site_fract_x
_atom_site_fract_y
_atom_site_fract_z
_atom_type_partial_charge
C1    C     C_R   0.501600 0.266438 0.502570 0.747220
C2    C     C_R   0.967400 0.258478 0.467786 -0.127317
C3    C     C_R   0.026253 0.260344 0.464369 0.143890
C4    C     C_R   0.058838 0.372928 0.479889 -0.052276
C5    C     C_R   0.030308 0.482290 0.499300 -0.064533
C6    C     C_R   0.061644 0.595327 0.517537 -0.084192
C7    C     C_R   0.032014 0.703837 0.533741 0.103110
C8    C     C_R   0.972457 0.698867 0.533147 0.178760
C9    C     C_R   0.118697 0.380857 0.477147 0.578204
C10   C     C_R   0.121497 0.595047 0.519033 0.592494
C11   C     C_R   0.240121 0.547752 0.389123 0.103695
C12   C     C_R   0.391230 0.499687 0.500516 0.877040
C13   C     C_R   0.299888 0.552542 0.390445 0.028735
C14   C     C_R   0.328377 0.499096 0.501157 -0.085723
C15   C     C_R   0.296464 0.444003 0.611478 0.034313
C16   C     C_R   0.236779 0.442851 0.610658 0.104973
C17   C     C_R   0.209016 0.493401 0.499162 0.343244
C18   C     C_R   0.762397 0.453717 0.381464 0.488012
C19   C     C_R   0.703765 0.469235 0.377254 -0.043238
C20   C     C_R   0.672410 0.485814 0.499215 -0.221337
C21   C     C_R   0.702651 0.488425 0.623284 0.023667
C22   C     C_R   0.761343 0.473771 0.625294 0.421864
C23   C     C_R   0.496884 0.733484 0.497273 0.745935
C24   C     C_R   0.791188 0.461153 0.504065 0.095052
C25   C     C_2   0.482053 0.928872 0.597430 -0.153042
C26   C     C_2   0.486073 0.863233 0.486321 0.058091
C27   C     C_2   0.473911 0.060710 0.586357 0.066742
C28   C     C_2   0.510654 0.135408 0.511923 0.412565
C29   C     C_2   0.473541 0.417269 0.929484 0.286971
C30   C     C_2   0.465285 0.432670 0.079656 0.392591
C31   C     C_R   0.609180 0.497529 0.499390 0.815550
C32   C     C_R   0.881064 0.577205 0.517508 0.666365
C33   C     C_R   0.879693 0.361490 0.488214 0.567338
C34   C     C_R   0.939053 0.365463 0.485288 -0.058165
C35   C     C_R   0.970209 0.478183 0.500663 -0.063752
C36   C     C_R   0.941085 0.586101 0.517449 -0.086665
Cu1   Cu    Cu3+1 0.500010 0.500020 0.638630 0.974015
Cu2   Cu    Cu3+1 0.499990 0.499980 0.361370 0.982337
H1    H     H_    0.943779 0.171409 0.456179 0.198180
H2    H     H_    0.483964 0.886183 0.698099 0.143465
N1    N     N_R   0.852106 0.466299 0.503859 -0.419871
N2    N     N_R   0.148058 0.489740 0.498002 -0.415855
N3    N     N_2   0.499380 0.498660 0.846910 0.011276
N4    N     N_2   0.499370 0.498630 0.153040 0.021982
O1    O     O_R   0.500010 0.321960 0.617040 -0.611073
O2    O     O_2   0.849636 0.253460 0.476920 -0.577460
O3    O     O_2   0.148032 0.281520 0.453727 -0.564049
O4    O     O_2   0.153607 0.698166 0.542030 -0.563966
O5    O     O_R   0.499990 0.321920 0.382900 -0.563925
O6    O     O_R   0.417890 0.499980 0.617100 -0.560448
O7    O     O_R   0.417870 0.499940 0.382950 -0.534657
O8    O     O_R   0.500010 0.678080 0.617100 -0.578493
O9    O     O_R   0.499990 0.678040 0.382960 -0.614891
O10   O     O_R   0.582130 0.500060 0.617050 -0.565941
O11   O     O_R   0.582110 0.500020 0.382900 -0.596719
O12   O     O_2   0.851449 0.678036 0.530455 -0.484767
N5    N     N_3   0.678791 0.475224 0.245949 -0.542191
H3    H     H_    0.663411 0.561839 0.229824 0.251068
H4    H     H_    0.646908 0.405654 0.237952 0.247637
N6    N     N_3   0.674509 0.510799 0.748219 -0.562776
H5    H     H_    0.694361 0.588399 0.790405 0.247881
H6    H     H_    0.678460 0.435691 0.815082 0.233013
O13   O     O_3   0.790501 0.486384 0.745308 -0.547328
C37   C     C_3   0.798649 0.368702 0.802276 -0.293996
H7    H     H_    0.828046 0.318378 0.739496 0.187364
H8    H     H_    0.757878 0.313405 0.817797 0.138030
H9    H     H_    0.818346 0.379499 0.902882 0.196846
N7    N     N_3   0.475409 0.917687 0.354841 -0.543949
H10   H     H_    0.510551 0.906690 0.292329 0.240275
H11   H     H_    0.440450 0.869592 0.313664 0.215986
N8    N     N_3   0.426184 0.107181 0.654350 -0.633420
H12   H     H_    0.427576 0.078629 0.756254 0.227351
H13   H     H_    0.389462 0.065424 0.613921 0.234203
O14   O     O_3   0.556755 0.085868 0.448334 -0.586298
C38   C     C_3   0.605149 0.168065 0.442997 -0.342292
H14   H     H_    0.613809 0.209446 0.542689 0.145548
H15   H     H_    0.600747 0.240056 0.362608 0.180991
H16   H     H_    0.642471 0.116582 0.416118 0.194798
N9    N     N_3   0.451877 0.302972 0.879286 -0.662346
H17   H     H_    0.486235 0.253841 0.849935 0.238991
H18   H     H_    0.425916 0.320149 0.796922 0.288594
O15   O     O_3   0.507618 0.613833 0.890736 -0.490613
C39   C     C_3   0.563571 0.658137 0.851864 -0.012467
H19   H     H_    0.573325 0.670704 0.744526 0.177683
H20   H     H_    0.595689 0.596733 0.891391 0.166699
H21   H     H_    0.571375 0.751721 0.890146 0.073244
N10   N     N_3   0.417673 0.367809 0.145616 -0.557194
H22   H     H_    0.381019 0.391478 0.094980 0.190475
H23   H     H_    0.421778 0.273791 0.136068 0.220437
N11   N     N_3   0.050774 0.145027 0.446452 -0.581519
H24   H     H_    0.075989 0.124803 0.529702 0.268878
H25   H     H_    0.074624 0.149299 0.356671 0.266153
O16   O     O_3   0.551329 0.532114 0.102485 -0.510338
C40   C     C_3   0.565285 0.653972 0.142943 -0.059602
H26   H     H_    0.577937 0.662833 0.247825 0.174594
H27   H     H_    0.530772 0.716345 0.119980 0.152856
H28   H     H_    0.604618 0.690121 0.090276 0.067942
N12   N     N_3   0.060629 0.822034 0.549736 -0.591333
H29   H     H_    0.086647 0.844622 0.465364 0.271191
H30   H     H_    0.083928 0.821252 0.639106 0.268324
N13   N     N_3   0.943996 0.810110 0.549257 -0.494627
H31   H     H_    0.957067 0.872698 0.471076 0.245231
H32   H     H_    0.955888 0.847242 0.641617 0.241915
N14   N     N_3   0.210102 0.597471 0.276352 -0.571122
H33   H     H_    0.221470 0.552986 0.189129 0.215325
H34   H     H_    0.221939 0.690867 0.263789 0.235151
N15   N     N_3   0.331848 0.614098 0.281228 -0.563645
H35   H     H_    0.321365 0.705662 0.274466 0.216186
H36   H     H_    0.321050 0.572212 0.190797 0.221558
N16   N     N_3   0.324744 0.386628 0.722485 -0.582169
H37   H     H_    0.314236 0.428711 0.811912 0.219798
H38   H     H_    0.311005 0.293939 0.730264 0.223981
N17   N     N_3   0.203431 0.390416 0.722556 -0.572813
H39   H     H_    0.215046 0.436393 0.809964 0.216498
H40   H     H_    0.211942 0.298056 0.735918 0.235415
O17   O     O_3   0.793728 0.445236 0.263275 -0.541559
C41   C     C_3   0.782241 0.329044 0.207570 -0.220069
H41   H     H_    0.748058 0.333970 0.131648 0.169650
H42   H     H_    0.770851 0.254339 0.284566 0.165119
H43   H     H_    0.820932 0.303080 0.153916 0.175464

loop_
_geom_bond_atom_site_label_1
_geom_bond_atom_site_label_2
_ccdc_geom_bond_type
N10   H22   S    
N13   H31   S    
C33   O2    S    
C7    N12   S    
C10   N2    A    
C35   C36   A    
C13   N15   S    
C28   O14   S    
C16   N17   S    
N14   H34   S    
N5    H3    S    
C7    C8    A    
Cu2   O5    S    
C19   N5    S    
C9    N2    A    
Cu1   Cu2   S    
C3    N11   S    
C18   C24   A    
C32   C36   A    
C18   C19   A    
C41   H42   S    
C25   H2    S    
C5    C6    A    
N5    H4    S    
C15   C16   A    
O17   C41   S    
N6    H6    S    
C34   C35   A    
C8    C36   A    
C23   C26   S    
C17   N2    S    
N4    O16   S    
C22   O13   S    
N16   H37   S    
C2    H1    S    
Cu2   O11   S    
C19   C20   A    
N7    H10   S    
C1    C28   S    
N15   H35   S    
C11   N14   S    
C8    N13   S    
C2    C34   A    
N13   H32   S    
C21   C22   A    
C29   N3    D    
C24   N1    S    
N15   H36   S    
C15   N16   S    
C30   N4    D    
N14   H33   S    
C23   O9    A    
O14   C38   S    
C37   H9    S    
C21   N6    S    
C41   H43   S    
C18   O17   S    
N9    H18   S    
Cu1   O8    S    
C16   C17   A    
Cu2   O7    S    
C40   H28   S    
C25   C26   D    
O15   C39   S    
N9    H17   S    
N6    H5    S    
C37   H8    S    
Cu1   N3    S    
C23   O8    A    
C38   H14   S    
Cu2   N4    S    
C29   C30   S    
N11   H25   S    
C39   H19   S    
C29   N9    S    
C32   N1    A    
C33   C34   A    
O16   C40   S    
C40   H27   S    
C38   H15   S    
Cu1   O10   S    
C39   H20   S    
C12   C14   S    
C9    O3    S    
N12   H30   S    
N10   H23   S    
C10   O4    S    
C22   C24   A    
Cu1   O1    S    
C3    C4    A    
C12   O7    A    
C27   N8    S    
N8    H13   S    
N17   H39   S    
C11   C17   A    
C4    C5    A    
C6    C10   A    
C12   O6    A    
C6    C7    A    
C25   C27   S    
C26   N7    S    
C37   H7    S    
C2    C3    A    
C4    C9    A    
C33   N1    A    
N8    H12   S    
C41   H41   S    
Cu1   O6    S    
C11   C13   A    
C1    O1    A    
N11   H24   S    
Cu2   O9    S    
C5    C35   A    
C31   O10   A    
C40   H26   S    
C38   H16   S    
N16   H38   S    
O13   C37   S    
C39   H21   S    
C20   C21   A    
N7    H11   S    
N12   H29   S    
C27   C28   D    
N3    O15   S    
C14   C15   A    
C31   O11   A    
C30   N10   S    
C13   C14   A    
C1    O5    A    
C32   O12   S    
N17   H40   S    
C20   C31   S    
