data_mof_unit_32389.cif
_audit_creation_date              2012-12-10T18:23:03-0500
_audit_creation_method            fapswitch 2.2
_symmetry_space_group_name_H-M    P1
_symmetry_Int_Tables_number       1
_space_group_crystal_system       triclinic
_cell_length_a                    15.084619
_cell_length_b                    14.140204
_cell_length_c                    10.794532
_cell_angle_alpha                 90.481765
_cell_angle_beta                  85.207326
_cell_angle_gamma                 90.916655
_cell_volume                      2294.06737026

loop_
_atom_site_label
_atom_site_type_symbol
_atom_type_description
_atom_site_fract_x
_atom_site_fract_y
_atom_site_fract_z
_atom_type_partial_charge
C1    C     C_R   0.326660 0.498606 0.503447 0.925551
C2    C     C_R   0.673347 0.500657 0.495518 0.935108
C3    C     C_R   0.951626 0.474288 0.509798 0.059705
C4    C     C_R   0.044967 0.470475 0.510206 0.060725
C5    C     C_R   0.911545 0.448696 0.400890 -0.004649
C6    C     C_R   0.084435 0.496524 0.619375 -0.004224
C7    C     C_R   0.939567 0.519204 0.729635 -0.093951
C8    C     C_R   0.055656 0.402248 0.300586 -0.074436
C9    C     C_R   0.030295 0.501514 0.731733 -0.101002
C10   C     C_R   0.962424 0.403973 0.301380 -0.093867
C11   C     C_R   0.568670 0.798645 0.437501 0.035165
C12   C     C_R   0.430310 0.200980 0.559041 0.043928
C13   C     C_R   0.433418 0.798383 0.563903 0.072999
C14   C     C_R   0.567302 0.202856 0.435764 0.064689
C15   C     C_R   0.425429 0.898057 0.550167 -0.072109
C16   C     C_R   0.574511 0.102607 0.446067 -0.072152
C17   C     C_R   0.575296 0.899998 0.445455 -0.079287
C18   C     C_R   0.423646 0.100005 0.548467 -0.070257
C19   C     C_R   0.499919 0.949733 0.496983 0.083982
C20   C     C_R   0.499440 0.050627 0.497427 0.084341
C21   C     C_R   0.345737 0.946855 0.587502 -0.110609
C22   C     C_R   0.653868 0.053394 0.408338 -0.114556
C23   C     C_R   0.654124 0.952936 0.406843 -0.091408
C24   C     C_R   0.344482 0.047165 0.585278 -0.101628
C25   C     C_R   0.502433 0.499731 0.257089 0.933454
C26   C     C_R   0.494766 0.500143 0.742903 0.942159
C27   C     C_3   0.424468 0.540256 0.056223 -0.084245
C28   C     C_3   0.568430 0.458206 0.944078 -0.090306
C29   C     C_3   0.492513 0.588405 0.961811 -0.054527
C30   C     C_3   0.500196 0.410388 0.038831 -0.057560
C31   C     C_3   0.423524 0.451541 0.972327 -0.069839
C32   C     C_3   0.569913 0.547155 0.027584 -0.049322
C33   C     C_3   0.491768 0.499833 0.877994 -0.122412
C34   C     C_3   0.501493 0.499386 0.122430 -0.121800
C35   C     C_R   0.822447 0.472994 0.391051 -0.052701
C36   C     C_R   0.176845 0.513660 0.615098 -0.076928
C37   C     C_R   0.769643 0.501075 0.497101 -0.167089
C38   C     C_R   0.229970 0.490821 0.506162 -0.161885
C39   C     C_R   0.807943 0.526337 0.606193 -0.072911
C40   C     C_R   0.192634 0.443594 0.407135 -0.071015
C41   C     C_R   0.899266 0.509232 0.616117 0.013524
C42   C     C_R   0.098579 0.439240 0.403536 0.007062
N1    N     N_R   0.500000 0.750030 0.500000 -0.153250
N2    N     N_R   0.500000 0.249970 0.500000 -0.154683
O1    O     O_R   0.367850 0.580280 0.500030 -0.611493
O2    O     O_R   0.632150 0.419720 0.499970 -0.604002
O3    O     O_R   0.632150 0.580280 0.499970 -0.625308
O4    O     O_R   0.367850 0.419720 0.500030 -0.622853
O5    O     O_R   0.499970 0.580260 0.313950 -0.629586
O6    O     O_R   0.500030 0.419740 0.686050 -0.632241
O7    O     O_R   0.500030 0.580260 0.686050 -0.620513
O8    O     O_R   0.499970 0.419740 0.313950 -0.623379
Zn1   Zn    Zn3+2 0.500000 0.607200 0.500000 1.005744
Zn2   Zn    Zn3+2 0.500000 0.392800 0.500000 1.006668
C43   C     C_1   0.344028 0.395069 0.951670 0.328192
N3    N     N_1   0.281350 0.349403 0.938326 -0.125139
C44   C     C_1   0.646832 0.608940 0.043457 0.254662
N4    N     N_1   0.706220 0.660650 0.051060 -0.126369
C45   C     C_1   0.345066 0.585391 0.117165 0.231763
N5    N     N_1   0.282540 0.620825 0.165215 -0.120819
C46   C     C_1   0.641432 0.405421 0.878564 0.219458
N6    N     N_1   0.696946 0.362039 0.825311 -0.100699
C47   C     C_1   0.490279 0.688483 0.926286 0.251536
N7    N     N_1   0.489744 0.767604 0.899940 -0.165997
C48   C     C_1   0.503292 0.311135 0.077732 0.244783
N8    N     N_1   0.505200 0.232871 0.107675 -0.171715
C49   C     C_2   0.798183 0.506962 0.269667 0.885645
O9    O     O_2   0.725320 0.489274 0.232884 -0.663396
O10   O     O_R   0.860535 0.563396 0.200069 -0.741409
H1    H     H_    0.837799 0.589208 0.122586 0.383012
C50   C     C_2   0.216659 0.555494 0.724846 0.903474
O11   O     O_2   0.284920 0.523453 0.759838 -0.655383
O12   O     O_R   0.173134 0.628972 0.791643 -0.746425
H2    H     H_    0.201083 0.645268 0.871493 0.379190
C51   C     C_1   0.754265 0.581154 0.697660 0.222307
N9    N     N_1   0.710659 0.625966 0.768316 -0.160822
C52   C     C_1   0.253430 0.395846 0.316203 0.248900
N10   N     N_1   0.302764 0.357354 0.245720 -0.170325
C53   C     C_2   0.887457 0.534213 0.849524 0.961320
O13   O     O_2   0.887636 0.612186 0.899132 -0.559578
O14   O     O_R   0.840595 0.458297 0.906293 -0.760750
H3    H     H_    0.803905 0.476799 0.985156 0.351853
C54   C     C_2   0.105975 0.363403 0.189227 0.941263
O15   O     O_2   0.147064 0.417272 0.116747 -0.590670
O16   O     O_R   0.106581 0.265723 0.168231 -0.757297
H4    H     H_    0.145610 0.247241 0.091170 0.360709
C55   C     C_2   0.062346 0.459748 0.844656 1.006441
O17   O     O_2   0.054121 0.501756 0.944248 -0.499955
O18   O     O_R   0.099279 0.369751 0.835455 -0.761993
H5    H     H_    0.108227 0.341604 0.918987 0.382864
C56   C     C_2   0.917812 0.353947 0.200947 0.967608
O19   O     O_2   0.939898 0.370626 0.091724 -0.548632
O20   O     O_R   0.851150 0.286958 0.232159 -0.777974
H6    H     H_    0.827474 0.256367 0.156019 0.384394
C57   C     C_1   0.633159 0.744437 0.363235 0.294612
N11   N     N_1   0.686104 0.701386 0.304517 -0.145101
C58   C     C_1   0.364972 0.254387 0.633082 0.278732
N12   N     N_1   0.311287 0.296785 0.691371 -0.124507
C59   C     C_1   0.382143 0.750095 0.662052 0.288394
N13   N     N_1   0.341771 0.713646 0.744086 -0.150448
C60   C     C_1   0.622391 0.255588 0.344821 0.308357
N14   N     N_1   0.665480 0.297865 0.270322 -0.120163
C61   C     C_2   0.260379 0.892952 0.610502 0.930030
O21   O     O_2   0.215049 0.901999 0.709058 -0.525416
O22   O     O_R   0.233679 0.829700 0.520016 -0.772880
H7    H     H_    0.175727 0.795582 0.546992 0.370802
C62   C     C_2   0.740197 0.106073 0.390101 0.938890
O23   O     O_2   0.789292 0.094322 0.295486 -0.537326
O24   O     O_R   0.764835 0.169135 0.482162 -0.768086
H8    H     H_    0.824897 0.200540 0.460099 0.378666
C63   C     C_2   0.740849 0.905359 0.382440 0.927641
O25   O     O_2   0.776340 0.870247 0.468499 -0.581772
O26   O     O_R   0.781064 0.900117 0.261182 -0.719865
H9    H     H_    0.839575 0.865445 0.256357 0.378118
C64   C     C_2   0.257107 0.094716 0.601886 0.925453
O27   O     O_2   0.213888 0.093711 0.702883 -0.534720
O28   O     O_R   0.225802 0.142670 0.501902 -0.770556
H10   H     H_    0.166529 0.173851 0.524593 0.366296

loop_
_geom_bond_atom_site_label_1
_geom_bond_atom_site_label_2
_ccdc_geom_bond_type
C43   N3    T    
C29   C47   S    
O20   H6    S    
C27   C29   S    
C8    C54   S    
O12   H2    S    
C19   C20   A    
C55   O17   D    
C6    C9    A    
O14   H3    S    
C39   C41   A    
C52   N10   T    
C2    O2    A    
C15   C19   A    
C17   C23   A    
C18   C24   A    
C7    C53   S    
C35   C37   A    
C8    C42   A    
C29   C32   S    
C26   O6    A    
C30   C31   S    
C64   O27   D    
C29   C33   S    
C61   O21   D    
N1    Zn1   S    
C11   C17   A    
C63   O26   S    
C63   O25   D    
C64   O28   S    
C62   O23   D    
C31   C33   S    
C11   N1    A    
C39   C51   S    
C36   C50   S    
C25   C34   S    
O3    Zn1   S    
C28   C46   S    
C40   C42   A    
O1    Zn1   S    
C45   N5    T    
C62   O24   S    
C46   N6    T    
C32   C44   S    
O8    Zn2   S    
C58   N12   T    
C27   C34   S    
C30   C34   S    
C27   C31   S    
C49   O9    D    
C60   N14   T    
C28   C32   S    
C4    C6    A    
C56   O19   D    
C53   O14   S    
C14   C60   S    
O16   H4    S    
C47   N7    T    
O7    Zn1   S    
C32   C34   S    
C13   C59   S    
O4    Zn2   S    
C51   N9    T    
C56   O20   S    
C26   C33   S    
C54   O15   D    
C35   C49   S    
C16   C20   A    
O2    Zn2   S    
C61   O22   S    
O6    Zn2   S    
C12   C58   S    
C1    C38   S    
C54   O16   S    
C10   C56   S    
C13   C15   A    
C14   C16   A    
C12   C18   A    
C3    C4    A    
C13   N1    A    
C14   N2    A    
O26   H9    S    
C11   C57   S    
C7    C9    A    
C3    C41   A    
C16   C22   A    
C40   C52   S    
C3    C5    A    
C28   C33   S    
C1    O4    A    
C2    O3    A    
C23   C63   S    
O22   H7    S    
C26   O7    A    
C59   N13   T    
C31   C43   S    
C28   C30   S    
C25   O8    A    
C5    C10   A    
C37   C39   A    
C27   C45   S    
O24   H8    S    
C9    C55   S    
C38   C40   A    
C2    C37   S    
C1    O1    A    
C44   N4    T    
C15   C21   A    
C4    C42   A    
O5    Zn1   S    
C5    C35   A    
C36   C38   A    
C17   C19   A    
C6    C36   A    
C18   C20   A    
C7    C41   A    
O10   H1    S    
C25   O5    A    
C30   C48   S    
C53   O13   D    
C21   C61   S    
N2    Zn2   S    
C50   O11   D    
C24   C64   S    
C8    C10   A    
C48   N8    T    
C21   C24   A    
C50   O12   S    
C57   N11   T    
C55   O18   S    
C22   C23   A    
C12   N2    A    
C49   O10   S    
O18   H5    S    
O28   H10   S    
C22   C62   S    
