data_mof_unit_68209.cif
_audit_creation_date              2012-12-11T16:32:32-0500
_audit_creation_method            fapswitch 2.2
_symmetry_space_group_name_H-M    P1
_symmetry_Int_Tables_number       1
_space_group_crystal_system       triclinic
_cell_length_a                    6.974171
_cell_length_b                    14.699953
_cell_length_c                    15.790526
_cell_angle_alpha                 90.08183
_cell_angle_beta                  90.045744
_cell_angle_gamma                 90.503854
_cell_volume                      1618.77972526

loop_
_atom_site_label
_atom_site_type_symbol
_atom_type_description
_atom_site_fract_x
_atom_site_fract_y
_atom_site_fract_z
_atom_type_partial_charge
O1    O     O_R   0.361630 0.167340 0.164570 -0.545187
O2    O     O_R   0.638370 0.832660 0.835430 -0.539301
O3    O     O_R   0.690860 0.157560 0.338690 -0.540157
O4    O     O_R   0.309140 0.842440 0.661310 -0.538229
O5    O     O_R   0.861260 0.336420 0.339380 -0.543680
O6    O     O_R   0.138740 0.663580 0.660620 -0.530871
C1    C     C_R   0.521453 0.135516 0.368316 0.699415
C2    C     C_R   0.478251 0.866165 0.632984 0.697096
O7    O     O_R   0.691330 0.156310 0.165190 -0.535817
O8    O     O_R   0.308670 0.843690 0.834810 -0.550934
O9    O     O_R   0.861730 0.335160 0.164640 -0.536921
O10   O     O_R   0.138270 0.664840 0.835360 -0.517066
C3    C     C_R   0.521831 0.137812 0.133446 0.685782
C4    C     C_R   0.477124 0.863077 0.865729 0.698994
O11   O     O_R   0.361150 0.168600 0.339320 -0.536358
O12   O     O_R   0.638850 0.831400 0.660680 -0.534817
O13   O     O_3   0.527950 0.310560 0.252000 -0.369000
O14   O     O_3   0.472050 0.689440 0.748000 -0.374682
V1    V     V_3+5 0.802770 0.240990 0.251980 1.399717
V2    V     V_3+5 0.197230 0.759010 0.748020 1.394208
O15   O     O_R   0.191450 0.346190 0.165260 -0.524815
O16   O     O_R   0.808550 0.653810 0.834740 -0.559154
C5    C     C_R   0.023878 0.369448 0.137579 0.819813
C6    C     C_R   0.977193 0.634780 0.865866 0.802456
O17   O     O_R   0.190980 0.347440 0.338770 -0.529699
O18   O     O_R   0.809020 0.652560 0.661230 -0.545053
C7    C     C_R   0.022985 0.368789 0.367623 0.698697
C8    C     C_R   0.977398 0.631309 0.631390 0.725349
V3    V     V_3+5 0.302780 0.262760 0.251980 1.419362
V4    V     V_3+5 0.697220 0.737240 0.748020 1.369063
O19   O     O_3   0.027730 0.193200 0.251960 -0.372303
O20   O     O_3   0.972270 0.806800 0.748040 -0.380272
C9    C     C_3   0.829625 0.458863 0.486867 -0.198043
C10   C     C_3   0.175501 0.538943 0.511502 -0.171426
C11   C     C_3   0.944499 0.457287 0.571502 -0.265931
C12   C     C_3   0.061071 0.539962 0.426953 -0.194450
C13   C     C_3   0.988549 0.560908 0.561283 -0.124994
C14   C     C_3   0.014650 0.437866 0.437167 -0.098647
C15   C     C_3   0.877766 0.560617 0.477163 0.374074
C16   C     C_3   0.127692 0.436747 0.520203 0.372183
C17   C     C_R   0.971169 0.687668 0.051215 0.186087
C18   C     C_R   0.947452 0.314643 0.956634 0.170859
C19   C     C_R   0.018600 0.712974 0.135559 0.328304
C20   C     C_R   0.939905 0.290178 0.869631 0.305866
C21   C     C_R   0.116253 0.650579 0.186000 -0.293911
C22   C     C_R   0.993166 0.354608 0.809275 -0.273198
C23   C     C_R   0.144279 0.561398 0.159270 0.192391
C24   C     C_R   0.042790 0.442917 0.832998 0.192604
C25   C     C_R   0.055653 0.529997 0.083543 -0.012467
C26   C     C_R   0.006258 0.473316 0.916370 -0.000897
C27   C     C_R   0.000605 0.595933 0.022773 -0.094072
C28   C     C_R   0.986974 0.407075 0.981176 -0.061515
C29   C     C_R   0.020450 0.435831 0.066575 -0.133002
C30   C     C_R   0.989766 0.567587 0.936195 -0.130414
C31   C     C_3   0.320606 0.029337 0.479849 -0.222863
C32   C     C_3   0.676898 0.974441 0.522508 -0.172494
C33   C     C_3   0.397597 0.931829 0.474679 0.371399
C34   C     C_3   0.597829 0.072176 0.527836 0.370253
C35   C     C_3   0.487649 0.938813 0.563393 -0.093268
C36   C     C_3   0.509177 0.064487 0.438946 -0.105586
C37   C     C_3   0.411206 0.037599 0.569827 -0.234721
C38   C     C_3   0.584459 0.965610 0.432246 -0.200742
C39   C     C_R   0.452899 0.185560 0.954928 -0.218846
C40   C     C_R   0.472131 0.815031 0.044998 -0.135843
C41   C     C_R   0.430496 0.210532 0.870637 -0.057926
C42   C     C_R   0.480807 0.789603 0.129828 -0.073760
C43   C     C_R   0.440898 0.145623 0.807054 -0.110557
C44   C     C_R   0.500514 0.854867 0.192815 -0.124019
C45   C     C_R   0.462606 0.054340 0.827733 -0.148541
C46   C     C_R   0.512938 0.946448 0.171416 -0.131644
C47   C     C_R   0.477080 0.026390 0.913270 0.074453
C48   C     C_R   0.505521 0.974547 0.085748 0.073577
C49   C     C_R   0.479829 0.093728 0.978376 0.034478
C50   C     C_R   0.488807 0.907225 0.020953 0.041275
C51   C     C_R   0.485236 0.933021 0.934286 -0.190283
C52   C     C_R   0.506624 0.068081 0.064578 -0.186569
H1    H     H_    0.450620 0.239599 0.001485 0.093511
H2    H     H_    0.448885 0.761868 0.998563 0.087911
H3    H     H_    0.466213 0.006105 0.775995 0.100435
H4    H     H_    0.525956 0.994765 0.222861 0.100738
H5    H     H_    0.892975 0.422054 0.629200 0.121071
H6    H     H_    0.105126 0.575312 0.368203 0.103382
H7    H     H_    0.340234 0.068552 0.625531 0.114622
H8    H     H_    0.653130 0.934382 0.376052 0.109700
H9    H     H_    0.505902 0.834354 0.258572 0.122670
H10   H     H_    0.430940 0.166231 0.741473 0.115460
H11   H     H_    0.409931 0.280909 0.854649 0.111913
H12   H     H_    0.471849 0.718926 0.147015 0.114928
H13   H     H_    0.686579 0.427138 0.476170 0.158093
H14   H     H_    0.318965 0.570188 0.521791 0.119958
N1    N     N_2   0.739529 0.625777 0.447530 -0.528527
H15   H     H_    0.639485 0.641311 0.493072 0.247461
C53   C     C_3   0.655040 0.601682 0.366333 -0.591876
H16   H     H_    0.577341 0.659921 0.338995 0.188782
H17   H     H_    0.553083 0.543820 0.374169 0.198308
H18   H     H_    0.767178 0.582773 0.319724 0.206769
N2    N     N_2   0.269892 0.367655 0.536624 -0.526127
H19   H     H_    0.223481 0.301959 0.525920 0.240297
C54   C     C_3   0.383460 0.378668 0.612377 -0.606988
H20   H     H_    0.516784 0.339000 0.606720 0.201861
H21   H     H_    0.302586 0.352725 0.667784 0.196805
H22   H     H_    0.426279 0.450859 0.621402 0.210536
H23   H     H_    0.002205 0.335997 0.743284 0.135128
H24   H     H_    0.180090 0.671832 0.245241 0.133015
N3    N     N_2   0.872134 0.751475 0.000133 -0.557489
H25   H     H_    0.757613 0.728934 0.964942 0.260436
C55   C     C_3   0.970018 0.833755 0.973401 -0.487609
H26   H     H_    0.112560 0.840602 0.003190 0.203217
H27   H     H_    0.884092 0.893891 0.991097 0.187524
H28   H     H_    0.986719 0.833445 0.904039 0.228773
N4    N     N_2   0.900526 0.248252 0.018490 -0.535272
H29   H     H_    0.762521 0.226003 0.016563 0.255321
C56   C     C_3   0.036519 0.176574 0.030940 -0.478141
H30   H     H_    0.984823 0.128225 0.079742 0.208249
H31   H     H_    0.168208 0.208359 0.053817 0.215929
H32   H     H_    0.064247 0.138041 0.971957 0.194436
N5    N     N_2   0.980192 0.803115 0.166251 -0.502381
H33   H     H_    0.876323 0.838591 0.134451 0.296429
C57   C     C_3   0.978094 0.820271 0.256652 -0.551973
H34   H     H_    0.927294 0.890479 0.268940 0.192430
H35   H     H_    0.125022 0.815734 0.282951 0.232220
H36   H     H_    0.879985 0.771592 0.289033 0.204440
N6    N     N_2   0.875707 0.201634 0.843391 -0.511687
H37   H     H_    0.809973 0.159936 0.886851 0.279897
C58   C     C_3   0.967487 0.153680 0.774409 -0.535053
H38   H     H_    0.029329 0.089308 0.798459 0.193155
H39   H     H_    0.084438 0.193414 0.744447 0.185799
H40   H     H_    0.858190 0.136411 0.725867 0.235228
N7    N     N_2   0.289577 0.510381 0.200532 -0.494296
H41   H     H_    0.314895 0.528757 0.262523 0.236632
C59   C     C_3   0.465750 0.502471 0.152322 -0.451177
H42   H     H_    0.574856 0.466247 0.190165 0.198175
H43   H     H_    0.525543 0.570414 0.136787 0.152620
H44   H     H_    0.440193 0.464088 0.092670 0.192869
N8    N     N_2   0.162842 0.494271 0.778072 -0.507451
H45   H     H_    0.141584 0.481146 0.714966 0.248595
C60   C     C_3   0.363784 0.491534 0.801483 -0.450091
H46   H     H_    0.451537 0.526966 0.753297 0.201057
H47   H     H_    0.414656 0.420571 0.803809 0.150561
H48   H     H_    0.387423 0.524477 0.864039 0.197255
N9    N     N_2   0.276426 0.858641 0.444076 -0.534532
H49   H     H_    0.139603 0.859364 0.468753 0.256431
C61   C     C_3   0.362205 0.770092 0.445599 -0.605716
H50   H     H_    0.281669 0.723830 0.402620 0.202118
H51   H     H_    0.357173 0.741694 0.510617 0.195654
H52   H     H_    0.513200 0.775278 0.424283 0.219229
N10   N     N_2   0.695457 0.152201 0.559987 -0.530621
H53   H     H_    0.622578 0.210956 0.546532 0.249302
C62   C     C_3   0.898072 0.159113 0.543085 -0.604630
H54   H     H_    0.955339 0.221802 0.573394 0.194757
H55   H     H_    0.924646 0.162659 0.473865 0.207698
H56   H     H_    0.973617 0.100359 0.571248 0.202699
H57   H     H_    0.173857 0.048025 0.459964 0.127861
H58   H     H_    0.824253 0.953077 0.539514 0.118475

loop_
_geom_bond_atom_site_label_1
_geom_bond_atom_site_label_2
_ccdc_geom_bond_type
C61   H52   S    
C42   C44   A    
C39   C41   A    
C53   H16   S    
C10   C13   S    
C55   H27   S    
C24   N8    S    
N10   H53   S    
C48   C52   A    
C59   H44   S    
V1    O19   S    
N2    H19   S    
C11   H5    S    
N6    H37   S    
C23   C25   A    
N5    H33   S    
N3    C55   S    
O9    V1    S    
C9    C15   S    
C17   N3    S    
C23   N7    S    
C10   C16   S    
C14   C16   S    
C56   H30   S    
O3    C1    A    
C62   H55   S    
C2    C35   S    
C39   H1    S    
C33   C35   S    
C7    C14   S    
O12   V4    S    
C61   H50   S    
O13   V3    S    
C36   C38   S    
C45   C47   A    
O7    C3    A    
O13   V1    S    
O5    C7    A    
O7    V1    S    
O6    C8    A    
N4    H29   S    
C12   H6    S    
C25   C27   A    
C58   H40   S    
C26   C28   A    
C55   H26   S    
O3    V1    S    
O14   V4    S    
V4    O20   S    
C10   C12   S    
O4    C2    A    
C56   H32   S    
C34   C37   S    
C21   C23   A    
C60   H46   S    
C2    O12   A    
N8    C60   S    
C31   C36   S    
C44   H9    S    
C17   C19   A    
C18   C20   A    
C15   N1    S    
N2    C54   S    
C20   C22   A    
O11   V3    S    
C34   C36   S    
C57   H35   S    
O15   C5    A    
O17   V3    S    
C13   C15   S    
C60   H48   S    
C22   C24   A    
C35   C37   S    
C50   C51   A    
C46   H4    S    
N8    H45   S    
C32   H58   S    
O8    C4    A    
C62   H56   S    
O8    V2    S    
N1    H15   S    
C47   C49   A    
C34   N10   S    
C1    O11   A    
C39   C49   A    
C41   C43   A    
O15   V3    S    
C43   C45   A    
N9    C61   S    
C40   C42   A    
C18   N4    S    
C10   H14   S    
C21   H24   S    
C9    H13   S    
N1    C53   S    
C60   H47   S    
C54   H20   S    
C3    C52   S    
O10   V2    S    
O1    V3    S    
N4    C56   S    
C26   C30   A    
C42   H12   S    
C24   C26   A    
C19   C21   A    
C32   C38   S    
C19   N5    S    
C48   C50   A    
C54   H21   S    
O18   V4    S    
C53   H18   S    
C31   C33   S    
C37   H7    S    
C58   H38   S    
C55   H28   S    
O16   C6    A    
C45   H3    S    
O1    C3    A    
C33   C38   S    
C59   H42   S    
C41   H11   S    
C1    C36   S    
C16   N2    S    
C28   C29   A    
C11   C13   S    
N7    H41   S    
V2    O20   S    
C57   H36   S    
C61   H51   S    
C38   H8    S    
C43   H10   S    
O16   V4    S    
N10   C62   S    
C22   H23   S    
C40   H2    S    
C12   C15   S    
C59   H43   S    
C57   H34   S    
O5    V1    S    
O17   C7    A    
O6    V2    S    
N3    H25   S    
O10   C6    A    
C20   N6    S    
O18   C8    A    
C9    C14   S    
C32   C35   S    
C33   N9    S    
O2    V4    S    
C27   C30   A    
C4    C51   S    
N5    C57   S    
C11   C16   S    
V3    O19   S    
N9    H49   S    
C12   C14   S    
C47   C51   A    
C8    C13   S    
C25   C29   A    
C31   C37   S    
C5    C29   S    
O9    C5    A    
C9    C11   S    
C32   C34   S    
O14   V2    S    
O2    C4    A    
N6    C58   S    
O4    V2    S    
C54   H22   S    
C49   C52   A    
C53   H17   S    
C58   H39   S    
C44   C46   A    
C40   C50   A    
C46   C48   A    
C56   H31   S    
C62   H54   S    
C6    C30   S    
C17   C27   A    
C31   H57   S    
C18   C28   A    
N7    C59   S    
