data_mof_unit_35843.cif
_audit_creation_date              2012-12-10T18:24:42-0500
_audit_creation_method            fapswitch 2.2
_symmetry_space_group_name_H-M    P1
_symmetry_Int_Tables_number       1
_space_group_crystal_system       triclinic
_cell_length_a                    14.64649
_cell_length_b                    15.881683
_cell_length_c                    17.166408
_cell_angle_alpha                 89.779807
_cell_angle_beta                  86.063812
_cell_angle_gamma                 89.703108
_cell_volume                      3983.596763

loop_
_atom_site_label
_atom_site_type_symbol
_atom_type_description
_atom_site_fract_x
_atom_site_fract_y
_atom_site_fract_z
_atom_type_partial_charge
C1    C     C_R   0.499813 0.660254 0.498430 0.806344
C2    C     C_R   0.500250 0.339744 0.500490 0.837596
C3    C     C_3   0.415804 0.031407 0.499705 0.395085
C4    C     C_3   0.584749 0.968598 0.497420 0.268960
C5    C     C_3   0.459640 0.972622 0.436267 0.286316
C6    C     C_3   0.540124 0.027033 0.562114 0.256542
C7    C     C_1   0.498604 0.749368 0.497273 -0.194738
C8    C     C_1   0.501348 0.250676 0.500720 -0.165643
C9    C     C_3   0.451296 0.974742 0.564369 0.313362
C10   C     C_3   0.548060 0.025777 0.433532 0.251391
C11   C     C_3   0.495328 0.915733 0.500175 -0.220948
C12   C     C_3   0.503611 0.084341 0.497861 -0.230553
C13   C     C_1   0.496829 0.824540 0.497724 0.045214
C14   C     C_1   0.502741 0.175525 0.500045 0.067788
C15   C     C_3   0.026475 0.433980 0.539091 0.223931
C16   C     C_3   0.973864 0.567952 0.458274 0.227918
C17   C     C_3   0.965244 0.506142 0.572555 0.225257
C18   C     C_3   0.035215 0.495942 0.424851 0.234997
C19   C     C_3   0.970236 0.430729 0.466106 0.286053
C20   C     C_3   0.030306 0.571232 0.531163 0.291891
C21   C     C_3   0.907602 0.503125 0.499786 -0.158856
C22   C     C_3   0.092689 0.498666 0.497584 -0.167875
C23   C     C_R   0.488254 0.502730 0.650129 0.976298
C24   C     C_R   0.512057 0.498420 0.349295 0.896477
C25   C     C_1   0.805501 0.501782 0.500075 0.312928
C26   C     C_1   0.194618 0.499030 0.498696 0.348145
C27   C     C_R   0.482174 0.513731 0.734298 -0.235630
C28   C     C_R   0.520729 0.493010 0.263714 -0.293557
C29   C     C_R   0.447938 0.448387 0.782902 0.232393
C30   C     C_R   0.450633 0.455804 0.223387 0.244619
C31   C     C_R   0.446375 0.458529 0.864845 0.274858
C32   C     C_R   0.459727 0.452175 0.140967 0.277868
C33   C     C_R   0.483918 0.531748 0.895450 -0.124589
C34   C     C_R   0.542588 0.476651 0.101361 -0.146836
C35   C     C_R   0.512586 0.598828 0.846632 0.292676
C36   C     C_R   0.616112 0.504573 0.142547 0.292069
C37   C     C_R   0.515353 0.588500 0.765384 0.222832
C38   C     C_R   0.602604 0.519504 0.222569 0.268264
C39   C     C_2   0.494293 0.538231 0.979592 0.466061
C40   C     C_2   0.548486 0.482174 0.015867 0.455768
Cu1   Cu    Cu3+1 0.409780 0.500000 0.499990 1.034947
Cu2   Cu    Cu3+1 0.590220 0.500000 0.500010 0.992602
N1    N     N_1   0.725810 0.500000 0.500030 -0.176501
N2    N     N_1   0.274190 0.500000 0.499970 -0.159405
O1    O     O_R   0.423830 0.620920 0.499990 -0.577654
O2    O     O_R   0.576170 0.379080 0.500010 -0.578369
O3    O     O_R   0.576200 0.620920 0.500000 -0.585288
O4    O     O_R   0.423800 0.379080 0.500000 -0.565884
O5    O     O_R   0.414980 0.500010 0.613590 -0.554940
O6    O     O_R   0.585020 0.499990 0.386410 -0.557784
O7    O     O_R   0.567350 0.500010 0.613600 -0.595436
O8    O     O_R   0.432650 0.499990 0.386400 -0.525617
O9    O     O_3   0.421059 0.374791 0.748561 -0.712403
H1    H     H_    0.429592 0.327202 0.784800 0.343151
O10   O     O_3   0.375849 0.421855 0.265649 -0.698687
H2    H     H_    0.350992 0.375279 0.235403 0.331973
O11   O     O_3   0.054512 0.364715 0.582066 -0.716359
H3    H     H_    0.997259 0.336390 0.601625 0.346788
O12   O     O_3   0.945814 0.637362 0.415484 -0.740023
H4    H     H_    0.002945 0.666810 0.397442 0.348773
O13   O     O_3   0.071288 0.642335 0.562986 -0.605538
C41   C     C_3   0.004270 0.699711 0.592675 0.074313
H5    H     H_    0.964616 0.672049 0.644003 0.180029
H6    H     H_    0.957061 0.717874 0.547281 0.177869
C42   C     C_3   0.052825 0.778777 0.618674 -0.327569
H7    H     H_    0.101446 0.761349 0.663086 0.228652
H8    H     H_    0.092531 0.806982 0.567630 0.233893
C43   C     C_3   0.985401 0.844128 0.653530 -0.929715
H9    H     H_    0.935243 0.861606 0.610624 0.260085
H10   H     H_    0.023070 0.901551 0.668909 0.268006
H11   H     H_    0.948694 0.819024 0.707333 0.260938
O14   O     O_3   0.931690 0.359836 0.431750 -0.602497
C44   C     C_3   0.000381 0.300774 0.408888 0.084003
H12   H     H_    0.030683 0.273584 0.461091 0.179921
H13   H     H_    0.055256 0.329849 0.369734 0.178745
C45   C     C_3   0.956819 0.229875 0.364528 -0.344913
H14   H     H_    0.898911 0.202793 0.401474 0.223519
H15   H     H_    0.929243 0.255855 0.310656 0.223447
C46   C     C_3   0.025652 0.160216 0.342098 -0.928755
H16   H     H_    0.080537 0.184784 0.300433 0.260588
H17   H     H_    0.990391 0.108137 0.313566 0.263292
H18   H     H_    0.056477 0.134886 0.394755 0.260699
O15   O     O_3   0.673376 0.554021 0.261121 -0.571220
C47   C     C_3   0.658062 0.641357 0.270113 0.074597
H19   H     H_    0.589328 0.654519 0.299739 0.114052
H20   H     H_    0.663510 0.673121 0.212020 0.154992
C48   C     C_3   0.730938 0.677077 0.320251 -0.285537
H21   H     H_    0.730149 0.641822 0.376367 0.255185
H22   H     H_    0.799569 0.668971 0.289268 0.236593
C49   C     C_3   0.714392 0.770252 0.337747 -0.870767
H23   H     H_    0.713297 0.807029 0.282654 0.246169
H24   H     H_    0.770033 0.794556 0.372136 0.277695
H25   H     H_    0.648345 0.778854 0.372509 0.263659
O16   O     O_3   0.542215 0.654228 0.715983 -0.636737
C50   C     C_3   0.638604 0.659474 0.709459 0.093464
H26   H     H_    0.668898 0.602012 0.680990 0.177147
H27   H     H_    0.667148 0.667006 0.767468 0.178063
C51   C     C_3   0.665621 0.736338 0.659623 -0.327376
H28   H     H_    0.632003 0.733841 0.603819 0.248136
H29   H     H_    0.641927 0.794189 0.691148 0.197968
C52   C     C_3   0.768647 0.740446 0.641487 -0.914831
H30   H     H_    0.804129 0.743801 0.696478 0.253568
H31   H     H_    0.785381 0.797398 0.605789 0.261717
H32   H     H_    0.792871 0.684022 0.607870 0.266348
O17   O     O_3   0.606135 0.425256 0.975794 -0.726686
H33   H     H_    0.620323 0.445335 0.921664 0.307340
O18   O     O_3   0.444061 0.601015 0.019045 -0.724169
H34   H     H_    0.470236 0.612715 0.069533 0.299051
O19   O     O_3   0.545479 0.671414 0.878978 -0.596087
C53   C     C_3   0.479406 0.736201 0.875484 0.131874
H35   H     H_    0.409253 0.713535 0.894303 0.162990
H36   H     H_    0.479507 0.761680 0.815033 0.161011
C54   C     C_3   0.503856 0.807069 0.930110 -0.339352
H37   H     H_    0.502132 0.782748 0.991015 0.245008
H38   H     H_    0.574355 0.829249 0.913419 0.225348
C55   C     C_3   0.437314 0.881005 0.926593 -0.934622
H39   H     H_    0.439478 0.907591 0.866572 0.247087
H40   H     H_    0.456813 0.931058 0.967184 0.267237
H41   H     H_    0.366499 0.860370 0.944137 0.269547
O20   O     O_3   0.698406 0.526790 0.103594 -0.584344
C56   C     C_3   0.756084 0.454926 0.095265 0.127324
H42   H     H_    0.800343 0.463401 0.040637 0.175387
H43   H     H_    0.718014 0.394958 0.088369 0.161183
C57   C     C_3   0.817395 0.447040 0.163948 -0.337001
H44   H     H_    0.851458 0.508229 0.173235 0.250948
H45   H     H_    0.775186 0.430205 0.217874 0.248918
C58   C     C_3   0.890227 0.378821 0.149377 -0.928107
H46   H     H_    0.857487 0.316746 0.141601 0.257880
H47   H     H_    0.933003 0.374764 0.200252 0.266280
H48   H     H_    0.935175 0.394050 0.096499 0.269308
O21   O     O_3   0.389027 0.426445 0.097449 -0.660636
H49   H     H_    0.330056 0.438633 0.127072 0.345081
O22   O     O_3   0.408730 0.399153 0.916408 -0.656139
H50   H     H_    0.359830 0.368897 0.891122 0.342139
O23   O     O_3   0.409442 0.944252 0.374174 -0.604205
C59   C     C_3   0.468753 0.909233 0.314445 0.121088
H51   H     H_    0.528680 0.876125 0.337358 0.155248
H52   H     H_    0.493710 0.960363 0.274130 0.189565
C60   C     C_3   0.415782 0.845593 0.268814 -0.344967
H53   H     H_    0.393548 0.792691 0.308165 0.228238
H54   H     H_    0.353842 0.876347 0.247433 0.236705
C61   C     C_3   0.474349 0.810807 0.199142 -0.940389
H55   H     H_    0.493574 0.862144 0.157131 0.263982
H56   H     H_    0.435127 0.762683 0.168859 0.269929
H57   H     H_    0.537441 0.781019 0.218938 0.243601
O24   O     O_3   0.584787 0.062180 0.624615 -0.589171
C62   C     C_3   0.590553 0.002672 0.685211 0.072604
H58   H     H_    0.609638 0.938955 0.662377 0.119525
H59   H     H_    0.523774 0.999521 0.719901 0.184221
C63   C     C_3   0.663198 0.031163 0.739064 -0.326684
H60   H     H_    0.730480 0.036153 0.705353 0.214462
H61   H     H_    0.644501 0.094366 0.762974 0.242601
C64   C     C_3   0.671773 0.969583 0.806615 -0.934145
H62   H     H_    0.605978 0.966001 0.842584 0.264257
H63   H     H_    0.725608 0.991600 0.844114 0.268120
H64   H     H_    0.690980 0.905924 0.784266 0.256495
O25   O     O_3   0.325078 0.062649 0.503508 -0.557228
C65   C     C_3   0.309460 0.113007 0.437409 0.098296
H65   H     H_    0.263381 0.078284 0.400139 0.171028
H66   H     H_    0.372564 0.128369 0.399999 0.135511
C66   C     C_3   0.262308 0.195013 0.464790 -0.345023
H67   H     H_    0.191427 0.181192 0.488543 0.224772
H68   H     H_    0.299922 0.223133 0.512288 0.257390
C67   C     C_3   0.259132 0.259035 0.398482 -0.861020
H69   H     H_    0.329626 0.277462 0.377323 0.271758
H70   H     H_    0.221600 0.316277 0.419874 0.271805
H71   H     H_    0.223671 0.232191 0.349271 0.243067
O26   O     O_3   0.670859 0.927656 0.491519 -0.594115
C68   C     C_3   0.739890 0.979477 0.518460 0.107052
H72   H     H_    0.748134 0.964582 0.580772 0.153181
H73   H     H_    0.725133 0.047919 0.512968 0.148699
C69   C     C_3   0.830099 0.960033 0.471896 -0.364615
H74   H     H_    0.848215 0.892612 0.479804 0.225071
H75   H     H_    0.822048 0.971569 0.408818 0.228793
C70   C     C_3   0.907484 0.014819 0.498226 -0.923146
H76   H     H_    0.892022 0.082336 0.488364 0.258694
H77   H     H_    0.972313 0.998292 0.464278 0.269520
H78   H     H_    0.916698 0.004753 0.561238 0.261369
O27   O     O_3   0.595978 0.045812 0.361506 -0.610170
C71   C     C_3   0.655783 0.114695 0.367575 0.092929
H79   H     H_    0.725102 0.094521 0.344377 0.155166
H80   H     H_    0.663160 0.136777 0.428148 0.132881
C72   C     C_3   0.623836 0.187637 0.317424 -0.360972
H81   H     H_    0.624005 0.167012 0.255611 0.229146
H82   H     H_    0.552650 0.205689 0.337233 0.216882
C73   C     C_3   0.685559 0.264377 0.322058 -0.878683
H83   H     H_    0.686775 0.286119 0.383391 0.276705
H84   H     H_    0.659142 0.316439 0.286380 0.254328
H85   H     H_    0.756297 0.248696 0.299113 0.249892
O28   O     O_3   0.392935 0.960592 0.632344 -0.568359
C74   C     C_3   0.402362 0.878614 0.662886 0.053767
H86   H     H_    0.397100 0.883683 0.727531 0.146896
H87   H     H_    0.470298 0.849145 0.647727 0.123899
C75   C     C_3   0.323475 0.823418 0.639153 -0.322652
H88   H     H_    0.257417 0.852031 0.661510 0.226379
H89   H     H_    0.323617 0.820410 0.574545 0.236366
C76   C     C_3   0.330187 0.734343 0.671940 -0.857568
H90   H     H_    0.394570 0.703705 0.648817 0.284561
H91   H     H_    0.271675 0.696388 0.654213 0.266835
H92   H     H_    0.328376 0.735761 0.736718 0.241032
O29   O     O_3   0.928120 0.510712 0.649638 -0.727934
H93   H     H_    0.981427 0.511052 0.682212 0.348720
O30   O     O_3   0.072115 0.491534 0.347679 -0.707203
H94   H     H_    0.018689 0.488775 0.315336 0.344963

loop_
_geom_bond_atom_site_label_1
_geom_bond_atom_site_label_2
_ccdc_geom_bond_type
C24   O8    A    
C75   H89   S    
O30   H94   S    
C16   C21   S    
C38   O15   S    
C27   C29   A    
C68   H73   S    
Cu1   Cu2   S    
C50   H26   S    
C45   C46   S    
C31   O22   S    
C25   N1    T    
C6    C9    S    
C58   H47   S    
C66   H67   S    
C49   H23   S    
C50   C51   S    
C26   N2    T    
O23   C59   S    
C70   H77   S    
O9    H1    S    
C2    O2    A    
C39   O18   S    
C67   H70   S    
C33   C39   S    
O15   C47   S    
C34   C40   S    
C10   O27   S    
C45   H15   S    
C67   H69   S    
C35   C37   A    
C47   H20   S    
C5    C11   S    
C72   H82   S    
C6    C12   S    
C69   H74   S    
C6    O24   S    
C60   C61   S    
C23   O5    A    
C75   C76   S    
C11   C13   S    
C17   C20   S    
C55   H39   S    
C15   C17   S    
C18   C19   S    
Cu2   O2    S    
C20   O13   S    
C76   H91   S    
C53   H35   S    
C56   C57   S    
C41   H6    S    
C3    C12   S    
C65   C66   S    
C33   C35   A    
C23   O7    A    
O25   C65   S    
C62   H58   S    
C71   H80   S    
C43   H9    S    
C42   H8    S    
C63   C64   S    
O18   H34   S    
C31   C33   A    
C18   O30   S    
C23   C27   S    
C64   H63   S    
Cu1   O8    S    
C35   O19   S    
C69   C70   S    
Cu2   O7    S    
C54   C55   S    
C75   H88   S    
O12   H4    S    
C52   H31   S    
C1    C7    S    
C65   H66   S    
C15   O11   S    
C61   H57   S    
C19   O14   S    
O13   C41   S    
C59   C60   S    
Cu1   O5    S    
C66   H68   S    
C52   H30   S    
C69   H75   S    
C70   H78   S    
C15   C22   S    
C44   H12   S    
C24   O6    A    
C57   H44   S    
O24   C62   S    
C74   H86   S    
C68   H72   S    
C62   C63   S    
C47   H19   S    
C58   H48   S    
C4    C6    S    
C72   C73   S    
C39   C40   D    
C46   H17   S    
C1    O3    A    
C2    O4    A    
C17   C21   S    
O27   C71   S    
C64   H64   S    
C16   O12   S    
C32   C34   A    
C76   H92   S    
C15   C19   S    
C72   H81   S    
C74   H87   S    
O28   C74   S    
C41   H5    S    
C3    C9    S    
C63   H61   S    
C49   H24   S    
C70   H76   S    
C28   C38   A    
C16   C20   S    
C42   C43   S    
O10   H2    S    
C50   H27   S    
O20   C56   S    
O16   C50   S    
C16   C18   S    
C45   H14   S    
C4    C11   S    
C17   O29   S    
C9    C11   S    
C53   C54   S    
C56   H42   S    
C10   C12   S    
Cu2   O6    S    
C57   C58   S    
C59   H52   S    
O26   C68   S    
C12   C14   S    
C42   H7    S    
C52   H32   S    
C51   H29   S    
C48   H22   S    
C65   H65   S    
C44   C45   S    
C61   H56   S    
Cu2   N1    S    
C44   H13   S    
C4    C10   S    
C9    O28   S    
C66   C67   S    
C71   H79   S    
C49   H25   S    
C57   H45   S    
C54   H37   S    
C30   O10   S    
C5    O23   S    
C21   C25   S    
C8    C14   T    
C41   C42   S    
C62   H59   S    
C18   C22   S    
C67   H71   S    
C2    C8    S    
C24   C28   S    
C20   C22   S    
O14   C44   S    
C3    C5    S    
O21   H49   S    
C46   H18   S    
C60   H53   S    
C71   C72   S    
C47   C48   S    
C51   C52   S    
O17   H33   S    
C63   H60   S    
C55   H41   S    
C73   H85   S    
C28   C30   A    
C64   H62   S    
C74   C75   S    
C5    C10   S    
C29   C31   A    
O19   C53   S    
C30   C32   A    
C60   H54   S    
C1    O1    A    
O11   H3    S    
O22   H50   S    
C29   O9    S    
C27   C37   A    
C43   H11   S    
C36   C38   A    
Cu1   N2    S    
Cu1   O4    S    
C55   H40   S    
C37   O16   S    
C34   C36   A    
Cu2   O3    S    
C76   H90   S    
C36   O20   S    
C53   H36   S    
C56   H43   S    
C46   H16   S    
C4    O26   S    
C7    C13   T    
O29   H93   S    
C48   H21   S    
C43   H10   S    
C51   H28   S    
C22   C26   S    
C48   C49   S    
C3    O25   S    
Cu1   O1    S    
C61   H55   S    
C59   H51   S    
C68   C69   S    
C54   H38   S    
C73   H83   S    
C73   H84   S    
C32   O21   S    
C58   H46   S    
C40   O17   S    
C19   C21   S    
