data_mof_unit_55307.cif
_audit_creation_date              2013-03-05T16:54:25-0500
_audit_creation_method            fapswitch 2.2
_symmetry_space_group_name_H-M    P1
_symmetry_Int_Tables_number       1
_space_group_crystal_system       triclinic
_cell_length_a                    17.381661
_cell_length_b                    16.784609
_cell_length_c                    10.439974
_cell_angle_alpha                 90.01164
_cell_angle_beta                  90.304636
_cell_angle_gamma                 88.830008
_cell_volume                      3045.12571857

loop_
_atom_site_label
_atom_site_type_symbol
_atom_site_description
_atom_site_fract_x
_atom_site_fract_y
_atom_site_fract_z
_atom_type_partial_charge
O1    O     O_R   0.389110 0.566570 0.499990 -0.524328
O2    O     O_R   0.610890 0.566570 0.500010 -0.539084
O3    O     O_R   0.389090 0.433480 0.499980 -0.644196
O4    O     O_R   0.610910 0.433480 0.500020 -0.652836
C1    C     C_R   0.353016 0.500941 0.494223 1.006677
C2    C     C_R   0.647229 0.499176 0.502117 1.022126
O5    O     O_R   0.500000 0.566560 0.316760 -0.615674
O6    O     O_R   0.500000 0.566560 0.683240 -0.624345
O7    O     O_R   0.499970 0.433470 0.316760 -0.562918
O8    O     O_R   0.500030 0.433470 0.683240 -0.554462
C3    C     C_R   0.512358 0.499507 0.259501 0.991679
C4    C     C_R   0.486509 0.500186 0.739750 0.985264
Zn1   Zn    Zn3+2 0.500000 0.588860 0.500000 1.115101
Zn2   Zn    Zn3+2 0.500000 0.411140 0.500000 1.071465
C5    C     C_R   0.557611 0.641459 0.093212 0.427315
C6    C     C_R   0.440042 0.644603 0.904993 0.434722
C7    C     C_R   0.531021 0.715398 0.041799 -0.268431
C8    C     C_R   0.466949 0.717068 0.957122 -0.269270
C9    C     C_R   0.476083 0.571974 0.943838 -0.107449
C10   C     C_R   0.520711 0.570711 0.054757 -0.103655
C11   C     C_R   0.526581 0.497935 0.121962 -0.193574
C12   C     C_R   0.469682 0.499750 0.876377 -0.202890
C13   C     C_R   0.515839 0.425004 0.057936 0.329741
C14   C     C_R   0.477784 0.426427 0.940445 0.342510
C15   C     C_R   0.856925 0.554239 0.506500 0.323091
C16   C     C_R   0.159030 0.513868 0.334871 0.303564
C17   C     C_R   0.778926 0.553329 0.545054 0.337935
C18   C     C_R   0.233892 0.537919 0.368266 0.298655
C19   C     C_R   0.730534 0.496181 0.488960 -0.271143
C20   C     C_R   0.270051 0.501087 0.475950 -0.269771
C21   C     C_R   0.760799 0.435844 0.410728 -0.220565
C22   C     C_R   0.228951 0.451651 0.556968 -0.206323
H1    H     H_    0.723340 0.392183 0.369415 0.254016
H2    H     H_    0.257498 0.424103 0.638517 0.254763
C23   C     C_R   0.838442 0.430572 0.384976 0.367106
C24   C     C_R   0.151427 0.439366 0.536210 0.331396
C25   C     C_R   0.886364 0.489793 0.432674 -0.209133
C26   C     C_R   0.116689 0.470916 0.425153 -0.198372
C27   C     C_1   0.967077 0.479597 0.418857 0.269097
C28   C     C_1   0.035278 0.472837 0.416613 0.265974
C29   C     C_R   0.469166 0.832714 0.397347 -0.148108
C30   C     C_R   0.532893 0.830883 0.602616 -0.135179
H3    H     H_    0.444563 0.864383 0.316027 0.207674
H4    H     H_    0.558211 0.861132 0.683709 0.208931
C31   C     C_R   0.469871 0.748831 0.398534 0.154946
C32   C     C_R   0.531500 0.747017 0.600916 0.147529
H5    H     H_    0.446633 0.717085 0.317480 0.164454
H6    H     H_    0.555741 0.713783 0.680709 0.159661
N1    N     N_R   0.500000 0.707230 0.500000 -0.098780
C33   C     C_R   0.501066 0.874768 0.500200 0.081404
C34   C     C_1   0.501314 0.962104 0.500290 0.116916
C35   C     C_1   0.501327 0.034965 0.499988 0.252446
C36   C     C_R   0.445027 0.166694 0.429305 0.282646
C37   C     C_R   0.557091 0.165001 0.568870 0.263792
C38   C     C_R   0.442411 0.251542 0.438591 -0.042449
C39   C     C_R   0.558477 0.249843 0.560080 -0.051167
N2    N     N_R   0.500000 0.292770 0.500000 -0.191403
C40   C     C_R   0.501149 0.122906 0.499397 -0.165244
S1    S     S_3+6 0.564738 0.336160 0.109641 0.137290
O9    O     O_2   0.620324 0.353773 0.215955 -0.300752
O10   O     O_2   0.508386 0.275819 0.154850 -0.204343
O11   O     O_3   0.614803 0.297402 0.986558 -0.432645
H7    H     H_    0.640235 0.248655 0.021434 0.410836
S2    S     S_3+6 0.426163 0.341862 0.886972 0.145844
O12   O     O_2   0.381038 0.309221 0.996767 -0.180306
O13   O     O_2   0.370935 0.365073 0.781552 -0.290675
O14   O     O_3   0.486917 0.270442 0.833372 -0.456081
H8    H     H_    0.453474 0.226905 0.804028 0.379298
S3    S     S_3+6 0.377444 0.115121 0.331048 0.092462
O15   O     O_2   0.415062 0.043130 0.270420 -0.288800
O16   O     O_2   0.312374 0.088734 0.414113 -0.222743
O17   O     O_3   0.342035 0.173504 0.212808 -0.467751
H9    H     H_    0.302213 0.141317 0.170168 0.412138
S4    S     S_3+6 0.625973 0.110998 0.665129 0.081159
O18   O     O_2   0.588430 0.041987 0.729879 -0.291191
O19   O     O_2   0.688844 0.079736 0.579344 -0.220385
O20   O     O_3   0.664755 0.168450 0.779562 -0.496328
H10   H     H_    0.703902 0.133862 0.822426 0.407286
C41   C     C_2   0.373983 0.294162 0.387530 1.118323
O21   O     O_2   0.311768 0.285445 0.439330 -0.566394
O22   O     O_R   0.379150 0.341903 0.278590 -0.707567
H11   H     H_    0.327945 0.367577 0.253519 0.353292
C42   C     C_2   0.626365 0.290795 0.610161 1.129816
O23   O     O_2   0.688588 0.280180 0.558091 -0.609322
O24   O     O_R   0.620812 0.338628 0.719157 -0.688590
H12   H     H_    0.671720 0.362943 0.743806 0.362551
S5    S     S_3+6 0.647308 0.635273 0.177246 0.065221
O25   O     O_2   0.638714 0.672209 0.307522 -0.253122
O26   O     O_2   0.675527 0.550460 0.191193 -0.308096
O27   O     O_3   0.713201 0.685998 0.094768 -0.510831
H13   H     H_    0.760572 0.682590 0.147822 0.410963
S6    S     S_3+6 0.351506 0.643170 0.817400 0.081133
O28   O     O_2   0.362569 0.679240 0.687363 -0.248954
O29   O     O_2   0.322419 0.559924 0.802557 -0.296706
O30   O     O_3   0.285016 0.697794 0.896658 -0.501527
H14   H     H_    0.237761 0.694842 0.843570 0.412869
C43   C     C_2   0.570860 0.791021 0.071178 1.077940
O31   O     O_2   0.589261 0.807322 0.181038 -0.559376
O32   O     O_R   0.586378 0.844259 0.972013 -0.778134
H15   H     H_    0.613046 0.893817 0.003343 0.379952
C44   C     C_2   0.427792 0.794707 0.927792 1.069664
O33   O     O_2   0.410372 0.812352 0.817733 -0.560759
O34   O     O_R   0.411932 0.848311 0.027243 -0.784968
H16   H     H_    0.385817 0.899299 0.995960 0.379563
S7    S     S_3+6 0.917992 0.635533 0.543881 0.119327
O35   O     O_2   0.872450 0.711723 0.561706 -0.154991
O36   O     O_2   0.962008 0.616325 0.664671 -0.241862
O37   O     O_3   0.980731 0.649579 0.424157 -0.529754
H17   H     H_    0.022193 0.681796 0.462055 0.401659
S8    S     S_3+6 0.119987 0.527732 0.178037 0.130358
O38   O     O_2   0.074705 0.604928 0.173031 -0.194718
O39   O     O_2   0.183057 0.528421 0.080029 -0.179259
O40   O     O_3   0.061041 0.452582 0.142330 -0.491067
H18   H     H_    0.040556 0.465304 0.055826 0.415916
S9    S     S_3+6 0.743692 0.615344 0.671989 0.110640
O41   O     O_2   0.713971 0.692682 0.616380 -0.240933
O42   O     O_2   0.679540 0.575486 0.741806 -0.327779
O43   O     O_3   0.813628 0.633807 0.779200 -0.428739
H19   H     H_    0.790347 0.672583 0.839933 0.413011
S10   S     S_3+6 0.279216 0.617621 0.286231 0.091685
O44   O     O_2   0.308106 0.675846 0.383636 -0.281103
O45   O     O_2   0.345669 0.584660 0.210066 -0.321076
O46   O     O_3   0.219569 0.668944 0.187922 -0.417471
H20   H     H_    0.250237 0.713910 0.156296 0.406996
S11   S     S_3+6 0.873439 0.350752 0.288777 0.138916
O47   O     O_2   0.904073 0.384018 0.166069 -0.176118
O48   O     O_2   0.937578 0.306818 0.357508 -0.214870
O49   O     O_3   0.803128 0.286737 0.253615 -0.463360
H21   H     H_    0.793887 0.257602 0.334419 0.391857
S12   S     S_3+6 0.099238 0.383731 0.649676 0.127551
O50   O     O_2   0.058483 0.317640 0.582036 -0.161062
O51   O     O_2   0.151864 0.348426 0.750368 -0.193978
O52   O     O_3   0.033274 0.443493 0.720303 -0.493982
H22   H     H_    0.063413 0.485747 0.762197 0.381104

loop_
_geom_bond_atom_site_label_1
_geom_bond_atom_site_label_2
_geom_bond_distance
_ccdc_geom_bond_type
C26   C28   1.417104 S    
S5    O25   1.501508 D    
C44   O33   1.221630 D    
C17   C19   1.413526 A    
O30   H14   0.990511 S    
C9    C10   1.390287 A    
C36   S3    1.791609 S    
O49   H21   0.990661 S    
O22   H11   1.014034 S    
C13   S1    1.783579 S    
C15   S7    1.787550 S    
O46   H20   0.990548 S    
O20   H10   0.990464 S    
C39   N2    1.381737 A    
O5    C3    1.288944 A    
S7    O36   1.503118 D    
C32   N1    1.365376 A    
O6    Zn1   1.949367 S    
S4    O19   1.502805 D    
O1    C1    1.280019 A    
C22   C24   1.383273 A    
C23   C25   1.399666 A    
O40   H18   0.990717 S    
S9    O41   1.502906 D    
C4    C12   1.457628 S    
O37   H17   0.990520 S    
S3    O16   1.502809 D    
C30   C32   1.408462 A    
C23   S11   1.773770 S    
O2    Zn1   1.955911 S    
S8    O38   1.503005 D    
C15   C25   1.416761 A    
O43   H19   0.990543 S    
C42   O23   1.222838 D    
S9    O42   1.503846 D    
S4    O20   1.681980 S    
S11   O49   1.682715 S    
C13   C14   1.390471 A    
C21   H1    1.078595 S    
C16   S8    1.782544 S    
S10   O46   1.680152 S    
C36   C38   1.427243 A    
S1    O9    1.500975 D    
C44   O34   1.398585 S    
C37   S4    1.791167 S    
C29   H3    1.083157 S    
O2    C2    1.284400 A    
C30   H4    1.083130 S    
O8    C4    1.283633 A    
C43   O32   1.398655 S    
S10   O45   1.501997 D    
C43   O31   1.221539 D    
C32   H6    1.081436 S    
C31   H5    1.080793 S    
C5    C10   1.418035 A    
C25   C27   1.417969 S    
S7    O37   1.682915 S    
C37   C39   1.427715 A    
S1    O10   1.501195 D    
S4    O18   1.503456 D    
O14   H8    0.990509 S    
S2    O14   1.679175 S    
C9    C12   1.407924 A    
O4    C2    1.281863 A    
C18   S10   1.787294 S    
C27   C28   1.188901 T    
C41   O22   1.395735 S    
C16   C26   1.406805 A    
C33   C34   1.465986 S    
O24   H12   1.013934 S    
C3    C11   1.458470 S    
S6    O30   1.681517 S    
C34   C35   1.222949 T    
C8    C44   1.488918 S    
S2    O13   1.502747 D    
S3    O17   1.682459 S    
S12   O51   1.503612 D    
O7    Zn2   1.949461 S    
O11   H7    0.990497 S    
C24   S12   1.773300 S    
C38   C41   1.472831 S    
O32   H15   1.013800 S    
C31   N1    1.365072 A    
O6    C4    1.287088 A    
S9    O43   1.681458 S    
S6    O29   1.503283 D    
C7    C8    1.418038 A    
O7    C3    1.282043 A    
S8    O40   1.681756 S    
O3    Zn2   1.956399 S    
C35   C40   1.476018 S    
C30   C33   1.403289 A    
Zn1   N1    1.986794 S    
C42   O24   1.395132 S    
C6    S6    1.786500 S    
C38   N2    1.383157 A    
O8    Zn2   1.949314 S    
S11   O47   1.502030 D    
C12   C14   1.405024 A    
S12   O52   1.681115 S    
O1    Zn1   1.970911 S    
C29   C33   1.402870 A    
S10   O44   1.501852 D    
C39   C42   1.471277 S    
C5    S5    1.786077 S    
C1    C20   1.453582 S    
C37   C40   1.411056 A    
C5    C7    1.419896 A    
Zn2   N2    1.986794 S    
S1    O11   1.679317 S    
O17   H9    0.990466 S    
O3    C1    1.284336 A    
C36   C40   1.410881 A    
C15   C17   1.416657 A    
S7    O35   1.502250 D    
C16   C18   1.412183 A    
S2    O12   1.502209 D    
C11   C13   1.409899 A    
S12   O50   1.502500 D    
C18   C20   1.420554 A    
C19   C21   1.397108 A    
C20   C22   1.394707 A    
O27   H13   0.990600 S    
O52   H22   0.990610 S    
C6    C9    1.417512 A    
C24   C26   1.403228 A    
S6    O28   1.501471 D    
C14   S2    1.782622 S    
C21   C23   1.378551 A    
O4    Zn2   1.971428 S    
S3    O15   1.503355 D    
S8    O39   1.503766 D    
C41   O21   1.223105 D    
O5    Zn1   1.949219 S    
C2    C19   1.455054 S    
C10   C11   1.410420 A    
C6    C8    1.419352 A    
S5    O27   1.681866 S    
O34   H16   1.013792 S    
S11   O48   1.503211 D    
S5    O26   1.503029 D    
C29   C31   1.407800 A    
C7    C43   1.489366 S    
C22   H2    1.082189 S    
C17   S9    1.787927 S    
