data_mof_unit_40727.cif
_audit_creation_date              2013-03-05T15:49:00-0500
_audit_creation_method            fapswitch 2.2
_symmetry_space_group_name_H-M    P1
_symmetry_Int_Tables_number       1
_space_group_crystal_system       triclinic
_cell_length_a                    17.995701
_cell_length_b                    18.409625
_cell_length_c                    12.110245
_cell_angle_alpha                 89.995712
_cell_angle_beta                  86.017991
_cell_angle_gamma                 90.002668
_cell_volume                      4002.36730895

loop_
_atom_site_label
_atom_site_type_symbol
_atom_site_description
_atom_site_fract_x
_atom_site_fract_y
_atom_site_fract_z
_atom_type_partial_charge
O1    O     O_R   0.418020 0.076820 0.422210 -0.561273
O2    O     O_R   0.581980 0.923180 0.577790 -0.620535
O3    O     O_R   0.581980 0.076820 0.577790 -0.561123
O4    O     O_R   0.418020 0.923180 0.422210 -0.620501
O5    O     O_R   0.918020 0.576820 0.422210 -0.561218
O6    O     O_R   0.081980 0.423180 0.577790 -0.620532
O7    O     O_R   0.081980 0.576820 0.577790 -0.561179
O8    O     O_R   0.918020 0.423180 0.422210 -0.620488
O9    O     O_R   0.430370 0.076830 0.608590 -0.569595
O10   O     O_R   0.569630 0.923170 0.391410 -0.574330
O11   O     O_R   0.569630 0.076830 0.391410 -0.569525
O12   O     O_R   0.430370 0.923170 0.608590 -0.574338
O13   O     O_R   0.930370 0.576830 0.608590 -0.569509
O14   O     O_R   0.069630 0.423170 0.391410 -0.574369
O15   O     O_R   0.069630 0.576830 0.391410 -0.569533
O16   O     O_R   0.930370 0.423170 0.608590 -0.574310
C1    C     C_R   0.401765 0.101549 0.521086 0.949491
C2    C     C_R   0.597062 0.897254 0.478978 0.949696
C3    C     C_R   0.598249 0.101539 0.478908 0.949226
C4    C     C_R   0.402935 0.897257 0.521027 0.949729
C5    C     C_R   0.901754 0.601541 0.521087 0.949223
C6    C     C_R   0.097053 0.397245 0.478987 0.949612
C7    C     C_R   0.098249 0.601540 0.478907 0.949157
C8    C     C_R   0.902936 0.397256 0.521027 0.949656
C9    C     C_R   0.588078 0.010651 0.828120 0.506117
C10   C     C_R   0.411922 0.010648 0.171880 0.506180
C11   C     C_R   0.088068 0.510704 0.828121 0.506112
C12   C     C_R   0.911918 0.510622 0.171878 0.506133
Zn1   Zn    Zn3+2 0.491750 0.000000 0.375560 1.109590
Zn2   Zn    Zn3+2 0.508250 0.000000 0.624440 1.109565
Zn3   Zn    Zn3+2 0.991750 0.500000 0.375560 1.109591
Zn4   Zn    Zn3+2 0.008250 0.500000 0.624440 1.109589
C13   C     C_R   0.598367 0.007415 0.943074 0.179920
C14   C     C_R   0.401632 0.007409 0.056924 0.179905
C15   C     C_R   0.098363 0.507481 0.943073 0.180040
C16   C     C_R   0.901631 0.507370 0.056923 0.179926
C17   C     C_R   0.457703 0.993548 0.862699 0.383258
C18   C     C_R   0.542296 0.993553 0.137303 0.383355
C19   C     C_R   0.957709 0.493514 0.862702 0.383349
C20   C     C_R   0.042302 0.493593 0.137305 0.383442
C21   C     C_R   0.649592 0.160936 0.467495 -0.187185
C22   C     C_R   0.352929 0.836358 0.533061 -0.166526
C23   C     C_R   0.350392 0.160916 0.532524 -0.187182
C24   C     C_R   0.647061 0.836349 0.466954 -0.166481
C25   C     C_R   0.149599 0.660931 0.467484 -0.187108
C26   C     C_R   0.852930 0.336357 0.533066 -0.166554
C27   C     C_R   0.850408 0.660934 0.532497 -0.187155
C28   C     C_R   0.147013 0.336305 0.467021 -0.166344
C29   C     C_R   0.313018 0.721170 0.612589 0.254357
C30   C     C_R   0.688196 0.276992 0.391570 0.263719
C31   C     C_R   0.686968 0.721168 0.387421 0.254331
C32   C     C_R   0.311385 0.276655 0.609114 0.264104
C33   C     C_R   0.813066 0.221131 0.612514 0.254372
C34   C     C_R   0.188265 0.776937 0.391444 0.263727
C35   C     C_R   0.187005 0.221187 0.387350 0.254339
C36   C     C_R   0.811732 0.776925 0.608550 0.263778
C37   C     C_R   0.363426 0.779218 0.607852 0.251417
C38   C     C_R   0.639539 0.218086 0.393040 0.241821
C39   C     C_R   0.636559 0.779214 0.392165 0.251417
C40   C     C_R   0.360238 0.217908 0.607337 0.241921
C41   C     C_R   0.863467 0.279187 0.607787 0.251315
C42   C     C_R   0.139593 0.718044 0.392944 0.241986
C43   C     C_R   0.136591 0.279232 0.392089 0.251382
C44   C     C_R   0.860413 0.718043 0.607036 0.241893
C45   C     C_R   0.294445 0.835556 0.464539 -0.189612
C46   C     C_R   0.707240 0.161509 0.538096 -0.155721
C47   C     C_R   0.705547 0.835540 0.535469 -0.189634
C48   C     C_R   0.292811 0.161541 0.461800 -0.155923
C49   C     C_R   0.794403 0.335589 0.464624 -0.189636
C50   C     C_R   0.207217 0.661529 0.538138 -0.155870
C51   C     C_R   0.205355 0.335376 0.535802 -0.189645
C52   C     C_R   0.792786 0.661534 0.461848 -0.155732
C53   C     C_R   0.245631 0.777998 0.465211 -0.010253
C54   C     C_R   0.755076 0.220080 0.539681 -0.020740
C55   C     C_R   0.754362 0.777985 0.534791 -0.010272
C56   C     C_R   0.244873 0.220036 0.460389 -0.020710
C57   C     C_R   0.745597 0.278023 0.465278 -0.010245
C58   C     C_R   0.255062 0.720092 0.539698 -0.020745
C59   C     C_R   0.254138 0.277805 0.535160 -0.010644
C60   C     C_R   0.744931 0.720089 0.460301 -0.020742
N1    N     N_R   0.480750 0.000000 0.209750 -0.198069
N2    N     N_R   0.519250 0.000000 0.790250 -0.198093
N3    N     N_R   0.980750 0.500000 0.209750 -0.198063
N4    N     N_R   0.019250 0.500000 0.790250 -0.198106
H1    H     H_    0.714340 0.115566 0.591955 0.215826
H2    H     H_    0.287738 0.880215 0.409379 0.166777
H3    H     H_    0.285843 0.115707 0.407692 0.216140
H4    H     H_    0.712263 0.880196 0.590620 0.166739
H5    H     H_    0.214288 0.615611 0.592055 0.215897
H6    H     H_    0.787658 0.380280 0.409541 0.166739
H7    H     H_    0.785717 0.615622 0.407927 0.215913
H8    H     H_    0.212026 0.379978 0.591074 0.166544
C61   C     C_R   0.464071 0.997993 0.979731 -0.228637
C62   C     C_R   0.535929 0.997996 0.020271 -0.228661
C63   C     C_R   0.964075 0.497977 0.979733 -0.228642
C64   C     C_R   0.035932 0.498028 0.020273 -0.228662
O17   O     O_3   0.355768 0.035935 0.245725 -0.589813
C65   C     C_3   0.295217 0.987373 0.255588 -0.047947
H9    H     H_    0.310608 0.930091 0.234714 0.152558
H10   H     H_    0.250183 0.006210 0.204735 0.264301
H11   H     H_    0.271307 0.989639 0.342241 0.160610
O18   O     O_3   0.644243 0.035922 0.754269 -0.589670
C66   C     C_3   0.704751 0.987317 0.744389 -0.047657
H12   H     H_    0.689306 0.930038 0.765219 0.152439
H13   H     H_    0.749795 0.006089 0.795271 0.264307
H14   H     H_    0.728676 0.989605 0.657745 0.160552
O19   O     O_3   0.855759 0.535905 0.245719 -0.589718
C67   C     C_3   0.795225 0.487325 0.255601 -0.047705
H15   H     H_    0.810648 0.430036 0.234825 0.152441
H16   H     H_    0.750202 0.506106 0.204684 0.264283
H17   H     H_    0.771280 0.489640 0.342231 0.160630
O20   O     O_3   0.144229 0.535979 0.754266 -0.589656
C68   C     C_3   0.204731 0.487366 0.744376 -0.047850
H18   H     H_    0.189288 0.430112 0.765366 0.153068
H19   H     H_    0.249811 0.506182 0.795158 0.264325
H20   H     H_    0.228595 0.489557 0.657691 0.159962
N5    N     N_R   0.612486 0.978999 0.180959 0.242220
O21   O     O_R   0.652406 0.031807 0.216565 -0.296040
O22   O     O_R   0.640129 0.913755 0.174308 -0.284785
N6    N     N_R   0.387514 0.978982 0.819048 0.242229
O23   O     O_R   0.347593 0.031783 0.783421 -0.296192
O24   O     O_R   0.359870 0.913736 0.825730 -0.284742
N7    N     N_R   0.112504 0.479100 0.180965 0.242168
O25   O     O_R   0.152398 0.531950 0.216503 -0.296073
O26   O     O_R   0.140201 0.413878 0.174326 -0.284693
N8    N     N_R   0.887529 0.478890 0.819059 0.242241
O27   O     O_R   0.847586 0.531652 0.783364 -0.296067
O28   O     O_R   0.859929 0.413628 0.825775 -0.284762
N9    N     N_R   0.577358 0.219100 0.324988 0.247050
O29   O     O_R   0.588246 0.219024 0.217686 -0.229010
O30   O     O_R   0.509695 0.221390 0.370256 -0.328910
N10   N     N_R   0.425989 0.778475 0.675482 0.249285
O31   O     O_R   0.416380 0.765282 0.781064 -0.227611
O32   O     O_R   0.493376 0.783627 0.629859 -0.351280
N11   N     N_R   0.422335 0.218901 0.675578 0.247053
O33   O     O_R   0.411316 0.219520 0.782862 -0.228542
O34   O     O_R   0.490051 0.220948 0.630481 -0.328723
N12   N     N_R   0.573993 0.778473 0.324540 0.249279
O35   O     O_R   0.583599 0.765289 0.218958 -0.227657
O36   O     O_R   0.506609 0.783626 0.370167 -0.351294
N13   N     N_R   0.077452 0.719032 0.324814 0.247094
O37   O     O_R   0.088396 0.718897 0.217519 -0.228975
O38   O     O_R   0.009768 0.721355 0.370001 -0.328710
N14   N     N_R   0.926061 0.278422 0.675354 0.249274
O39   O     O_R   0.916496 0.265192 0.780930 -0.227548
O40   O     O_R   0.993430 0.283595 0.629675 -0.351345
N15   N     N_R   0.922561 0.719035 0.675158 0.247069
O41   O     O_R   0.911622 0.718983 0.782454 -0.229007
O42   O     O_R   0.990242 0.721321 0.629960 -0.328732
N16   N     N_R   0.074098 0.278548 0.324318 0.249288
O43   O     O_R   0.083801 0.265411 0.218732 -0.227528
O44   O     O_R   0.006678 0.283690 0.369812 -0.351149
N17   N     N_R   0.822174 0.162659 0.688641 0.214506
O45   O     O_R   0.881894 0.122670 0.679991 -0.260945
O46   O     O_R   0.773811 0.153579 0.772393 -0.269637
N18   N     N_R   0.176739 0.836985 0.319310 0.200484
O47   O     O_R   0.144457 0.895723 0.358298 -0.318415
O48   O     O_R   0.196320 0.832095 0.214162 -0.274454
N19   N     N_R   0.178038 0.162833 0.310978 0.214481
O49   O     O_R   0.118352 0.122783 0.319335 -0.261019
O50   O     O_R   0.226504 0.153918 0.227313 -0.269374
N20   N     N_R   0.823250 0.836962 0.680696 0.200527
O51   O     O_R   0.855574 0.895696 0.641736 -0.318294
O52   O     O_R   0.803584 0.832082 0.785820 -0.274593
N21   N     N_R   0.322081 0.662732 0.688791 0.214448
O53   O     O_R   0.381792 0.622726 0.680235 -0.261250
O54   O     O_R   0.273687 0.653701 0.772518 -0.269514
N22   N     N_R   0.676618 0.337079 0.319532 0.200499
O55   O     O_R   0.644387 0.395810 0.358647 -0.318459
O56   O     O_R   0.696125 0.332244 0.214354 -0.274536
N23   N     N_R   0.677896 0.662733 0.311226 0.214519
O57   O     O_R   0.618178 0.622733 0.319785 -0.260991
O58   O     O_R   0.726300 0.653689 0.227517 -0.269601
N24   N     N_R   0.322555 0.336455 0.681840 0.200487
O59   O     O_R   0.355911 0.394941 0.643927 -0.317052
O60   O     O_R   0.301692 0.331503 0.786561 -0.275479
N25   N     N_R   0.669756 0.025988 0.980138 0.237264
O61   O     O_R   0.719197 0.975658 0.992963 -0.266846
O62   O     O_R   0.688206 0.093938 0.989073 -0.212792
N26   N     N_R   0.330247 0.025980 0.019851 0.237222
O63   O     O_R   0.280794 0.975652 0.007064 -0.266849
O64   O     O_R   0.311824 0.093930 0.010822 -0.212620
N27   N     N_R   0.169745 0.526091 0.980124 0.237332
O65   O     O_R   0.219218 0.475788 0.992920 -0.266576
O66   O     O_R   0.188158 0.594051 0.989061 -0.212666
N28   N     N_R   0.830239 0.525912 0.019841 0.237193
O67   O     O_R   0.780810 0.475563 0.007044 -0.266892
O68   O     O_R   0.811786 0.593854 0.010819 -0.212809

loop_
_geom_bond_atom_site_label_1
_geom_bond_atom_site_label_2
_geom_bond_distance
_ccdc_geom_bond_type
C37   N10   1.437569 S    
C6    C28   1.438743 S    
N23   O57   1.300912 A    
C33   N17   1.434008 S    
N21   O53   1.300920 A    
C7    C25   1.432009 S    
O2    C2    1.299383 A    
C49   C57   1.376051 A    
O13   Zn4   2.009756 S    
C14   N26   1.431388 S    
C63   C64   1.414697 A    
C16   C63   1.421497 A    
C14   C61   1.421505 A    
O14   Zn3   2.009758 S    
C13   C62   1.421498 A    
C46   H1    1.081023 S    
C51   C59   1.375931 A    
O17   C65   1.408079 S    
C29   C37   1.400310 A    
N7    O25   1.300057 A    
C15   C64   1.421491 A    
C29   C58   1.412529 A    
Zn1   N1    2.031368 S    
N23   O58   1.300579 A    
O11   C3    1.292598 A    
C47   H4    1.071356 S    
C61   C62   1.414698 A    
C11   N4    1.364467 A    
N15   O42   1.300861 A    
C19   N4    1.369535 A    
N20   O51   1.300722 A    
N27   O66   1.300674 A    
C34   N18   1.432907 S    
C9    O18   1.382834 S    
N7    O26   1.300434 A    
C50   C58   1.380651 A    
C24   C39   1.409354 A    
C15   N27   1.431384 S    
C46   C54   1.380682 A    
C36   N20   1.432898 S    
C25   C42   1.405433 A    
Zn3   N3    2.031368 S    
C67   H15   1.114915 S    
N9    O30   1.300869 A    
N17   O45   1.300921 A    
N24   O59   1.300770 A    
C26   C49   1.384814 A    
C32   C40   1.393014 A    
C31   C60   1.412529 A    
C18   N5    1.428116 S    
C33   C41   1.400327 A    
N18   O48   1.300563 A    
C10   C14   1.418344 A    
C51   H8    1.071403 S    
N15   O41   1.300623 A    
N26   O64   1.300661 A    
N10   O31   1.301156 A    
N25   O62   1.300674 A    
C54   C57   1.414230 A    
C35   C43   1.400387 A    
C22   C45   1.384837 A    
O19   C67   1.408069 S    
N19   O50   1.300582 A    
O3    C3    1.295372 A    
N17   O46   1.300573 A    
C32   C59   1.411384 A    
N11   O33   1.300650 A    
C55   C60   1.414220 A    
O4    Zn1   1.993806 S    
C68   H20   1.107010 S    
N22   O56   1.300562 A    
O16   C8    1.291723 A    
C19   N8    1.428111 S    
C5    C27   1.432061 S    
C12   N3    1.364477 A    
C20   N3    1.369533 A    
O12   C4    1.291729 A    
C20   C64   1.432153 A    
C22   C37   1.409334 A    
O20   C68   1.408078 S    
N6    O24   1.300433 A    
N20   O52   1.300559 A    
Zn4   N4    2.031368 S    
C26   C41   1.409325 A    
C13   N25   1.431387 S    
C30   C38   1.393103 A    
C45   H2    1.071380 S    
C12   C16   1.418351 A    
N14   O40   1.300662 A    
C45   C53   1.376030 A    
C27   C44   1.405449 A    
C52   H7    1.081019 S    
N5    O22   1.300439 A    
C23   C48   1.389501 A    
C28   C43   1.409374 A    
C34   C42   1.393086 A    
C39   N12   1.437572 S    
C11   C15   1.418300 A    
N13   O38   1.300875 A    
Zn2   N2    2.031368 S    
O3    Zn2   1.993805 S    
N27   O65   1.301332 A    
C1    C23   1.432020 S    
C43   N16   1.437593 S    
C29   N21   1.434008 S    
C2    C24   1.438707 S    
C35   N19   1.434018 S    
C34   C53   1.411465 A    
C41   N14   1.437563 S    
N19   O49   1.300909 A    
C53   C58   1.414223 A    
C18   C62   1.432153 A    
O1    Zn1   1.993953 S    
C17   C61   1.432164 A    
C66   H13   1.107054 S    
C48   C56   1.380686 A    
C40   N11   1.435378 S    
C19   C63   1.432164 A    
N12   O36   1.300664 A    
O9    Zn2   2.009756 S    
N10   O32   1.300674 A    
C35   C56   1.412518 A    
C23   C40   1.405515 A    
O9    C1    1.292572 A    
N22   O55   1.300698 A    
C11   O20   1.382836 S    
C65   H9    1.114915 S    
C10   N1    1.364475 A    
C65   H10   1.107070 S    
C18   N1    1.369527 A    
C30   N22   1.432912 S    
C9    N2    1.364477 A    
N16   O44   1.300652 A    
C17   N2    1.369533 A    
C50   H5    1.081017 S    
C47   C55   1.376047 A    
C28   C51   1.384878 A    
N28   O68   1.300661 A    
C49   H6    1.071356 S    
C30   C57   1.411469 A    
C32   N24   1.432747 S    
N6    O23   1.300067 A    
C68   H18   1.114858 S    
N11   O34   1.300848 A    
C20   N7    1.428125 S    
N18   O47   1.300673 A    
O6    Zn4   1.993954 S    
N8    O28   1.300434 A    
O7    Zn4   1.993805 S    
O12   Zn2   2.009686 S    
C25   C50   1.389455 A    
O8    Zn3   1.993806 S    
C38   N9    1.435183 S    
N14   O39   1.301160 A    
C21   C38   1.405418 A    
C4    C22   1.438628 S    
O15   Zn3   2.009685 S    
C21   C46   1.389447 A    
O16   Zn4   2.009686 S    
C65   H11   1.106968 S    
O1    C1    1.295397 A    
C67   H17   1.106956 S    
O2    Zn2   1.993954 S    
C8    C26   1.438631 S    
C42   N13   1.435185 S    
O14   C6    1.291811 A    
C31   N23   1.434025 S    
N9    O29   1.300619 A    
C52   C60   1.380702 A    
N13   O37   1.300618 A    
O13   C5    1.292600 A    
O10   Zn1   2.009758 S    
C36   C44   1.393093 A    
C17   N6    1.428116 S    
O10   C2    1.291739 A    
N8    O27   1.300066 A    
O7    C7    1.295391 A    
O15   C7    1.292588 A    
O8    C8    1.299359 A    
C67   H16   1.107055 S    
C66   H14   1.106964 S    
C16   N28   1.431390 S    
O18   C66   1.408076 S    
N24   O60   1.300556 A    
C27   C52   1.389465 A    
N12   O35   1.301161 A    
C10   O17   1.382841 S    
O4    C4    1.299353 A    
C56   C59   1.414165 A    
C31   C39   1.400355 A    
O11   Zn1   2.009685 S    
N21   O54   1.300572 A    
N25   O61   1.301334 A    
O5    C5    1.295397 A    
C66   H12   1.114914 S    
C36   C55   1.411466 A    
C48   H3    1.081000 S    
N16   O43   1.301166 A    
C24   C47   1.384827 A    
C12   O19   1.382847 S    
C68   H19   1.107072 S    
N28   O67   1.301348 A    
N5    O21   1.300058 A    
C44   N15   1.435212 S    
N26   O63   1.301347 A    
C3    C21   1.432005 S    
C9    C13   1.418324 A    
O5    Zn3   1.993953 S    
C33   C54   1.412526 A    
O6    C6    1.299324 A    
