data_mof_unit_26009.cif
_audit_creation_date              2012-12-11T14:44:23-0500
_audit_creation_method            fapswitch 2.2
_symmetry_space_group_name_H-M    P1
_symmetry_Int_Tables_number       1
_space_group_crystal_system       triclinic
_cell_length_a                    24.942441
_cell_length_b                    16.768009
_cell_length_c                    15.66561
_cell_angle_alpha                 90.143965
_cell_angle_beta                  49.83046
_cell_angle_gamma                 89.885725
_cell_volume                      5006.49668163

loop_
_atom_site_label
_atom_site_type_symbol
_atom_type_description
_atom_site_fract_x
_atom_site_fract_y
_atom_site_fract_z
_atom_type_partial_charge
C1    C     C_R   0.333489 0.108770 0.804204 0.049847
C2    C     C_3   0.787860 0.831345 0.568675 -0.250016
C3    C     C_3   0.729457 0.264781 0.569996 -0.250178
C4    C     C_3   0.211499 0.830740 0.432907 -0.244911
C5    C     C_3   0.772279 0.764935 0.428175 -0.255211
C6    C     C_3   0.288024 0.331823 0.569062 -0.243202
C7    C     C_3   0.229515 0.763786 0.569965 -0.250429
C8    C     C_3   0.710709 0.331343 0.433648 -0.244107
C9    C     C_2   0.698783 0.139629 0.013166 -0.297719
C10   C     C_2   0.372008 0.726272 0.821523 -0.202841
C11   C     C_2   0.300993 0.139183 0.987709 -0.294838
C12   C     C_R   0.648404 0.853400 0.243056 -0.049496
C13   C     C_2   0.643983 0.735532 0.147429 -0.282185
C14   C     C_2   0.198802 0.639596 0.013136 -0.294417
C15   C     C_2   0.871987 0.226283 0.821534 -0.203860
C16   C     C_2   0.802468 0.652363 0.985718 -0.278576
C17   C     C_2   0.126565 0.224154 0.182524 -0.196586
C18   C     C_2   0.752373 0.188861 0.974097 0.375761
C19   C     C_2   0.312370 0.695373 0.852279 0.377018
C20   C     C_2   0.246483 0.187775 0.028451 0.369436
C21   C     C_2   0.684654 0.685851 0.152038 0.381760
C22   C     C_2   0.252398 0.688814 0.974083 0.370316
C23   C     C_R   0.666387 0.108483 0.196117 0.047114
C24   C     C_2   0.812344 0.195396 0.852294 0.373529
C25   C     C_2   0.733819 0.633183 0.054926 0.377227
C26   C     C_2   0.186668 0.193426 0.150578 0.375843
C27   C     C_R   0.585656 0.149389 0.593980 -0.171908
C28   C     C_R   0.385611 0.892339 0.407151 -0.201750
C29   C     C_R   0.414624 0.149747 0.406793 -0.171430
C30   C     C_R   0.614929 0.893356 0.592368 -0.208930
C31   C     C_R   0.085666 0.649454 0.593845 -0.180402
C32   C     C_R   0.885006 0.393642 0.407516 -0.208801
C33   C     C_R   0.914722 0.649693 0.406632 -0.172355
C34   C     C_R   0.358158 0.848696 0.742749 -0.066563
C35   C     C_R   0.114951 0.393662 0.592487 -0.208764
C36   C     C_R   0.661355 0.148499 0.408225 0.529270
C37   C     C_R   0.310231 0.895627 0.592390 0.513270
C38   C     C_R   0.338778 0.148984 0.592442 0.528193
C39   C     C_R   0.689996 0.895617 0.407246 0.526322
C40   C     C_R   0.161238 0.648547 0.408128 0.529266
C41   C     C_R   0.810005 0.396320 0.592551 0.512651
C42   C     C_R   0.838576 0.648890 0.592254 0.519244
C43   C     C_R   0.190110 0.396159 0.407480 0.513390
C44   C     C_R   0.578129 0.105178 0.195380 -0.186830
C45   C     C_R   0.833235 0.609600 0.803862 -0.001911
C46   C     C_R   0.446451 0.852023 0.745366 -0.143191
C47   C     C_R   0.421815 0.105435 0.804761 -0.189490
C48   C     C_R   0.559629 0.855898 0.241133 -0.157045
C49   C     C_R   0.078139 0.605152 0.195360 -0.188683
C50   C     C_R   0.946458 0.352012 0.745338 -0.135933
C51   C     C_R   0.921669 0.607888 0.804164 -0.162532
C52   C     C_R   0.053310 0.351504 0.255567 -0.142340
C53   C     C_R   0.352284 0.126203 0.867444 0.192710
C54   C     C_R   0.616725 0.810623 0.210978 0.179629
C55   C     C_R   0.647519 0.125902 0.133055 0.194244
C56   C     C_R   0.141531 0.348070 0.258256 -0.066111
C57   C     C_R   0.393872 0.803932 0.766275 0.112817
C58   C     C_R   0.851312 0.627088 0.868056 0.148985
C59   C     C_R   0.105594 0.303018 0.235498 0.105962
C60   C     C_R   0.147532 0.625862 0.133025 0.191965
C61   C     C_R   0.893877 0.303924 0.766238 0.102903
C62   C     C_R   0.635207 0.194645 0.501768 -0.094266
C63   C     C_R   0.317773 0.876326 0.499660 -0.065904
C64   C     C_R   0.365153 0.195368 0.499404 -0.094704
C65   C     C_R   0.682793 0.877160 0.499747 -0.067703
C66   C     C_R   0.135117 0.694735 0.501591 -0.095100
C67   C     C_R   0.166395 0.608443 0.196091 0.050582
C68   C     C_R   0.817141 0.377890 0.500010 -0.065246
C69   C     C_R   0.865145 0.695242 0.499111 -0.095667
C70   C     C_R   0.182919 0.377809 0.500020 -0.063293
C71   C     C_3   0.340506 0.297393 0.396605 0.605299
C72   C     C_3   0.719452 0.799100 0.600510 0.621887
C73   C     C_3   0.660208 0.296319 0.604755 0.607074
C74   C     C_3   0.280679 0.798492 0.398810 0.621198
C75   C     C_3   0.840513 0.797113 0.396084 0.604755
C76   C     C_3   0.219507 0.299778 0.601081 0.621285
C77   C     C_3   0.160545 0.796001 0.604313 0.606085
C78   C     C_R   0.858168 0.348691 0.742703 -0.038231
C79   C     C_3   0.780176 0.299774 0.399136 0.621604
C80   C     C_3   0.804044 0.873854 0.465436 -0.321848
C81   C     C_3   0.255211 0.224111 0.531558 -0.312998
C82   C     C_3   0.195910 0.872896 0.536197 -0.326349
C83   C     C_3   0.745940 0.223750 0.467219 -0.316094
C84   C     C_3   0.304227 0.374253 0.465743 -0.323915
C85   C     C_3   0.755335 0.723564 0.530760 -0.307950
C86   C     C_3   0.694988 0.373502 0.537056 -0.327662
C87   C     C_3   0.245863 0.722743 0.467300 -0.312417
C88   C     C_3   0.734999 0.840398 0.500191 -0.003295
C89   C     C_3   0.272180 0.265388 0.428885 -0.250809
C90   C     C_3   0.324666 0.256107 0.497305 -0.004867
C91   C     C_3   0.265695 0.839438 0.499184 -0.003609
C92   C     C_3   0.675568 0.255287 0.503992 -0.003867
C93   C     C_3   0.235081 0.340992 0.500660 -0.004902
C94   C     C_3   0.824680 0.755757 0.496722 -0.000182
C95   C     C_3   0.765069 0.340739 0.499619 -0.003033
C96   C     C_3   0.175763 0.754976 0.503666 -0.003363
H1    H     H_    0.280159 0.099636 0.837752 0.178482
H2    H     H_    0.407221 0.894310 0.321281 0.173178
H3    H     H_    0.442977 0.164325 0.320207 0.177111
H4    H     H_    0.593574 0.896290 0.678090 0.175271
H5    H     H_    0.057653 0.664001 0.680482 0.174253
H6    H     H_    0.906347 0.396246 0.321809 0.174944
H7    H     H_    0.943115 0.664207 0.320015 0.176821
H8    H     H_    0.093473 0.396580 0.678273 0.175656
H9    H     H_    0.550490 0.097946 0.163955 0.126734
H10   H     H_    0.483579 0.835615 0.756265 0.121071
H11   H     H_    0.449517 0.098066 0.836063 0.127051
H12   H     H_    0.695766 0.838659 0.228653 0.192539
H13   H     H_    0.523911 0.840326 0.226954 0.121989
H14   H     H_    0.050505 0.597911 0.163928 0.127622
H15   H     H_    0.983594 0.335594 0.756217 0.120419
H16   H     H_    0.950045 0.604031 0.834665 0.125219
H17   H     H_    0.016019 0.334896 0.245176 0.121017
H18   H     H_    0.823312 0.935681 0.437077 0.164265
H19   H     H_    0.234399 0.162692 0.560013 0.170671
H20   H     H_    0.176155 0.934664 0.565943 0.165018
H21   H     H_    0.767480 0.162485 0.437181 0.171052
H22   H     H_    0.323652 0.436010 0.437175 0.164989
H23   H     H_    0.719765 0.099361 0.162565 0.176844
H24   H     H_    0.734664 0.662072 0.558976 0.171673
H25   H     H_    0.674797 0.435099 0.567180 0.164886
H26   H     H_    0.266990 0.661298 0.437640 0.171100
H27   H     H_    0.266026 0.238907 0.370594 0.170066
H28   H     H_    0.794453 0.857443 0.626576 0.150827
H29   H     H_    0.736795 0.238258 0.626761 0.170129
H30   H     H_    0.203904 0.857061 0.376407 0.157839
H31   H     H_    0.766200 0.738488 0.369782 0.171310
H32   H     H_    0.294698 0.357955 0.626851 0.157846
H33   H     H_    0.236599 0.737141 0.626974 0.170219
H34   H     H_    0.313078 0.831797 0.751887 0.186186
H35   H     H_    0.702846 0.357472 0.377379 0.158293
H36   H     H_    0.385835 0.716232 0.873811 0.116023
H37   H     H_    0.695079 0.105176 0.958419 0.116461
H38   H     H_    0.638734 0.726575 0.084362 0.127064
H39   H     H_    0.305528 0.104671 0.041322 0.117549
H40   H     H_    0.885797 0.216263 0.873849 0.116530
H41   H     H_    0.195093 0.605165 0.958381 0.118120
H42   H     H_    0.112211 0.213255 0.131069 0.114619
H43   H     H_    0.821518 0.696211 0.011724 0.127093
H44   H     H_    0.732697 0.219397 0.293126 0.340418
H45   H     H_    0.780529 0.605166 0.833848 0.217679
H46   H     H_    0.209281 0.890582 0.703937 0.335938
H47   H     H_    0.267277 0.220388 0.708173 0.339511
H48   H     H_    0.791006 0.891020 0.295792 0.335465
H49   H     H_    0.232504 0.719407 0.292853 0.339583
H50   H     H_    0.709049 0.391947 0.704364 0.336095
H51   H     H_    0.766100 0.719646 0.707686 0.327737
H52   H     H_    0.291112 0.391657 0.296050 0.335745
H53   H     H_    0.438674 0.321480 0.292748 0.314982
H54   H     H_    0.624664 0.762527 0.710280 0.310338
H55   H     H_    0.561821 0.319966 0.711083 0.313978
H56   H     H_    0.186325 0.330744 0.249869 0.185111
H57   H     H_    0.375679 0.762199 0.286905 0.310208
H58   H     H_    0.938641 0.821420 0.292443 0.313665
H59   H     H_    0.124683 0.263394 0.711127 0.309932
H60   H     H_    0.062283 0.820398 0.710187 0.310498
H61   H     H_    0.875329 0.264143 0.286668 0.309726
H62   H     H_    0.253532 0.684800 0.811669 0.311076
H63   H     H_    0.780087 0.282665 0.012064 0.321914
H64   H     H_    0.721258 0.651495 0.223604 0.316031
H65   H     H_    0.216823 0.281280 0.993200 0.316356
H66   H     H_    0.753504 0.184813 0.811689 0.311957
H67   H     H_    0.219773 0.599288 0.162523 0.178459
H68   H     H_    0.280184 0.782534 0.012080 0.315931
H69   H     H_    0.246211 0.183486 0.189953 0.310869
H70   H     H_    0.657685 0.569112 0.089379 0.323514
H71   H     H_    0.813108 0.331795 0.751776 0.183394
H72   H     H_    0.557360 0.163944 0.680728 0.176431
N1    N     N_R   0.389620 0.081040 0.705440 -0.076809
N2    N     N_R   0.417680 0.920160 0.443370 -0.069218
N3    N     N_R   0.417680 0.079840 0.443370 -0.075454
N4    N     N_R   0.582320 0.920160 0.556630 -0.069605
N5    N     N_R   0.082320 0.579840 0.556630 -0.075487
N6    N     N_R   0.917680 0.420160 0.443370 -0.071103
N7    N     N_R   0.917680 0.579840 0.443370 -0.075337
N8    N     N_R   0.082320 0.420160 0.556630 -0.071313
N9    N     N_R   0.627920 0.078930 0.443400 -0.075020
N10   N     N_R   0.372080 0.921070 0.556600 -0.074945
N11   N     N_R   0.372080 0.078930 0.556600 -0.074492
N12   N     N_R   0.610380 0.918960 0.294560 -0.067020
N13   N     N_R   0.627920 0.921070 0.443400 -0.073978
N14   N     N_R   0.127920 0.578930 0.443400 -0.074319
N15   N     N_R   0.872080 0.421070 0.556600 -0.076943
N16   N     N_R   0.872080 0.578930 0.556600 -0.071831
N17   N     N_R   0.127920 0.421070 0.443400 -0.075650
N18   N     N_R   0.555090 0.077730 0.294590 -0.057179
N19   N     N_R   0.444910 0.922270 0.705410 -0.047978
N20   N     N_R   0.444910 0.077730 0.705410 -0.057274
N21   N     N_R   0.555090 0.922270 0.294590 -0.050398
N22   N     N_R   0.055090 0.577730 0.294590 -0.058251
N23   N     N_R   0.610380 0.081040 0.294560 -0.076156
N24   N     N_R   0.944910 0.422270 0.705410 -0.046146
N25   N     N_R   0.944910 0.577730 0.705410 -0.056442
N26   N     N_R   0.055090 0.422270 0.294590 -0.048167
N27   N     N_R   0.389620 0.918960 0.705440 -0.060688
N28   N     N_R   0.889620 0.581040 0.705440 -0.071142
N29   N     N_R   0.110380 0.418960 0.294560 -0.060405
N30   N     N_R   0.110380 0.581040 0.294560 -0.077206
N31   N     N_R   0.889620 0.418960 0.705440 -0.053695
N32   N     N_R   0.582320 0.079840 0.556630 -0.075352
Ni1   Ni    Ni4+2 0.382970 0.000000 0.629840 0.276686
Ni2   Ni    Ni4+2 0.617030 1.000000 0.370160 0.274219
Ni3   Ni    Ni4+2 0.882970 0.500000 0.629840 0.294346
Ni4   Ni    Ni4+2 0.117030 0.500000 0.370160 0.274312
Ni5   Ni    Ni4+2 0.514540 0.000000 0.629840 0.201820
Ni6   Ni    Ni4+2 0.485460 1.000000 0.370160 0.201627
Ni7   Ni    Ni4+2 0.014540 0.500000 0.629840 0.206218
Ni8   Ni    Ni4+2 0.985460 0.500000 0.370160 0.199642
O1    O     O_3   0.720211 0.162570 0.299591 -0.758687
O2    O     O_3   0.655548 0.799849 0.710021 -0.759109
O3    O     O_3   0.596343 0.294131 0.714112 -0.753681
O4    O     O_3   0.344112 0.799664 0.288823 -0.755464
O5    O     O_3   0.905015 0.795694 0.287395 -0.754381
O6    O     O_3   0.155642 0.300753 0.710632 -0.755132
O7    O     O_3   0.096575 0.794343 0.713585 -0.756859
O8    O     O_3   0.843496 0.301458 0.289053 -0.754580
O9    O     O_3   0.304137 0.688063 0.773219 -0.750706
O10   O     O_3   0.749599 0.235509 0.050378 -0.737747
O11   O     O_3   0.687793 0.692339 0.236728 -0.757697
O12   O     O_3   0.248898 0.905677 0.700652 -0.768526
O13   O     O_3   0.248078 0.234480 0.953632 -0.741558
O14   O     O_3   0.804111 0.188075 0.773235 -0.752393
O15   O     O_3   0.249624 0.735431 0.050391 -0.741757
O16   O     O_3   0.195496 0.186483 0.228942 -0.750313
O17   O     O_3   0.709187 0.572656 0.028419 -0.746168
O18   O     O_3   0.279710 0.163378 0.701096 -0.757974
O19   O     O_3   0.751232 0.905591 0.299115 -0.771645
O20   O     O_3   0.220176 0.662503 0.299518 -0.758293
O21   O     O_3   0.748837 0.406303 0.700987 -0.758775
O22   O     O_3   0.778312 0.662515 0.700072 -0.777395
O23   O     O_3   0.251330 0.405941 0.299263 -0.767759
O24   O     O_3   0.404959 0.295811 0.287860 -0.753485

loop_
_geom_bond_atom_site_label_1
_geom_bond_atom_site_label_2
_ccdc_geom_bond_type
C34   N27   A    
C31   C66   A    
C45   H45   S    
C40   O20   S    
N32   Ni5   S    
N25   Ni7   S    
H59   O6    S    
C13   H38   S    
N13   Ni2   S    
C44   C55   A    
C64   C90   S    
C67   N30   A    
H57   O4    S    
C23   N23   A    
C72   C85   S    
N20   Ni5   S    
N8    N17   A    
C44   H9    S    
C33   N7    A    
C48   C54   A    
C83   C92   S    
C71   C90   S    
C77   O7    S    
C78   H71   S    
C51   H16   S    
C49   C60   A    
H55   O3    S    
N2    N10   A    
C18   C24   S    
C35   N8    A    
C31   H5    S    
N8    Ni7   S    
N4    Ni5   S    
C52   C59   A    
C10   C19   D    
N2    Ni6   S    
N12   Ni2   S    
N12   N21   A    
H70   O17   S    
C23   H23   S    
H51   O22   S    
C43   O23   S    
N26   N29   A    
C43   N17   A    
C5    H31   S    
C30   H4    S    
N29   Ni4   S    
N24   N31   A    
C51   C58   A    
N18   N23   A    
C1    C53   A    
C8    C92   S    
C72   C88   S    
C4    C96   S    
C5    C88   S    
N4    N13   A    
C7    C87   S    
H66   O14   S    
C60   C67   A    
N9    N32   A    
C62   C92   S    
C34   C57   A    
C71   O24   S    
H48   O19   S    
C17   H42   S    
C19   O9    S    
N23   Ni2   S    
C46   N19   A    
C56   H56   S    
C50   N24   A    
C75   C80   S    
N21   Ni6   S    
C39   O19   S    
C11   C53   S    
C33   C69   A    
C36   O1    S    
C38   O18   S    
C5    C85   S    
N25   N28   A    
C45   N28   A    
C75   C94   S    
C48   H13   S    
C29   C64   A    
C81   C89   S    
N16   Ni3   S    
C40   C66   A    
C13   C54   S    
N6    Ni8   S    
C39   C65   A    
N3    N11   A    
N7    Ni8   S    
N31   Ni3   S    
H58   O5    S    
C2    C72   S    
C37   C63   A    
H44   O1    S    
C41   C68   A    
C38   C64   A    
C11   C20   D    
H49   O20   S    
C72   O2    S    
C45   C58   A    
C68   C95   S    
C6    C84   S    
N18   Ni6   S    
N11   Ni1   S    
C2    C94   S    
C70   C93   S    
C52   N26   A    
C35   C70   A    
C69   C94   S    
C51   N25   A    
C8    H35   S    
C1    H1    S    
C12   H12   S    
C29   H3    S    
C49   N22   A    
C89   H27   S    
N1    Ni1   S    
C42   N16   A    
C6    C90   S    
C32   N6    A    
C75   O5    S    
C42   C69   A    
C82   C91   S    
C74   O4    S    
C36   C62   A    
C74   C91   S    
C5    C75   S    
C85   H24   S    
C79   C95   S    
C10   C57   S    
C37   N10   A    
C27   C62   A    
C11   H39   S    
C76   C93   S    
C8    C79   S    
C85   C94   S    
C71   C89   S    
C14   H41   S    
C61   C78   A    
C20   O13   S    
H63   O10   S    
C7    C91   S    
C87   C96   S    
C81   H19   S    
C86   H25   S    
N27   Ni1   S    
C15   C61   S    
C13   C21   D    
N5    Ni7   S    
H52   O23   S    
C16   C58   S    
C46   H10   S    
C29   N3    A    
N3    Ni6   S    
C6    C76   S    
C73   C92   S    
C4    C82   S    
C30   N4    A    
C48   N21   A    
C39   N13   A    
C17   C59   S    
C9    C55   S    
C81   C90   S    
C42   O22   S    
N22   Ni8   S    
C79   O8    S    
C12   N12   A    
C80   H18   S    
N5    N14   A    
C35   H8    S    
C43   C70   A    
C24   O14   S    
C46   C57   A    
N30   Ni4   S    
C7    C77   S    
C74   C87   S    
N24   Ni7   S    
C32   H6    S    
C16   H43   S    
C78   N31   A    
C17   C26   D    
H47   O18   S    
C63   C91   S    
C18   O10   S    
C76   O6    S    
H54   O2    S    
N14   Ni4   S    
N26   Ni8   S    
N22   N30   A    
C65   C88   S    
C66   C96   S    
C56   N29   A    
C31   N5    A    
C28   H2    S    
C16   C25   D    
C21   C25   S    
C15   C24   D    
H61   O8    S    
C71   C84   S    
N19   N27   A    
C33   H7    S    
H53   O24   S    
C4    C74   S    
C73   O3    S    
C49   H14   S    
C27   N32   A    
N1    N20   A    
C41   O21   S    
C76   C81   S    
C87   H26   S    
N19   Ni5   S    
C3    H29   S    
C40   N14   A    
C23   C55   A    
C15   H40   S    
C2    H28   S    
C14   C60   S    
C22   O15   S    
H46   O12   S    
C77   C96   S    
C47   H11   S    
C56   C59   A    
C47   C53   A    
C4    H30   S    
N28   Ni3   S    
C83   H21   S    
C26   O16   S    
C6    H32   S    
C80   C88   S    
C32   C68   A    
C79   C83   S    
H68   O15   S    
C14   C22   D    
N9    Ni2   S    
H60   O7    S    
C20   C26   S    
C77   C82   S    
H62   O9    S    
C52   H17   S    
C38   N11   A    
C1    N1    A    
C50   H15   S    
H69   O16   S    
C8    C86   S    
C84   C93   S    
C89   C93   S    
C3    C73   S    
C10   H36   S    
C73   C86   S    
C7    H33   S    
C30   C65   A    
C2    C80   S    
C86   C95   S    
C36   N9    A    
C82   H20   S    
H64   O11   S    
C28   C63   A    
C67   H67   S    
C9    C18   D    
C3    C83   S    
C34   H34   S    
C84   H22   S    
C19   C22   S    
C21   O11   S    
N10   Ni1   S    
N17   Ni4   S    
C50   C61   A    
H65   O13   S    
C41   N15   A    
C3    C95   S    
N15   Ni3   S    
C37   O12   S    
C47   N20   A    
N6    N15   A    
C12   C54   A    
C28   N2    A    
C27   H72   S    
C44   N18   A    
N7    N16   A    
C25   O17   S    
H50   O21   S    
C9    H37   S    
