data_mof_unit_63310.cif
_audit_creation_date              2013-03-05T15:40:41-0500
_audit_creation_method            fapswitch 2.2
_symmetry_space_group_name_H-M    P1
_symmetry_Int_Tables_number       1
_space_group_crystal_system       triclinic
_cell_length_a                    19.560809
_cell_length_b                    11.355952
_cell_length_c                    18.735903
_cell_angle_alpha                 88.845175
_cell_angle_beta                  89.157015
_cell_angle_gamma                 89.787807
_cell_volume                      4160.5164155

loop_
_atom_site_label
_atom_site_type_symbol
_atom_site_description
_atom_site_fract_x
_atom_site_fract_y
_atom_site_fract_z
_atom_type_partial_charge
O1    O     O_R   0.043230 0.549300 0.667990 -0.508846
O2    O     O_R   0.956770 0.549300 0.332010 -0.552059
O3    O     O_R   0.543230 0.049300 0.667990 -0.483507
O4    O     O_R   0.456770 0.049300 0.332010 -0.548550
O5    O     O_R   0.178620 0.457600 0.674100 -0.490269
O6    O     O_R   0.821380 0.457600 0.325900 -0.575590
O7    O     O_R   0.678620 0.957600 0.674100 -0.536183
O8    O     O_R   0.321380 0.957600 0.325900 -0.566909
C1    C     C_R   0.222858 0.529457 0.643107 0.536015
C2    C     C_R   0.771690 0.506726 0.362799 0.528730
C3    C     C_R   0.725042 0.024502 0.639744 0.512957
C4    C     C_R   0.270582 0.007291 0.362289 0.530680
O9    O     O_R   0.284680 0.542100 0.669460 -0.545304
O10   O     O_R   0.715320 0.542100 0.330540 -0.455071
O11   O     O_R   0.784680 0.042100 0.669460 -0.511428
O12   O     O_R   0.215320 0.042100 0.330540 -0.476235
O13   O     O_R   0.262860 0.790390 0.676650 -0.467317
O14   O     O_R   0.737140 0.790390 0.323350 -0.467738
O15   O     O_R   0.762860 0.290390 0.676650 -0.477439
O16   O     O_R   0.237140 0.290390 0.323350 -0.482155
C5    C     C_R   0.232926 0.888690 0.660556 0.602777
C6    C     C_R   0.769440 0.881070 0.345302 0.549673
C7    C     C_R   0.729707 0.386249 0.655637 0.560339
C8    C     C_R   0.270968 0.382469 0.345990 0.540375
O17   O     O_R   0.167460 0.907030 0.670940 -0.478628
O18   O     O_R   0.832540 0.907030 0.329060 -0.550732
O19   O     O_R   0.667460 0.407030 0.670940 -0.527401
O20   O     O_R   0.332540 0.407030 0.329060 -0.491782
O21   O     O_R   0.053950 0.750220 0.675100 -0.436397
O22   O     O_R   0.946050 0.750220 0.324900 -0.493094
O23   O     O_R   0.553950 0.250220 0.675100 -0.459038
O24   O     O_R   0.446050 0.250220 0.324900 -0.535462
C9    C     C_R   0.052942 0.648317 0.637715 0.625590
C10   C     C_R   0.973223 0.651843 0.351164 0.544478
C11   C     C_R   0.552066 0.149756 0.636223 0.579033
C12   C     C_R   0.476105 0.152637 0.349025 0.532596
O25   O     O_R   0.043300 0.547370 0.827390 -0.490963
O26   O     O_R   0.956700 0.547370 0.172610 -0.478173
O27   O     O_R   0.543300 0.047370 0.827390 -0.481500
O28   O     O_R   0.456700 0.047370 0.172610 -0.486404
O29   O     O_R   0.178690 0.455820 0.821860 -0.466175
O30   O     O_R   0.821310 0.455820 0.178140 -0.460383
O31   O     O_R   0.678690 0.955820 0.821860 -0.456389
O32   O     O_R   0.321310 0.955820 0.178140 -0.461284
C13   C     C_R   0.239200 0.462871 0.849038 0.549116
C14   C     C_R   0.760569 0.463983 0.151431 0.539173
C15   C     C_R   0.739204 0.962854 0.849023 0.549793
C16   C     C_R   0.260616 0.963947 0.151428 0.549393
O33   O     O_R   0.284750 0.540170 0.828860 -0.468315
O34   O     O_R   0.715250 0.540170 0.171140 -0.479254
O35   O     O_R   0.784750 0.040170 0.828860 -0.481179
O36   O     O_R   0.215250 0.040170 0.171140 -0.476315
O37   O     O_R   0.262920 0.788600 0.824420 -0.487682
O38   O     O_R   0.737080 0.788600 0.175580 -0.468706
O39   O     O_R   0.762920 0.288600 0.824420 -0.483280
O40   O     O_R   0.237080 0.288600 0.175580 -0.470959
C17   C     C_R   0.224655 0.869685 0.854345 0.527566
C18   C     C_R   0.775496 0.870246 0.145134 0.537685
C19   C     C_R   0.724715 0.369836 0.854250 0.547218
C20   C     C_R   0.275499 0.370257 0.145144 0.543508
O41   O     O_R   0.167530 0.905110 0.830340 -0.502276
O42   O     O_R   0.832470 0.905110 0.169660 -0.500936
O43   O     O_R   0.667530 0.405110 0.830340 -0.487153
O44   O     O_R   0.332470 0.405110 0.169660 -0.498461
O45   O     O_R   0.054010 0.748440 0.822860 -0.489704
O46   O     O_R   0.945990 0.748440 0.177140 -0.496876
O47   O     O_R   0.554010 0.248440 0.822860 -0.485962
O48   O     O_R   0.445990 0.248440 0.177140 -0.503716
C21   C     C_R   0.031758 0.650376 0.851656 0.580038
C22   C     C_R   0.971297 0.652513 0.150416 0.570004
C23   C     C_R   0.531798 0.150366 0.851688 0.573030
C24   C     C_R   0.471283 0.152538 0.150408 0.578062
Cr1   Cr    Cr6+3 0.113970 0.508630 0.747920 1.078351
Cr2   Cr    Cr6+3 0.886030 0.508630 0.252080 1.042148
Cr3   Cr    Cr6+3 0.613970 0.008630 0.747920 1.089083
Cr4   Cr    Cr6+3 0.386030 0.008630 0.252080 1.021314
Cr5   Cr    Cr6+3 0.269200 0.666740 0.749850 1.095395
Cr6   Cr    Cr6+3 0.730800 0.666740 0.250150 1.139896
Cr7   Cr    Cr6+3 0.769200 0.166740 0.749850 1.080196
Cr8   Cr    Cr6+3 0.230800 0.166740 0.250150 1.117136
Cr9   Cr    Cr6+3 0.112300 0.820070 0.749800 1.060723
Cr10  Cr    Cr6+3 0.887700 0.820070 0.250200 1.020427
Cr11  Cr    Cr6+3 0.612300 0.320070 0.749800 1.059760
Cr12  Cr    Cr6+3 0.387700 0.320070 0.250200 1.019515
O49   O     O_3   0.165160 0.665150 0.749190 -0.331330
O50   O     O_3   0.834840 0.665150 0.250810 -0.300485
O51   O     O_3   0.665160 0.165150 0.749190 -0.334532
O52   O     O_3   0.334840 0.165150 0.250810 -0.295285
C25   C     C_2   0.269686 0.967846 0.608951 0.306824
C26   C     C_2   0.731412 0.950973 0.398292 0.320833
C27   C     C_2   0.756792 0.473769 0.602646 0.312785
C28   C     C_2   0.247565 0.452126 0.406973 0.327389
C29   C     C_2   0.258693 0.969543 0.437408 0.069719
C30   C     C_2   0.730654 0.016591 0.561440 0.016376
C31   C     C_2   0.766180 0.463256 0.438435 0.056565
C32   C     C_2   0.217929 0.528768 0.566824 0.029112
C33   C     C_2   0.310879 0.977770 0.483033 -0.099325
C34   C     C_2   0.688636 0.946618 0.525733 -0.180038
C35   C     C_2   0.816182 0.488032 0.486067 -0.143164
C36   C     C_2   0.229198 0.425781 0.535971 -0.116441
C37   C     C_2   0.307592 0.921082 0.554239 0.090907
C38   C     C_2   0.707834 0.892909 0.457669 0.044049
C39   C     C_2   0.812489 0.452147 0.563621 0.043377
C40   C     C_2   0.217600 0.394500 0.462378 0.063321
H1    H     H_    0.361357 0.000831 0.462188 0.085776
H2    H     H_    0.649789 0.899238 0.556215 0.110865
H3    H     H_    0.860802 0.537582 0.467962 0.101634
H4    H     H_    0.244340 0.352779 0.570539 0.158068
C41   C     C_R   0.020174 0.651378 0.413082 0.026019
C42   C     C_R   0.032458 0.637675 0.561907 0.068863
C43   C     C_R   0.530760 0.152055 0.405473 0.025256
C44   C     C_R   0.536705 0.144124 0.555903 0.035461
C45   C     C_R   0.014865 0.861740 0.416218 0.247049
C46   C     C_R   0.968860 0.823181 0.558206 0.196341
C47   C     C_R   0.541546 0.362395 0.404051 0.235884
C48   C     C_R   0.473925 0.324485 0.534870 0.184269
C49   C     C_R   0.971274 0.946240 0.448938 0.320724
C50   C     C_R   0.952949 0.930314 0.522686 0.290719
C51   C     C_R   0.486885 0.436334 0.421399 0.362752
C52   C     C_R   0.451033 0.413464 0.485404 0.275110
C53   C     C_R   0.011601 0.741022 0.525313 -0.046835
C54   C     C_R   0.022439 0.752654 0.451686 -0.074153
C55   C     C_R   0.526744 0.248854 0.514845 -0.081213
C56   C     C_R   0.545244 0.253877 0.441759 -0.044636
C57   C     C_R   0.041172 0.528717 0.521573 -0.094284
C58   C     C_R   0.040065 0.542877 0.445401 -0.057725
C59   C     C_R   0.535381 0.034890 0.515723 -0.111526
C60   C     C_R   0.546069 0.043744 0.439894 -0.047630
C61   C     C_R   0.044954 0.404795 0.548024 0.044387
C62   C     C_R   0.050213 0.443626 0.402754 0.070715
C63   C     C_R   0.517283 0.919134 0.543608 -0.015819
C64   C     C_R   0.556807 0.941290 0.398720 0.030586
C65   C     C_R   0.028351 0.313170 0.501305 0.306292
C66   C     C_R   0.022316 0.340373 0.429958 0.315157
C67   C     C_R   0.519386 0.820659 0.499243 0.261772
C68   C     C_R   0.532848 0.834459 0.426896 0.318500
C69   C     C_2   0.236978 0.905728 0.927925 -0.073059
C70   C     C_2   0.762977 0.905866 0.070388 -0.085546
C71   C     C_2   0.737084 0.406174 0.927721 -0.074043
C72   C     C_2   0.262975 0.405955 0.070428 -0.083192
C73   C     C_2   0.244827 0.892433 0.089073 0.007949
C74   C     C_2   0.755223 0.885556 0.911017 0.006053
C75   C     C_2   0.744640 0.392946 0.088937 0.005315
C76   C     C_2   0.255196 0.385639 0.911077 0.004409
C77   C     C_2   0.186384 0.916598 0.053448 0.008372
C78   C     C_2   0.814483 0.904551 0.945131 0.005527
C79   C     C_2   0.686439 0.418243 0.053045 0.011461
C80   C     C_2   0.314454 0.404647 0.945217 0.002452
C81   C     C_2   0.182790 0.924310 0.973994 0.035771
C82   C     C_2   0.816868 0.925163 0.023928 0.028467
C83   C     C_2   0.682879 0.425156 0.973658 0.032868
C84   C     C_2   0.316867 0.425410 0.024000 0.028573
H5    H     H_    0.289069 0.898317 0.945402 0.127985
H6    H     H_    0.711755 0.890861 0.052347 0.115496
H7    H     H_    0.789161 0.398821 0.945275 0.128343
H8    H     H_    0.211785 0.390757 0.052360 0.117101
C85   C     C_2   0.008966 0.650193 0.925647 -0.046675
C86   C     C_2   0.010992 0.662369 0.084451 -0.073443
C87   C     C_2   0.509078 0.150178 0.925709 -0.049516
C88   C     C_2   0.510836 0.162555 0.084369 -0.073669
C89   C     C_2   0.023441 0.566787 0.046067 -0.147676
C90   C     C_2   0.041567 0.576562 0.970947 -0.132669
C91   C     C_2   0.523816 0.066952 0.046195 -0.150629
C92   C     C_2   0.541741 0.076589 0.970997 -0.130313
H9    H     H_    0.016233 0.478466 0.068183 0.193733
H10   H     H_    0.080015 0.515534 0.951619 0.197436
H11   H     H_    0.517259 0.978660 0.068584 0.190134
H12   H     H_    0.580176 0.015586 0.951624 0.197322
H13   H     H_    0.022925 0.748424 0.062391 0.205686
H14   H     H_    0.970057 0.711520 0.943802 0.166067
H15   H     H_    0.522100 0.248697 0.062033 0.207851
H16   H     H_    0.470195 0.211528 0.943889 0.165059
C93   C     C_2   0.114397 0.958517 0.946853 0.666038
O53   O     O_2   0.106109 0.053933 0.916839 -0.454546
O54   O     O_R   0.060478 0.880183 0.954467 -0.716521
H17   H     H_    0.018741 0.909106 0.928272 0.377486
C94   C     C_2   0.882444 0.971967 0.050203 0.673672
O55   O     O_2   0.883717 0.066205 0.080471 -0.462154
O56   O     O_R   0.941992 0.906559 0.042161 -0.710444
H18   H     H_    0.982204 0.946430 0.064589 0.371409
C95   C     C_2   0.614417 0.459068 0.946461 0.664642
O57   O     O_2   0.605994 0.554437 0.916432 -0.443783
O58   O     O_R   0.560626 0.380460 0.954046 -0.716363
H19   H     H_    0.518868 0.409149 0.927792 0.378192
C96   C     C_2   0.382380 0.472733 0.050263 0.670732
O59   O     O_2   0.383351 0.566566 0.080996 -0.466385
O60   O     O_R   0.442255 0.408403 0.041557 -0.711869
H20   H     H_    0.482507 0.449125 0.063383 0.369559
C97   C     C_2   0.296855 0.807855 0.062468 0.551212
O61   O     O_2   0.278518 0.717001 0.034578 -0.503520
O62   O     O_R   0.366449 0.834616 0.066423 -0.657159
H21   H     H_    0.396677 0.776909 0.040021 0.377229
C98   C     C_2   0.704432 0.797296 0.937733 0.550349
O63   O     O_2   0.723883 0.708326 0.969391 -0.501210
O64   O     O_R   0.634562 0.817481 0.928724 -0.671752
H22   H     H_    0.604964 0.760206 0.957310 0.384116
C99   C     C_2   0.796461 0.307983 0.062375 0.549359
O65   O     O_2   0.777928 0.217095 0.034665 -0.506008
O66   O     O_R   0.866105 0.334435 0.066179 -0.654159
H23   H     H_    0.896191 0.276581 0.039729 0.377700
C100  C     C_2   0.204414 0.297309 0.937725 0.547341
O67   O     O_2   0.223863 0.208355 0.969402 -0.502720
O68   O     O_R   0.134549 0.317384 0.928587 -0.677777
H24   H     H_    0.104931 0.260024 0.957083 0.383483
C101  C     C_2   0.344687 0.807162 0.557260 0.565720
O69   O     O_2   0.359006 0.757464 0.501688 -0.495051
O70   O     O_R   0.369746 0.763465 0.622011 -0.664403
H25   H     H_    0.406694 0.702676 0.618061 0.353320
C102  C     C_2   0.710421 0.764955 0.462512 0.535884
O71   O     O_2   0.761938 0.716885 0.484368 -0.545901
O72   O     O_R   0.656311 0.701045 0.435890 -0.659799
H26   H     H_    0.662566 0.613854 0.441949 0.390599
C103  C     C_2   0.873558 0.424319 0.605064 0.540663
O73   O     O_2   0.910371 0.343087 0.588107 -0.471448
O74   O     O_R   0.884435 0.484888 0.668267 -0.709428
H27   H     H_    0.921615 0.449823 0.698869 0.393625
C104  C     C_2   0.194458 0.274167 0.454349 0.497317
O75   O     O_2   0.225393 0.193682 0.482840 -0.522805
O76   O     O_R   0.142618 0.253260 0.406890 -0.704570
H28   H     H_    0.140198 0.171740 0.388975 0.393222
C105  C     C_2   0.186082 0.953212 0.462467 0.568863
O77   O     O_2   0.169792 0.929099 0.523557 -0.486804
O78   O     O_R   0.134559 0.976311 0.415748 -0.690360
H29   H     H_    0.095629 0.019973 0.438232 0.331871
C106  C     C_2   0.786302 0.084079 0.525692 0.688607
O79   O     O_2   0.822006 0.040281 0.479547 -0.456728
O80   O     O_R   0.799649 0.197826 0.546617 -0.646951
H30   H     H_    0.835322 0.235546 0.514119 0.361341
C107  C     C_2   0.708775 0.386258 0.460439 0.598337
O81   O     O_2   0.710047 0.282836 0.445267 -0.500476
O82   O     O_R   0.656210 0.428706 0.503549 -0.695854
H31   H     H_    0.633531 0.364057 0.532846 0.333389
C108  C     C_2   0.190427 0.636517 0.534116 0.546354
O83   O     O_2   0.181864 0.721650 0.571389 -0.516840
O84   O     O_R   0.170048 0.642895 0.464096 -0.693984
H32   H     H_    0.160237 0.727238 0.450922 0.343282
O85   O     O_3   0.250258 0.085874 0.604020 -0.561248
C109  C     C_3   0.238555 0.133929 0.672423 -0.082265
H33   H     H_    0.274072 0.098122 0.713570 0.080408
H34   H     H_    0.184614 0.120701 0.689795 0.180150
H35   H     H_    0.247377 0.230114 0.669279 0.171510
O86   O     O_3   0.719066 0.071862 0.389457 -0.533486
C110  C     C_3   0.755464 0.121672 0.330339 -0.047558
H36   H     H_    0.740398 0.081802 0.279219 0.115207
H37   H     H_    0.810745 0.114974 0.338919 0.151183
H38   H     H_    0.745871 0.217303 0.325649 0.140373
O87   O     O_3   0.718379 0.573602 0.586265 -0.537546
C111  C     C_3   0.708810 0.643125 0.647587 -0.084150
H39   H     H_    0.746643 0.626009 0.690557 0.113588
H40   H     H_    0.656556 0.629727 0.670044 0.158897
H41   H     H_    0.713254 0.737127 0.631298 0.145920
O88   O     O_3   0.280740 0.558509 0.418774 -0.478177
C112  C     C_3   0.275578 0.635743 0.358712 -0.035024
H42   H     H_    0.224160 0.635073 0.334729 0.136820
H43   H     H_    0.314576 0.615769 0.317206 0.127922
H44   H     H_    0.284755 0.726816 0.376365 0.152195
O89   O     O_3   0.946198 0.046934 0.413372 -0.469678
C113  C     C_3   0.954247 0.050004 0.337529 0.044893
H45   H     H_    0.942615 0.966871 0.311642 0.194462
H46   H     H_    0.006136 0.081401 0.321701 0.203880
H47   H     H_    0.918008 0.111640 0.312594 0.071138
O90   O     O_3   0.922011 0.023827 0.558414 -0.471194
C114  C     C_3   0.936970 0.029455 0.632278 0.000380
H48   H     H_    0.988487 0.995368 0.646086 0.095605
H49   H     H_    0.899138 0.979832 0.664932 0.183451
H50   H     H_    0.933823 0.122589 0.648691 0.196712
O91   O     O_3   0.463177 0.528569 0.377978 -0.475216
C115  C     C_3   0.483424 0.524509 0.305059 0.008115
H51   H     H_    0.484214 0.435225 0.283238 0.132395
H52   H     H_    0.533635 0.568261 0.296580 0.202322
H53   H     H_    0.445692 0.573974 0.272537 0.097608
O92   O     O_3   0.389852 0.471602 0.492964 -0.497449
C116  C     C_3   0.379559 0.504676 0.563269 0.018012
H54   H     H_    0.427180 0.526610 0.591457 0.128159
H55   H     H_    0.352454 0.435185 0.593397 0.159841
H56   H     H_    0.344711 0.578898 0.561410 0.219742
O93   O     O_3   0.042063 0.887157 0.347147 -0.587228
C117  C     C_3   0.092835 0.814739 0.316046 -0.029166
H57   H     H_    0.121275 0.760125 0.353383 0.147038
H58   H     H_    0.130821 0.872184 0.288259 0.196566
H59   H     H_    0.070054 0.759734 0.274552 0.173086
O94   O     O_3   0.936685 0.792581 0.622167 -0.572351
C118  C     C_3   0.869552 0.756618 0.608350 -0.058216
H60   H     H_    0.869324 0.681068 0.571672 0.165408
H61   H     H_    0.838240 0.830386 0.586419 0.158636
H62   H     H_    0.845785 0.727815 0.659673 0.174142
O95   O     O_3   0.592212 0.402929 0.356881 -0.562658
C119  C     C_3   0.614071 0.316084 0.309279 -0.076409
H63   H     H_    0.636175 0.240375 0.338207 0.219371
H64   H     H_    0.654668 0.353535 0.273859 0.178612
H65   H     H_    0.571669 0.287011 0.275336 0.150869
O96   O     O_3   0.436608 0.295738 0.595876 -0.578734
C120  C     C_3   0.385847 0.213446 0.578627 -0.069042
H66   H     H_    0.405649 0.138438 0.547486 0.148879
H67   H     H_    0.344374 0.255069 0.547391 0.157365
H68   H     H_    0.364994 0.177408 0.629441 0.197236
C121  C     C_2   0.078998 0.448772 0.328056 0.658013
O97   O     O_2   0.073637 0.364541 0.288828 -0.455768
O98   O     O_R   0.113365 0.548957 0.303090 -0.767899
H69   H     H_    0.130585 0.541520 0.252059 0.325099
C122  C     C_2   0.066403 0.353999 0.617421 0.641530
O99   O     O_2   0.122009 0.305671 0.620090 -0.582851
O100  O     O_R   0.019291 0.333043 0.672972 -0.654613
H70   H     H_    0.040019 0.289017 0.715068 0.318774
C123  C     C_2   0.585401 0.944110 0.323615 0.615349
O101  O     O_2   0.596405 0.852051 0.292542 -0.472152
O102  O     O_R   0.601244 0.050350 0.288676 -0.734862
H71   H     H_    0.619308 0.039333 0.238234 0.327218
C124  C     C_2   0.482127 0.896291 0.612542 0.673220
O103  O     O_2   0.504226 0.820631 0.653708 -0.507946
O104  O     O_R   0.428738 0.970122 0.634600 -0.716068
H72   H     H_    0.412460 0.952118 0.685288 0.352936
O105  O     O_3   0.007664 0.201188 0.524814 -0.473269
C125  C     C_3   0.062506 0.132414 0.552021 -0.005165
H73   H     H_    0.062262 0.131473 0.610963 0.144106
H74   H     H_    0.112721 0.156880 0.530417 0.204456
H75   H     H_    0.056403 0.039639 0.540910 0.120359
O106  O     O_3   0.990034 0.264951 0.386241 -0.521138
C126  C     C_3   0.921855 0.303951 0.378976 -0.036182
H76   H     H_    0.911334 0.312876 0.321164 0.158935
H77   H     H_    0.909350 0.387895 0.405330 0.111523
H78   H     H_    0.886359 0.238499 0.403049 0.173371
O107  O     O_3   0.495989 0.712389 0.524087 -0.522239
C127  C     C_3   0.551367 0.644702 0.549626 -0.021920
H79   H     H_    0.535574 0.597591 0.599491 0.129554
H80   H     H_    0.597472 0.696793 0.562604 0.145125
H81   H     H_    0.564455 0.577849 0.509769 0.203980
O108  O     O_3   0.509200 0.749231 0.382268 -0.477151
C128  C     C_3   0.446471 0.789314 0.353206 -0.000298
H82   H     H_    0.455257 0.825482 0.298398 0.138696
H83   H     H_    0.418723 0.854416 0.386632 0.141161
H84   H     H_    0.410648 0.715611 0.349782 0.169336
C129  C     C_2   0.123332 0.948957 0.095043 0.601615
O109  O     O_2   0.095324 0.044106 0.084278 -0.479716
O110  O     O_R   0.099223 0.873314 0.149246 -0.745838
H85   H     H_    0.056995 0.905707 0.174104 0.332904
C130  C     C_2   0.877294 0.925599 0.900145 0.595231
O111  O     O_2   0.910606 0.015691 0.906414 -0.483753
O112  O     O_R   0.893778 0.846996 0.845991 -0.706098
H86   H     H_    0.934654 0.873749 0.816077 0.339927
C131  C     C_2   0.623368 0.452207 0.094062 0.601638
O113  O     O_2   0.596649 0.548541 0.083557 -0.484761
O114  O     O_R   0.597296 0.376017 0.146878 -0.748247
H87   H     H_    0.555051 0.409392 0.171137 0.316692
C132  C     C_2   0.377264 0.425483 0.900249 0.599939
O115  O     O_2   0.410483 0.515740 0.906253 -0.471998
O116  O     O_R   0.393905 0.346348 0.846447 -0.708164
H88   H     H_    0.434871 0.372830 0.816593 0.348327

loop_
_geom_bond_atom_site_label_1
_geom_bond_atom_site_label_2
_geom_bond_distance
_ccdc_geom_bond_type
C35   C39   1.501958 S    
O4    C12   1.282048 A    
O25   C21   1.281569 A    
C100  O68   1.397114 S    
C74   C78   1.352026 D    
O78   H29   0.999685 S    
C64   C123  1.506367 S    
Cr7   O51   2.035475 S    
C130  O111  1.223563 D    
C129  O109  1.224095 D    
O94   C118  1.405870 S    
O39   C19   1.313493 A    
C31   C35   1.367499 D    
C80   C84   1.500920 S    
O21   C9    1.365056 A    
C36   C40   1.452035 S    
C116  H56   1.082375 S    
C121  O98   1.392836 S    
C99   O66   1.399240 S    
C1    O9    1.322309 A    
O44   Cr12  2.087651 S    
C78   C82   1.500856 S    
C3    O11   1.317622 A    
C46   O94   1.384050 S    
C45   C54   1.402309 A    
C4    O12   1.298020 A    
C47   O95   1.391536 S    
C127  H79   1.107755 S    
C72   C84   1.372493 D    
C73   C77   1.356639 D    
C33   H1    1.087442 S    
O2    C10   1.269409 A    
C28   O88   1.396512 S    
O66   H23   1.012542 S    
O17   Cr9   2.055379 S    
C62   C66   1.380179 A    
C111  H40   1.109449 S    
C95   O58   1.386233 S    
O31   Cr3   1.973318 S    
C75   C99   1.484372 S    
C109  H34   1.109452 S    
C87   H16   1.085322 S    
O16   Cr8   1.987939 S    
O107  C127  1.409759 S    
C88   C91   1.333632 D    
C92   H12   1.084039 S    
C125  H73   1.104101 S    
C103  O73   1.212669 D    
O13   C5    1.290992 A    
O28   Cr4   2.058871 S    
O12   Cr8   2.065786 S    
O22   Cr10  1.971361 S    
O15   C7    1.321195 A    
O74   H27   1.008532 S    
C107  O81   1.214003 D    
O46   Cr10  1.956408 S    
O80   H30   1.010109 S    
O48   C24   1.300916 A    
C12   C43   1.514766 S    
C69   H5    1.077317 S    
C124  O103  1.224860 D    
C93   O54   1.386170 S    
C72   H8    1.077328 S    
C61   C65   1.414862 A    
C115  H52   1.110213 S    
C4    C29   1.478327 S    
C114  H49   1.102424 S    
C25   C37   1.370858 D    
C43   C56   1.385366 A    
Cr12  O52   2.043668 S    
C27   C39   1.328027 D    
C52   O92   1.371517 S    
C17   O41   1.271562 A    
C19   O43   1.271449 A    
C34   H2    1.082112 S    
C20   O44   1.278746 A    
Cr8   O52   2.035335 S    
O54   H17   1.009242 S    
O46   C22   1.301203 A    
C127  H81   1.102415 S    
C77   C129  1.497785 S    
C59   C63   1.447954 A    
C40   C104  1.452486 S    
C28   C40   1.344217 D    
O64   H22   1.012281 S    
C121  O97   1.223716 D    
C57   C61   1.484465 A    
C16   O36   1.292533 A    
C98   O63   1.223516 D    
C58   C62   1.406467 A    
C125  H74   1.091614 S    
C85   C90   1.345182 D    
C89   H9    1.086322 S    
O32   C16   1.297429 A    
O88   C112  1.417286 S    
C126  H77   1.107266 S    
O47   Cr11  1.936885 S    
C48   C55   1.393177 A    
C80   C132  1.496324 S    
C113  H46   1.111230 S    
C96   O59   1.221698 D    
C55   C56   1.411258 A    
C63   C124  1.473076 S    
C105  O77   1.209900 D    
O24   C12   1.326927 A    
C42   C53   1.409292 A    
C112  H42   1.107723 S    
C96   O60   1.387380 S    
O8    Cr4   1.941549 S    
O89   C113  1.427133 S    
O32   Cr4   1.993040 S    
C26   C38   1.357447 D    
C44   C59   1.464437 A    
C30   C106  1.478111 S    
C88   H15   1.078425 S    
O11   Cr7   2.105462 S    
C123  O102  1.394645 S    
C13   C76   1.478436 S    
C21   C85   1.449920 S    
C32   C108  1.461749 S    
O27   Cr3   2.069479 S    
O3    Cr3   2.097396 S    
C108  O83   1.213656 D    
O8    C4    1.327412 A    
C18   C70   1.473538 S    
C67   C68   1.382924 A    
Cr5   O49   2.035475 S    
C93   O53   1.222045 D    
O93   C117  1.413656 S    
C118  H62   1.105918 S    
O110  H85   1.013850 S    
C128  H83   1.113138 S    
C8    C28   1.469400 S    
C116  H54   1.109128 S    
C131  O114  1.393497 S    
C36   H4    1.084724 S    
O22   C10   1.324333 A    
C2    O10   1.322513 A    
O92   C116  1.388633 S    
C104  O75   1.213344 D    
C48   O96   1.381322 S    
O56   H18   1.010116 S    
C119  H64   1.107928 S    
C79   C83   1.490506 S    
O5    C1    1.312704 A    
C120  H66   1.107672 S    
O3    C11   1.287077 A    
C64   C68   1.393268 A    
C110  H38   1.103369 S    
C102  O71   1.216638 D    
C17   C69   1.469489 S    
Cr1   O49   2.044032 S    
C20   C72   1.473249 S    
C82   C94   1.484705 S    
C45   C49   1.423346 A    
Cr3   O51   2.044032 S    
C94   O55   1.221689 D    
C47   C51   1.395692 A    
C26   O86   1.399960 S    
C29   C33   1.345763 D    
O26   Cr2   2.058871 S    
O62   H21   1.012584 S    
C5    O17   1.308982 A    
O27   C23   1.281555 A    
O28   C24   1.288301 A    
O14   C6    1.287746 A    
C8    O20   1.271474 A    
O108  C128  1.419431 S    
C112  H44   1.108215 S    
O91   C115  1.418456 S    
C38   C102  1.454785 S    
O90   C114  1.421457 S    
C71   H7    1.077469 S    
O40   Cr8   1.949449 S    
C100  O67   1.223525 D    
C113  H45   1.096141 S    
C103  O74   1.400699 S    
O41   Cr9   2.119251 S    
C49   C50   1.430464 A    
C70   H6    1.077365 S    
O31   C15   1.298697 A    
C2    C31   1.493730 S    
C32   C36   1.331200 D    
C71   C83   1.374935 D    
C116  H55   1.094902 S    
O33   Cr5   2.067372 S    
C16   C73   1.473260 S    
C117  H58   1.107791 S    
O5    Cr1   1.955348 S    
C99   O65   1.223177 D    
O35   Cr7   2.067372 S    
O29   Cr1   1.973318 S    
C76   C100  1.488206 S    
C41   C58   1.417571 A    
C127  H80   1.112931 S    
C118  H60   1.110052 S    
C117  H57   1.083910 S    
C9    C42   1.488808 S    
Cr9   O49   2.037462 S    
C11   C44   1.541531 S    
C18   O42   1.278894 A    
Cr11  O51   2.037462 S    
O26   C22   1.288056 A    
O20   Cr12  2.080007 S    
C65   O105  1.396729 S    
O114  H87   1.013241 S    
C89   C90   1.448540 S    
C114  H48   1.110416 S    
C5    C25   1.486316 S    
C95   O57   1.222054 D    
C109  H35   1.106720 S    
C61   C122  1.477617 S    
C120  H68   1.101983 S    
C48   C52   1.432320 A    
C30   C34   1.340505 D    
C67   O107  1.382992 S    
C110  H36   1.111732 S    
O30   C14   1.298266 A    
C86   C89   1.333781 D    
C90   H10   1.084090 S    
C46   C53   1.396953 A    
C117  H59   1.106780 S    
O84   H32   1.002810 S    
O6    Cr2   1.941549 S    
C132  O116  1.397982 S    
C125  H75   1.085390 S    
C129  O110  1.394761 S    
O42   Cr10  2.087651 S    
O18   Cr10  2.080007 S    
O34   Cr6   2.109981 S    
C130  O112  1.398178 S    
C83   C95   1.486495 S    
C122  O100  1.397354 S    
O24   Cr12  1.971361 S    
C27   O87   1.389432 S    
O30   Cr2   1.993040 S    
O70   H25   1.000584 S    
O48   Cr12  1.956408 S    
C25   O85   1.393450 S    
C73   C97   1.484520 S    
C44   C55   1.417736 A    
O76   H28   0.992578 S    
O37   C17   1.313702 A    
C15   O35   1.299935 A    
C131  O113  1.224239 D    
O102  H71   1.014038 S    
O43   Cr11  2.119251 S    
C22   C86   1.452494 S    
C75   C79   1.357624 D    
O98   H69   1.014062 S    
C119  H65   1.107879 S    
O21   Cr9   1.997294 S    
C34   C38   1.467924 S    
C85   H14   1.085350 S    
O39   Cr7   1.988393 S    
O45   Cr9   1.936885 S    
O112  H86   1.013647 S    
C19   C71   1.468703 S    
O13   Cr5   1.947836 S    
O86   C110  1.417108 S    
C6    C26   1.474746 S    
O29   C13   1.298739 A    
O15   Cr7   1.947836 S    
C1    C32   1.434079 S    
C53   C54   1.396271 A    
C3    C30   1.474114 S    
C57   C58   1.433424 A    
O23   C11   1.366780 A    
C68   O108  1.377379 S    
C59   C60   1.434551 A    
C45   O93   1.416645 S    
O116  H88   1.013530 S    
C111  H39   1.115237 S    
C109  H33   1.115067 S    
C47   C56   1.410224 A    
C122  O99   1.217719 D    
C39   C103  1.464363 S    
C31   C107  1.474619 S    
O6    C2    1.313641 A    
C51   C52   1.400506 A    
C35   H3    1.086613 S    
O1    Cr1   2.097396 S    
O19   Cr11  2.055379 S    
O60   H20   1.010333 S    
C107  O82   1.389094 S    
Cr10  O50   2.043668 S    
O105  C125  1.419308 S    
O45   C21   1.301205 A    
C74   C98   1.488185 S    
O47   C23   1.301268 A    
C97   O61   1.223187 D    
C126  H76   1.108067 S    
O40   C20   1.311887 A    
C115  H51   1.100814 S    
C120  H67   1.106342 S    
C123  O101  1.223661 D    
C6    O18   1.300378 A    
O36   Cr8   2.109981 S    
C77   C81   1.492137 S    
O38   Cr6   1.949449 S    
C114  H50   1.108601 S    
O104  H72   1.014330 S    
C118  H61   1.111504 S    
C128  H82   1.109516 S    
O37   Cr5   1.988393 S    
C91   C92   1.448954 S    
C76   C80   1.352236 D    
C66   O106  1.360399 S    
O1    C9    1.262890 A    
C101  O69   1.222689 D    
C70   C82   1.372588 D    
O7    C3    1.335771 A    
C15   C74   1.478314 S    
O96   C120  1.411425 S    
C63   C67   1.406870 A    
C41   C54   1.372103 A    
O23   Cr11  1.997294 S    
C97   O62   1.399279 S    
C106  O80   1.384303 S    
O72   H26   1.001608 S    
C110  H37   1.097688 S    
C13   O33   1.299946 A    
Cr4   O52   2.036735 S    
O2    Cr2   2.112885 S    
C111  H41   1.107697 S    
O14   Cr6   1.987939 S    
Cr6   O50   2.035335 S    
C126  H78   1.104111 S    
O100  H70   1.014115 S    
C69   C81   1.375438 D    
C60   C64   1.422148 A    
O9    Cr5   2.105462 S    
C62   C121  1.500967 S    
O16   C8    1.320004 A    
C78   C130  1.496890 S    
C112  H43   1.107440 S    
O7    Cr3   1.955348 S    
C98   O64   1.397079 S    
C91   H11   1.086340 S    
O58   H19   1.009290 S    
O106  C126  1.411319 S    
C49   O89   1.402467 S    
C50   O90   1.397852 S    
C115  H53   1.108114 S    
C51   O91   1.395394 S    
C106  O79   1.216402 D    
Cr2   O50   2.036735 S    
C108  O84   1.377147 S    
C46   C50   1.410853 A    
C37   C101  1.481414 S    
C7    O19   1.269166 A    
O95   C119  1.404268 S    
C128  H84   1.097037 S    
C7    C27   1.484188 S    
C113  H47   1.097051 S    
C43   C60   1.410459 A    
O38   C18   1.311853 A    
O25   Cr1   2.069479 S    
C87   C92   1.345341 D    
C84   C96   1.485754 S    
O87   C111  1.416878 S    
C86   H13   1.078373 S    
C14   C75   1.472912 S    
C104  O76   1.382797 S    
C23   C87   1.450049 S    
C14   O34   1.291622 A    
C24   C88   1.452325 S    
C119  H63   1.097822 S    
C105  O78   1.365826 S    
C65   C66   1.372587 A    
C124  O104  1.399691 S    
C102  O72   1.389821 S    
C94   O56   1.387134 S    
C81   C93   1.485759 S    
O10   Cr6   2.065786 S    
O4    Cr4   2.112885 S    
C42   C57   1.470865 A    
O82   H31   1.007994 S    
C10   C41   1.490085 S    
C29   C105  1.500335 S    
O68   H24   1.012256 S    
C132  O115  1.223586 D    
O85   C109  1.418206 S    
C101  O70   1.396311 S    
C33   C37   1.470219 S    
C79   C131  1.497319 S    
