data_mof_unit_10010.cif
_audit_creation_date              2012-12-10T17:16:36-0500
_audit_creation_method            fapswitch 2.2
_symmetry_space_group_name_H-M    P1
_symmetry_Int_Tables_number       1
_space_group_crystal_system       triclinic
_cell_length_a                    10.187264
_cell_length_b                    10.631678
_cell_length_c                    10.779561
_cell_angle_alpha                 91.701785
_cell_angle_beta                  95.830348
_cell_angle_gamma                 79.451013
_cell_volume                      1141.76624417

loop_
_atom_site_label
_atom_site_type_symbol
_atom_type_description
_atom_site_fract_x
_atom_site_fract_y
_atom_site_fract_z
_atom_type_partial_charge
C1    C     C_R   0.443810 0.503961 0.267061 0.939227
C2    C     C_R   0.492666 0.740387 0.484297 0.889848
C3    C     C_R   0.749735 0.063161 0.459829 -0.116979
C4    C     C_R   0.246469 0.936390 0.528237 -0.104940
C5    C     C_R   0.836130 0.987071 0.383873 -0.123758
C6    C     C_R   0.158103 0.013008 0.602015 -0.144741
C7    C     C_R   0.796341 0.882443 0.320708 -0.092502
C8    C     C_R   0.197296 0.117000 0.666892 -0.123517
C9    C     C_R   0.674790 0.848383 0.341384 -0.101064
C10   C     C_R   0.320450 0.149928 0.650030 -0.085298
C11   C     C_R   0.590285 0.920524 0.424502 0.094014
C12   C     C_R   0.556410 0.487698 0.732756 0.932249
C13   C     C_R   0.406402 0.078368 0.567604 0.100406
C14   C     C_R   0.619830 0.036956 0.471908 0.085312
C15   C     C_R   0.376959 0.962374 0.519184 0.083191
C16   C     C_R   0.479025 0.877037 0.463778 -0.260100
C17   C     C_R   0.518709 0.121805 0.529758 -0.257737
C18   C     C_2   0.872482 0.627757 0.584751 0.450485
C19   C     C_2   0.115404 0.418957 0.373130 0.489156
C20   C     C_2   0.412251 0.492791 0.134275 -0.374357
C21   C     C_2   0.588790 0.466954 0.864674 -0.380456
C22   C     C_2   0.513039 0.450692 0.065135 -0.141676
C23   C     C_2   0.489588 0.454059 0.932271 -0.155573
C24   C     C_2   0.070525 0.498985 0.479996 -0.002635
C25   C     C_2   0.924252 0.520074 0.502300 -0.060958
C26   C     C_R   0.506749 0.259043 0.513628 0.900751
H1    H     H_    0.130746 0.174405 0.727352 0.127338
H2    H     H_    0.616200 0.423327 0.105957 0.187517
H3    H     H_    0.690851 0.464604 0.906690 0.145512
H4    H     H_    0.309390 0.520370 0.093025 0.143150
H5    H     H_    0.881418 0.373630 0.393012 0.180709
H6    H     H_    0.126990 0.599825 0.630262 0.188884
H7    H     H_    0.805105 0.616439 0.652733 0.113063
H8    H     H_    0.119876 0.462992 0.284602 0.037313
H9    H     H_    0.861704 0.824938 0.259321 0.121779
H10   H     H_    0.788740 0.138743 0.512139 0.158999
H11   H     H_    0.209301 0.859985 0.475504 0.165217
H12   H     H_    0.933817 0.009728 0.373683 0.140476
H13   H     H_    0.059788 0.990720 0.609911 0.158871
H14   H     H_    0.647335 0.764993 0.292702 0.136266
H15   H     H_    0.347822 0.232091 0.701058 0.129150
H16   H     H_    0.387224 0.456577 0.890719 0.183348
N1    N     N_2   0.157300 0.551390 0.551120 -0.225415
N2    N     N_2   0.842700 0.448610 0.448880 -0.248360
O1    O     O_R   0.568940 0.489660 0.307530 -0.616781
O2    O     O_2   0.143180 0.302813 0.382431 -0.585457
O3    O     O_R   0.431060 0.510340 0.692470 -0.617541
O4    O     O_R   0.348880 0.522640 0.340350 -0.631834
O5    O     O_R   0.651120 0.477360 0.659650 -0.644979
O6    O     O_R   0.610030 0.300280 0.483580 -0.628801
O7    O     O_R   0.389970 0.699720 0.516420 -0.619073
O8    O     O_R   0.389970 0.333270 0.516400 -0.571433
O9    O     O_R   0.610030 0.666730 0.483600 -0.613929
O10   O     O_2   0.905022 0.731989 0.576860 -0.617533
Zn1   Zn    Zn3+2 0.646940 0.477980 0.478080 0.916982
Zn2   Zn    Zn3+2 0.353060 0.522020 0.521920 0.948212

loop_
_geom_bond_atom_site_label_1
_geom_bond_atom_site_label_2
_ccdc_geom_bond_type
C9    H14   S    
C6    C8    A    
C10   C13   A    
C1    O4    A    
C3    C14   A    
C2    C16   S    
C11   C16   A    
O6    Zn1   S    
N2    Zn1   S    
C13   C15   A    
C13   C17   A    
C6    H13   S    
C7    C9    A    
C4    C15   A    
O9    Zn1   S    
C12   O5    A    
C19   O2    D    
C22   H2    S    
C5    H12   S    
C24   C25   S    
C10   H15   S    
C9    C11   A    
C14   C17   A    
C1    O1    A    
C23   H16   S    
C7    H9    S    
C3    H10   S    
C12   O3    A    
C17   C26   S    
C25   N2    D    
C4    C6    A    
C11   C14   A    
H6    N1    S    
C20   C22   D    
C19   C24   S    
C26   O8    A    
C21   C23   D    
C18   H7    S    
C18   C25   S    
C2    O7    A    
C18   O10   D    
C15   C16   A    
C26   O6    A    
N1    Zn2   S    
C4    H11   S    
O1    Zn1   S    
C5    C7    A    
O7    Zn2   S    
H5    N2    S    
O4    Zn2   S    
C24   N1    D    
C22   C23   S    
C8    H1    S    
C1    C20   S    
C20   H4    S    
O5    Zn1   S    
C21   H3    S    
C12   C21   S    
C19   H8    S    
C8    C10   A    
O8    Zn2   S    
O3    Zn2   S    
C3    C5    A    
C2    O9    A    
