data_mof_unit_65560.cif
_audit_creation_date              2012-12-10T16:43:33-0500
_audit_creation_method            fapswitch 2.2
_symmetry_space_group_name_H-M    P1
_symmetry_Int_Tables_number       1
_space_group_crystal_system       triclinic
_cell_length_a                    18.429611
_cell_length_b                    18.470809
_cell_length_c                    18.463477
_cell_angle_alpha                 119.5646
_cell_angle_beta                  90.46486
_cell_angle_gamma                 119.932733
_cell_volume                      4459.83115426

loop_
_atom_site_label
_atom_site_type_symbol
_atom_type_description
_atom_site_fract_x
_atom_site_fract_y
_atom_site_fract_z
_atom_type_partial_charge
C1    C     C_R   0.361139 0.997652 0.138440 0.486317
C2    C     C_2   0.790560 0.985379 0.677589 -0.050094
C3    C     C_2   0.690271 0.921872 0.749511 -0.167557
C4    C     C_R   0.639532 0.001175 0.862709 0.545806
C5    C     C_2   0.702533 0.008671 0.815707 0.007358
C6    C     C_2   0.282889 0.446712 0.731513 -0.048228
C7    C     C_2   0.195201 0.387350 0.685731 -0.085881
C8    C     C_2   0.334460 0.557204 0.775311 -0.174042
C9    C     C_2   0.304908 0.613719 0.821275 -0.012548
C10   C     C_2   0.280677 0.053666 0.336375 -0.112454
C11   C     C_2   0.193042 0.007399 0.305766 -0.039255
C12   C     C_R   0.258603 0.943713 0.574630 -0.107138
C13   C     C_2   0.334140 0.057691 0.278103 -0.127271
C14   C     C_2   0.305877 0.980551 0.192377 0.019563
C15   C     C_2   0.779808 0.942140 0.218303 -0.150910
C16   C     C_R   0.636535 0.277102 0.138202 0.547864
C17   C     C_2   0.799411 0.994837 0.306115 -0.082614
C18   C     C_2   0.719677 0.937974 0.162338 -0.148890
C19   C     C_2   0.700397 0.006448 0.195353 -0.082434
C20   C     C_2   0.761026 0.556985 0.221073 -0.179272
C21   C     C_2   0.799008 0.612240 0.308805 -0.090162
C22   C     C_2   0.692453 0.445845 0.167773 -0.016173
C23   C     C_R   0.253410 0.967228 0.658839 0.012781
C24   C     C_2   0.693023 0.388311 0.192899 -0.058012
C25   C     C_R   0.138955 0.277021 0.638175 0.513908
C26   C     C_R   0.860723 0.722858 0.361796 0.527600
C27   C     C_R   0.857752 0.996059 0.634738 0.533588
C28   C     C_R   0.361151 0.723040 0.863236 0.506896
C29   C     C_R   0.138601 0.001378 0.361648 0.517322
C30   C     C_R   0.859592 0.999231 0.360481 0.516516
C31   C     C_R   0.140247 0.999684 0.639634 0.466102
C32   C     C_R   0.640317 0.000737 0.139566 0.516789
C33   C     C_R   0.359731 0.998532 0.858769 0.495932
C34   C     C_R   0.303993 0.958357 0.708707 -0.018642
C35   C     C_R   0.352818 0.917323 0.668482 0.021142
C36   C     C_R   0.359096 0.899467 0.585611 0.011626
C37   C     C_R   0.312733 0.913754 0.540331 -0.144624
C38   C     C_1   0.781126 0.109963 0.851034 0.187788
C39   C     C_1   0.331248 0.406746 0.738094 0.260442
C40   C     C_1   0.222862 0.572748 0.840268 0.211265
C41   C     C_2   0.226705 0.873865 0.151192 0.225312
C42   C     C_2   0.387918 0.881070 0.705594 0.239036
C43   C     C_2   0.624709 0.404069 0.087943 0.279393
C44   C     C_1   0.408580 0.860355 0.542339 0.264757
C45   C     C_R   0.302457 0.990286 0.796167 -0.005040
C46   C     C_2   0.136422 0.056416 0.816611 0.257204
C47   C     C_2   0.752503 0.826608 0.662288 0.273633
C48   C     C_R   0.246261 0.018781 0.828095 -0.089479
C49   C     C_R   0.192881 0.022025 0.777760 -0.008736
C50   C     C_R   0.196971 0.997174 0.693092 0.005949
C51   C     C_2   0.749576 0.916345 0.697201 -0.023957
H1    H     H_    0.246035 0.041348 0.894580 0.179059
H2    H     H_    0.730228 0.070362 0.264190 0.111325
H3    H     H_    0.776204 0.595139 0.187904 0.149964
H4    H     H_    0.780061 0.577198 0.344553 0.125368
H5    H     H_    0.741531 0.423213 0.253878 0.084257
H6    H     H_    0.315751 0.897807 0.475922 0.136970
H7    H     H_    0.220894 0.947876 0.533550 0.145622
H8    H     H_    0.772876 0.038011 0.693052 0.125508
H9    H     H_    0.633266 0.849293 0.733398 0.150776
H10   H     H_    0.192006 0.824013 0.080359 0.140650
H11   H     H_    0.348129 0.838628 0.731274 0.096584
H12   H     H_    0.163008 0.420986 0.680157 0.117981
H13   H     H_    0.641700 0.443364 0.055806 0.105245
H14   H     H_    0.101226 0.070107 0.783256 0.124407
H15   H     H_    0.753826 0.801505 0.704155 0.106572
H16   H     H_    0.400622 0.593880 0.770962 0.153641
H17   H     H_    0.314972 0.094431 0.406125 0.155013
H18   H     H_    0.159675 0.972358 0.237256 0.126073
H19   H     H_    0.398702 0.129695 0.306725 0.144693
H20   H     H_    0.807234 0.899197 0.185730 0.164211
H21   H     H_    0.769763 0.034095 0.340253 0.114520
H22   H     H_    0.692026 0.877791 0.092023 0.165146
N1    N     N_1   0.843864 0.191007 0.879577 -0.265161
N2    N     N_1   0.370072 0.375041 0.743518 -0.258324
N3    N     N_1   0.157619 0.540421 0.855672 -0.260403
N4    N     N_1   0.448173 0.829094 0.507636 -0.245090
O1    O     O_3   0.500000 0.000000 0.000000 -0.459720
O2    O     O_R   0.054120 0.939900 0.325040 -0.530898
O3    O     O_R   0.884120 0.060070 0.444330 -0.536282
O4    O     O_R   0.325020 0.939940 0.054210 -0.551390
O5    O     O_R   0.175860 0.060090 0.615830 -0.536664
O6    O     O_R   0.884120 0.939900 0.324160 -0.543383
O7    O     O_R   0.055710 0.939940 0.615850 -0.547422
O8    O     O_R   0.885720 0.939940 0.614980 -0.490452
O9    O     O_R   0.174930 0.060060 0.445830 -0.547189
O10   O     O_R   0.054120 0.229160 0.614300 -0.529025
O11   O     O_R   0.885050 0.770830 0.325070 -0.537520
O12   O     O_R   0.614240 0.229150 0.054160 -0.497404
O13   O     O_R   0.614240 0.060060 0.885070 -0.502415
O14   O     O_R   0.614900 0.229170 0.174980 -0.544692
O15   O     O_R   0.445840 0.770840 0.885740 -0.542238
O16   O     O_R   0.615830 0.060100 0.175880 -0.538725
O17   O     O_R   0.324090 0.939910 0.884220 -0.552366
O18   O     O_R   0.615830 0.939930 0.055710 -0.542715
O19   O     O_R   0.444240 0.060060 0.884190 -0.492015
O20   O     O_2   0.202814 0.838834 0.194686 -0.488953
O21   O     O_2   0.461196 0.897925 0.707603 -0.494646
O22   O     O_2   0.548373 0.330122 0.060772 -0.468231
O23   O     O_R   0.325020 0.770840 0.885120 -0.536106
O24   O     O_2   0.128774 0.070585 0.887236 -0.491829
O25   O     O_2   0.745951 0.775279 0.585195 -0.459691
O26   O     O_R   0.445840 0.060100 0.175010 -0.534243
O27   O     O_R   0.614900 0.939900 0.885710 -0.550122
O28   O     O_3   0.999960 0.000000 0.500040 -0.460887
O29   O     O_R   0.174930 0.229160 0.614920 -0.526127
O30   O     O_R   0.885720 0.770850 0.445880 -0.512169
O31   O     O_R   0.885050 0.060100 0.614330 -0.538184
Zn1   Zn    Zn3+2 0.542440 0.085830 0.956610 1.024617
Zn2   Zn    Zn3+2 0.543390 0.085850 0.129220 0.960507
Zn3   Zn    Zn3+2 0.543390 0.914160 0.957530 0.950195
Zn4   Zn    Zn3+2 0.370780 0.914160 0.956640 0.961055
Zn5   Zn    Zn3+2 0.957510 0.914170 0.543430 0.988401
Zn6   Zn    Zn3+2 0.956570 0.085840 0.542520 0.967583
Zn7   Zn    Zn3+2 0.956570 0.914150 0.370820 0.953812
Zn8   Zn    Zn3+2 0.129180 0.085840 0.543400 0.954451

loop_
_geom_bond_atom_site_label_1
_geom_bond_atom_site_label_2
_ccdc_geom_bond_type
C15   C18   S    
C21   C26   S    
O7    Zn5   S    
O2    Zn7   S    
C33   C45   S    
O28   Zn8   S    
C35   C36   A    
C41   H10   S    
C33   O17   A    
C12   C23   A    
C31   O5    A    
O26   Zn2   S    
O14   Zn2   S    
O28   Zn5   S    
C36   C37   A    
C43   O22   D    
C18   C19   D    
C42   O21   D    
C13   H19   S    
C1    O4    A    
O12   Zn1   S    
C25   O10   A    
O9    Zn8   S    
C34   C35   A    
O31   Zn6   S    
C30   O6    A    
C27   O8    A    
C35   C42   S    
O30   Zn5   S    
O10   Zn6   S    
C8    C9    D    
C43   H13   S    
O1    Zn3   S    
C39   N2    T    
C1    O26   A    
C47   H15   S    
O16   Zn2   S    
C30   O3    A    
C3    H9    S    
C19   H2    S    
C32   O16   A    
C16   O12   A    
C16   C24   S    
C47   O25   D    
C13   C14   D    
C17   C30   S    
C19   C32   S    
C25   O29   A    
C4    O13   A    
C46   O24   D    
O6    Zn7   S    
O28   Zn6   S    
C46   H14   S    
C20   H3    S    
C10   C11   D    
C21   H4    S    
C3    C51   S    
C2    H8    S    
C23   C50   A    
C6    C8    S    
C9    C40   S    
C31   O7    A    
C40   N3    T    
O29   Zn8   S    
C22   C43   S    
C29   O2    A    
O4    Zn4   S    
C23   C34   A    
C41   O20   D    
O1    Zn2   S    
C34   C45   A    
C7    H12   S    
C29   O9    A    
C2    C27   S    
C8    H16   S    
C14   C41   S    
C48   C49   A    
C20   C22   S    
O23   Zn4   S    
C18   H22   S    
C46   C49   S    
C36   C44   S    
C31   C50   S    
C33   O19   A    
C38   N1    T    
C45   C48   A    
C15   C17   D    
C42   H11   S    
C44   N4    T    
O28   Zn7   S    
O3    Zn6   S    
C4    C5    S    
C3    C5    D    
C10   C13   S    
C26   O30   A    
O27   Zn3   S    
C47   C51   S    
C11   H18   S    
O15   Zn3   S    
C6    C7    D    
C10   H17   S    
C24   H5    S    
C15   H20   S    
O19   Zn1   S    
C7    C25   S    
O11   Zn7   S    
O8    Zn5   S    
C12   H7    S    
O18   Zn3   S    
C28   O23   A    
C27   O31   A    
C4    O27   A    
O17   Zn4   S    
O1    Zn1   S    
C22   C24   D    
C2    C51   D    
O5    Zn8   S    
C28   O15   A    
C16   O14   A    
C48   H1    S    
C32   O18   A    
C20   C21   D    
C11   C29   S    
C17   H21   S    
C26   O11   A    
C49   C50   A    
C12   C37   A    
C6    C39   S    
O1    Zn4   S    
C1    C14   S    
O13   Zn1   S    
C5    C38   S    
C37   H6    S    
C9    C28   S    
