data_mof_unit_30767.cif
_audit_creation_date              2013-03-05T15:42:32-0500
_audit_creation_method            fapswitch 2.2
_symmetry_space_group_name_H-M    P1
_symmetry_Int_Tables_number       1
_space_group_crystal_system       triclinic
_cell_length_a                    6.954701
_cell_length_b                    14.742384
_cell_length_c                    16.236784
_cell_angle_alpha                 90.660323
_cell_angle_beta                  90.773761
_cell_angle_gamma                 89.446237
_cell_volume                      1664.40153272

loop_
_atom_site_label
_atom_site_type_symbol
_atom_site_description
_atom_site_fract_x
_atom_site_fract_y
_atom_site_fract_z
_atom_type_partial_charge
O1    O     O_R   0.494490 0.416160 0.413410 -0.528006
O2    O     O_R   0.823830 0.407240 0.585990 -0.576046
O3    O     O_R   0.994160 0.583840 0.586590 -0.578424
C1    C     C_R   0.657396 0.384286 0.612132 0.766112
O4    O     O_R   0.824200 0.405280 0.414020 -0.509571
O5    O     O_R   0.994530 0.581860 0.413390 -0.524578
C2    C     C_R   0.655501 0.383901 0.385147 0.942151
O6    O     O_R   0.494110 0.418140 0.586610 -0.551866
O7    O     O_3   0.660810 0.557940 0.500000 -0.288202
V1    V     V_3+5 0.935650 0.489250 0.500000 1.252546
O8    O     O_R   0.324250 0.592760 0.414010 -0.554307
C3    C     C_R   0.154857 0.610627 0.383079 0.870311
O9    O     O_R   0.323880 0.594720 0.585980 -0.580519
C4    C     C_R   0.155744 0.615340 0.615704 0.794835
V2    V     V_3+5 0.435660 0.510750 0.500000 1.223002
O10   O     O_3   0.160630 0.442060 0.500000 -0.240061
C5    C     C_3   0.974323 0.663313 0.743629 -0.218147
H1    H     H_    0.837584 0.660215 0.707327 0.118666
H2    H     H_    0.995810 0.596037 0.772933 0.085858
C6    C     C_3   0.954414 0.737668 0.811241 -0.224792
H3    H     H_    0.938084 0.706180 0.872671 0.117880
H4    H     H_    0.824775 0.776853 0.796719 0.217632
H5    H     H_    0.987004 0.786827 0.617211 0.101151
H6    H     H_    0.985929 0.893530 0.720717 0.102295
C7    C     C_3   0.122923 0.781294 0.653854 -0.179086
C8    C     C_3   0.332741 0.680471 0.740699 -0.192832
C9    C     C_3   0.146613 0.683418 0.686706 -0.058713
H7    H     H_    0.456911 0.703173 0.703859 0.121428
H8    H     H_    0.364686 0.609547 0.759721 0.049168
C10   C     C_3   0.125759 0.803848 0.811196 -0.105572
C11   C     C_3   0.119386 0.851576 0.725958 -0.185194
C12   C     C_3   0.309470 0.741464 0.818761 0.302217
H9    H     H_    0.287528 0.695345 0.871767 0.024139
H10   H     H_    0.243102 0.797109 0.611961 0.095185
H11   H     H_    0.239982 0.899459 0.719958 0.127814
C13   C     C_2   0.998284 0.686837 0.259512 0.352741
C14   C     C_2   0.150361 0.672147 0.311240 -0.224160
H12   H     H_    0.286293 0.703678 0.298046 0.133071
C15   C     C_2   0.011259 0.750258 0.188221 -0.125391
C16   C     C_2   0.122540 0.824918 0.185454 0.224062
H13   H     H_    0.921355 0.733965 0.134875 0.083746
C17   C     C_2   0.747072 0.225943 0.795138 -0.044038
C18   C     C_2   0.596533 0.171577 0.808567 0.311714
H14   H     H_    0.875262 0.220580 0.833828 0.040323
C19   C     C_2   0.735748 0.303666 0.737826 -0.117745
C20   C     C_2   0.657675 0.301245 0.660980 0.273097
H15   H     H_    0.795026 0.367155 0.760937 0.017040
C21   C     C_2   0.766541 0.218026 0.203627 -0.168058
C22   C     C_2   0.614354 0.163756 0.187147 0.140722
H16   H     H_    0.883547 0.219006 0.159962 0.127350
C23   C     C_2   0.792358 0.275457 0.279175 0.363801
C24   C     C_2   0.642091 0.320248 0.314024 -0.174650
H17   H     H_    0.500180 0.313549 0.286305 0.139194
O11   O     O_R   0.770850 0.076180 0.907410 -0.575576
O12   O     O_R   0.440600 0.088970 0.079950 -0.530100
O13   O     O_R   0.270430 0.912340 0.080550 -0.582546
C25   C     C_R   0.608869 0.108290 0.110311 0.770452
O14   O     O_R   0.441120 0.087010 0.907980 -0.570688
O15   O     O_R   0.270950 0.910370 0.907350 -0.508790
C26   C     C_R   0.605906 0.106020 0.877822 0.757126
O16   O     O_R   0.770320 0.078150 0.080620 -0.572110
O17   O     O_3   0.604200 0.936340 0.994000 -0.219441
V3    V     V_3+5 0.329300 0.004970 0.993950 1.210564
O18   O     O_R   0.941240 0.899420 0.907920 -0.525347
C27   C     C_R   0.111088 0.874773 0.881016 0.804420
O19   O     O_R   0.940720 0.901380 0.079890 -0.570480
C28   C     C_R   0.110647 0.883428 0.110821 0.789672
V4    V     V_3+5 0.829310 0.983370 0.993880 1.206854
O20   O     O_3   0.104280 0.052120 0.993920 -0.279330
N1    N     N_R   0.485102 0.792030 0.835681 0.067608
O21   O     O_R   0.579804 0.777426 0.904006 -0.375156
O22   O     O_R   0.535933 0.858091 0.788311 -0.427100
N2    N     N_R   0.827020 0.633451 0.264547 0.089103
O23   O     O_R   0.660640 0.671145 0.249373 -0.402585
O24   O     O_R   0.840037 0.545322 0.264208 -0.363375
O25   O     O_3   0.213694 0.854848 0.257713 -0.656611
C29   C     C_3   0.400674 0.886895 0.243037 0.263256
H18   H     H_    0.393076 0.956939 0.218701 0.116618
H19   H     H_    0.480523 0.841473 0.199719 0.077280
C30   C     C_3   0.513385 0.890321 0.323947 -0.252877
H20   H     H_    0.525372 0.821418 0.350556 0.130807
H21   H     H_    0.660223 0.916241 0.313095 0.102214
H22   H     H_    0.439773 0.936147 0.368491 0.174882
O26   O     O_3   0.422926 0.190382 0.766781 -0.638067
C31   C     C_3   0.315303 0.111274 0.748135 0.260034
H23   H     H_    0.217391 0.096397 0.799594 0.075202
H24   H     H_    0.408842 0.051136 0.734902 0.070237
C32   C     C_3   0.185667 0.127564 0.673413 -0.240851
H25   H     H_    0.271275 0.128708 0.616516 0.199661
H26   H     H_    0.080433 0.071616 0.667195 0.085280
H27   H     H_    0.106044 0.192818 0.680443 0.148819
N3    N     N_R   0.616245 0.217452 0.617573 0.091422
O27   O     O_R   0.524787 0.220351 0.547143 -0.334622
O28   O     O_R   0.704888 0.142458 0.637217 -0.383454
N4    N     N_R   0.467520 0.149387 0.247385 0.075404
O29   O     O_R   0.288917 0.139944 0.224275 -0.310921
O30   O     O_R   0.515844 0.131056 0.323157 -0.328708
N5    N     N_R   0.984953 0.287537 0.309633 0.121284
O31   O     O_R   0.114157 0.321411 0.262010 -0.336732
O32   O     O_R   0.037913 0.251403 0.379167 -0.272028

loop_
_geom_bond_atom_site_label_1
_geom_bond_atom_site_label_2
_geom_bond_distance
_ccdc_geom_bond_type
C7    C11   1.554703 S    
O19   V4    2.000808 S    
C8    C12   1.554877 S    
N2    O23   1.300564 A    
N4    O29   1.301004 A    
C1    O6    1.300587 A    
C15   H13   1.087361 S    
O11   C26   1.311668 A    
C31   H23   1.110135 S    
C8    C9    1.554108 S    
O17   V3    2.154396 S    
O18   V4    2.014103 S    
C13   C14   1.358943 D    
C2    C24   1.482113 S    
O5    C3    1.301588 A    
C10   C11   1.559691 S    
C29   C30   1.521270 S    
O11   V4    2.006663 S    
O14   C26   1.286953 A    
V2    O10   2.172908 S    
C5    C6    1.548995 S    
C22   C25   1.484012 S    
C19   H15   1.087208 S    
C3    C14   1.485586 S    
O8    V2    2.000760 S    
C21   C23   1.492259 S    
V3    O20   1.706221 S    
V4    O20   2.172947 S    
C16   C28   1.496450 S    
O12   V3    2.007988 S    
N1    O21   1.301481 A    
O1    V2    2.011960 S    
C4    C9    1.521326 S    
O7    V1    2.154440 S    
C29   H18   1.110410 S    
C7    H10   1.112834 S    
C23   N5    1.433558 S    
C21   H16   1.086781 S    
O19   C28   1.303793 A    
O9    C4    1.302946 A    
C18   O26   1.403811 S    
N2    O24   1.301449 A    
C17   H14   1.086447 S    
C30   H22   1.110702 S    
C29   H19   1.115346 S    
C31   H24   1.115178 S    
C23   C24   1.357337 D    
C5    C9    1.555933 S    
O26   C31   1.419374 S    
C30   H21   1.110803 S    
C15   C16   1.353143 D    
O4    C2    1.297891 A    
C1    C20   1.466313 S    
C19   C20   1.354239 D    
C22   N4    1.442303 S    
C16   O25   1.395171 S    
C17   C19   1.485235 S    
O2    C1    1.287881 A    
C14   H12   1.082564 S    
C32   H27   1.110852 S    
C6    H3    1.112639 S    
N3    O28   1.301450 A    
C5    H1    1.113083 S    
O13   V3    2.019952 S    
O25   C29   1.412035 S    
O3    C4    1.301019 A    
C18   C26   1.491521 S    
C21   C22   1.354892 D    
C32   H26   1.110809 S    
O6    V2    2.006226 S    
N5    O32   1.301124 A    
O12   C25   1.296644 A    
C11   H11   1.107469 S    
C17   C18   1.346263 D    
O2    V1    2.025412 S    
C24   H17   1.084090 S    
C31   C32   1.521662 S    
O14   V3    2.025455 S    
O1    C2    1.299705 A    
C8    H7    1.113417 S    
C13   C15   1.500540 S    
C6    H4    1.090657 S    
C30   H20   1.110395 S    
O5    V1    2.019879 S    
C12   N1    1.458418 S    
O8    C3    1.300209 A    
N4    O30   1.301678 A    
C25   O16   1.300257 A    
C7    C9    1.550631 S    
O13   C28   1.298781 A    
O15   V3    2.009261 S    
O17   V4    1.718380 S    
C12   H9    1.115943 S    
O9    V2    2.014097 S    
O7    V2    1.719574 S    
H6    C11   1.113209 S    
O4    V1    2.007895 S    
O3    V1    2.009270 S    
V1    O10   1.706206 S    
C6    C10   1.547405 S    
C10   C12   1.571299 S    
O16   V4    2.015788 S    
O18   C27   1.311546 A    
N3    O27   1.301955 A    
C5    H2    1.112866 S    
H5    C7    1.112938 S    
C10   C27   1.537079 S    
C13   N2    1.437727 S    
C20   N3    1.444667 S    
C32   H25   1.106172 S    
C8    H8    1.113155 S    
N5    O31   1.300412 A    
N1    O22   1.302421 A    
O15   C27   1.299068 A    
