data_mof_unit_32110.cif
_audit_creation_date              2012-12-11T14:08:34-0500
_audit_creation_method            fapswitch 2.2
_symmetry_space_group_name_H-M    P1
_symmetry_Int_Tables_number       1
_space_group_crystal_system       triclinic
_cell_length_a                    28.180462
_cell_length_b                    7.197729
_cell_length_c                    17.189576
_cell_angle_alpha                 90.033531
_cell_angle_beta                  101.871956
_cell_angle_gamma                 89.959009
_cell_volume                      3412.07185778

loop_
_atom_site_label
_atom_site_type_symbol
_atom_type_description
_atom_site_fract_x
_atom_site_fract_y
_atom_site_fract_z
_atom_type_partial_charge
O1    O     O_R   0.000700 0.436510 0.857920 -0.532510
O2    O     O_R   0.999300 0.563490 0.142080 -0.533805
O3    O     O_R   0.999300 0.936510 0.642080 -0.532443
O4    O     O_R   0.000700 0.063490 0.357920 -0.533619
O5    O     O_R   0.930080 0.766380 0.721890 -0.541324
O6    O     O_R   0.069920 0.233620 0.278110 -0.542881
O7    O     O_R   0.069920 0.266380 0.778110 -0.540975
O8    O     O_R   0.930080 0.733620 0.221890 -0.542941
C1    C     C_R   0.910565 0.597841 0.709240 0.700444
C2    C     C_R   0.089385 0.402424 0.290970 0.700374
C3    C     C_R   0.089434 0.097506 0.790886 0.699715
C4    C     C_R   0.910618 0.902253 0.208743 0.700490
O9    O     O_R   0.996180 0.766230 0.862310 -0.543913
O10   O     O_R   0.003820 0.233770 0.137690 -0.542752
O11   O     O_R   0.003820 0.266230 0.637690 -0.543728
O12   O     O_R   0.996180 0.733770 0.362310 -0.542570
O13   O     O_R   0.065870 0.936460 0.783500 -0.540215
O14   O     O_R   0.934130 0.063540 0.216500 -0.537910
O15   O     O_R   0.934130 0.436460 0.716500 -0.540050
O16   O     O_R   0.065870 0.563540 0.283500 -0.538049
C5    C     C_R   0.998484 0.596477 0.894485 0.759911
C6    C     C_R   0.001515 0.403525 0.105515 0.760297
C7    C     C_R   0.001516 0.096429 0.605530 0.760698
C8    C     C_R   0.998484 0.903573 0.394470 0.761289
O17   O     O_3   0.022790 0.603020 0.723980 -0.377789
O18   O     O_3   0.977210 0.396980 0.276020 -0.378269
O19   O     O_3   0.977210 0.103020 0.776020 -0.378042
O20   O     O_3   0.022790 0.896980 0.223980 -0.378646
V1    V     V_3+5 0.995770 0.877900 0.754830 1.410151
V2    V     V_3+5 0.004230 0.122100 0.245170 1.409516
V3    V     V_3+5 0.004230 0.377900 0.745170 1.410555
V4    V     V_3+5 0.995770 0.622100 0.254830 1.409603
C9    C     C_2   0.001709 0.082607 0.519575 -0.331466
C10   C     C_2   0.998294 0.917399 0.480425 -0.329708
C11   C     C_2   0.998295 0.582642 0.980456 -0.331457
C12   C     C_2   0.001703 0.417365 0.019544 -0.329790
H1    H     H_    0.004504 0.211361 0.487902 0.153558
H2    H     H_    0.995499 0.788645 0.512099 0.153910
H3    H     H_    0.995506 0.711417 0.012190 0.153433
H4    H     H_    0.004490 0.288591 0.987810 0.153772
C13   C     C_R   0.683369 0.938691 0.022730 0.635166
C14   C     C_R   0.317420 0.056873 0.969964 0.634061
C15   C     C_R   0.315895 0.473925 0.475123 0.635711
C16   C     C_R   0.682769 0.561151 0.528836 0.634489
O21   O     O_2   0.712886 0.944018 0.970102 -0.503475
O22   O     O_2   0.288803 0.089886 0.022508 -0.500190
O23   O     O_2   0.285987 0.491784 0.526736 -0.504811
O24   O     O_2   0.711893 0.575501 0.475845 -0.501030
N1    N     N_R   0.702908 0.930613 0.102339 -0.556070
N2    N     N_R   0.297289 0.045488 0.890685 -0.556463
N3    N     N_R   0.296847 0.445747 0.396247 -0.556993
N4    N     N_R   0.702536 0.563040 0.608408 -0.556235
C17   C     C_R   0.673901 0.921843 0.157127 0.700573
C18   C     C_R   0.325277 0.010401 0.835948 0.695964
C19   C     C_R   0.326197 0.425078 0.342489 0.701275
C20   C     C_R   0.673939 0.548541 0.663637 0.697166
C21   C     C_R   0.781044 0.088901 0.161638 0.018567
C22   C     C_R   0.223440 0.233282 0.833856 0.016846
C23   C     C_R   0.218044 0.596084 0.335335 0.015670
C24   C     C_R   0.777443 0.744049 0.665187 0.019662
C25   C     C_R   0.831695 0.077740 0.187869 -0.274659
C26   C     C_R   0.172569 0.242280 0.809812 -0.275041
C27   C     C_R   0.167487 0.581094 0.309611 -0.273676
C28   C     C_R   0.828235 0.748108 0.690068 -0.273441
C29   C     C_R   0.830538 0.753875 0.149801 -0.201074
C30   C     C_R   0.165754 0.920522 0.846684 -0.192862
C31   C     C_R   0.170254 0.258330 0.349567 -0.201841
C32   C     C_R   0.833403 0.425057 0.653694 -0.197040
C33   C     C_R   0.780308 0.763406 0.123039 -0.116186
C34   C     C_R   0.216075 0.910020 0.871100 -0.127633
C35   C     C_R   0.220487 0.271714 0.376015 -0.114484
C36   C     C_R   0.783019 0.419209 0.628693 -0.123865
C37   C     C_R   0.755009 0.928843 0.128916 0.369094
C38   C     C_R   0.245395 0.064147 0.864867 0.373305
C39   C     C_R   0.244862 0.438814 0.369169 0.370558
C40   C     C_R   0.754548 0.576596 0.634292 0.370251
C41   C     C_R   0.601989 0.940843 0.050540 -0.114309
C42   C     C_R   0.397621 0.002054 0.942040 -0.111714
C43   C     C_R   0.397544 0.469320 0.448440 -0.114021
C44   C     C_R   0.601868 0.532306 0.557267 -0.112270
C45   C     C_R   0.632768 0.942997 0.995398 -0.021275
C46   C     C_R   0.367686 0.034845 0.997066 -0.020707
C47   C     C_R   0.366385 0.485833 0.502651 -0.019748
C48   C     C_R   0.632354 0.544886 0.501865 -0.020293
C49   C     C_R   0.612558 0.952164 0.914105 -0.079113
C50   C     C_R   0.388440 0.046656 0.078053 -0.092958
C51   C     C_R   0.386088 0.516842 0.583071 -0.083597
C52   C     C_R   0.611997 0.543040 0.420573 -0.087979
C53   C     C_R   0.622661 0.928646 0.132688 -0.070022
C54   C     C_R   0.376286 0.989075 0.860176 -0.068094
C55   C     C_R   0.377334 0.438021 0.367084 -0.070855
C56   C     C_R   0.622753 0.535411 0.639483 -0.068400
C57   C     C_R   0.856934 0.911073 0.182283 -0.032615
C58   C     C_R   0.143236 0.086851 0.815942 -0.034679
C59   C     C_R   0.143070 0.413244 0.316520 -0.032485
C60   C     C_R   0.856745 0.589799 0.684388 -0.034731
H5    H     H_    0.848753 0.623600 0.143998 0.130943
H6    H     H_    0.144484 0.798131 0.852742 0.134611
H7    H     H_    0.152642 0.127299 0.356207 0.130068
H8    H     H_    0.854069 0.300661 0.648041 0.134046
H9    H     H_    0.760757 0.641222 0.097456 0.150977
H10   H     H_    0.232530 0.780965 0.895344 0.130831
H11   H     H_    0.240722 0.151472 0.402235 0.150755
H12   H     H_    0.765855 0.291379 0.604457 0.137729
H13   H     H_    0.635418 0.955897 0.870567 0.193552
H14   H     H_    0.366314 0.074314 0.121384 0.204606
H15   H     H_    0.362904 0.533404 0.625683 0.194501
H16   H     H_    0.634520 0.556603 0.376832 0.199746
C61   C     C_R   0.478992 0.958972 0.913429 0.001627
C62   C     C_R   0.520093 0.959748 0.079107 0.001771
C63   C     C_R   0.519918 0.513256 0.585867 0.001637
C64   C     C_R   0.479730 0.477029 0.420550 0.001365
C65   C     C_R   0.469245 0.987564 0.052019 0.071321
C66   C     C_R   0.530420 0.955107 0.940336 0.065449
C67   C     C_R   0.530592 0.504875 0.447279 0.069710
C68   C     C_R   0.468542 0.508341 0.558305 0.068544
C69   C     C_R   0.448771 0.982588 0.969185 0.067629
C70   C     C_R   0.550672 0.951583 0.023283 0.067132
C71   C     C_R   0.550632 0.516697 0.530130 0.067626
C72   C     C_R   0.448768 0.484750 0.475811 0.066459
C73   C     C_R   0.456686 0.939032 0.832331 -0.279391
C74   C     C_R   0.541391 0.938343 0.160530 -0.279726
C75   C     C_R   0.541694 0.513150 0.667676 -0.282122
C76   C     C_R   0.458829 0.439243 0.340112 -0.277823
C77   C     C_R   0.406230 0.953836 0.805288 0.412551
C78   C     C_R   0.591791 0.923055 0.187741 0.408701
C79   C     C_R   0.592182 0.524418 0.694879 0.407407
C80   C     C_R   0.408528 0.420545 0.312929 0.411053
O25   O     O_2   0.303637 0.996919 0.758513 -0.465790
O26   O     O_2   0.694810 0.908182 0.234883 -0.463743
O27   O     O_2   0.695171 0.547259 0.741481 -0.466212
O28   O     O_2   0.305708 0.393707 0.265543 -0.462186
C81   C     C_R   0.562580 0.957992 0.887030 -0.187112
C82   C     C_R   0.438053 0.023904 0.105067 -0.186178
C83   C     C_R   0.435964 0.528166 0.610411 -0.186667
C84   C     C_R   0.562283 0.523911 0.393730 -0.187866
H17   H     H_    0.155831 0.371544 0.786123 0.129245
H18   H     H_    0.851528 0.200226 0.212807 0.129347
H19   H     H_    0.845585 0.876424 0.713625 0.129471
H20   H     H_    0.147061 0.701700 0.283919 0.129804
H21   H     H_    0.477646 0.906619 0.788329 0.112034
H22   H     H_    0.519426 0.927977 0.204712 0.115896
H23   H     H_    0.520291 0.499151 0.712460 0.116380
H24   H     H_    0.481022 0.418099 0.296846 0.114962
H25   H     H_    0.550419 0.970781 0.823628 0.131510
H26   H     H_    0.450992 0.041500 0.168104 0.127104
H27   H     H_    0.447674 0.557846 0.672826 0.124972
H28   H     H_    0.549740 0.529806 0.330203 0.128854
C85   C     C_2   0.251722 0.403610 0.825785 0.423470
H29   H     H_    0.233475 0.523676 0.795059 0.046624
O29   O     O_2   0.295126 0.414090 0.853550 -0.518261
C86   C     C_2   0.757328 0.270331 0.169156 0.412573
H30   H     H_    0.778046 0.381606 0.202823 0.044057
O30   O     O_2   0.715146 0.299940 0.137373 -0.520783
C87   C     C_2   0.750260 0.918099 0.671836 0.421602
H31   H     H_    0.768686 0.034422 0.705281 0.044218
O31   O     O_2   0.707721 0.936207 0.639424 -0.520336
C88   C     C_2   0.240821 0.778416 0.325859 0.411922
H32   H     H_    0.219018 0.889230 0.293763 0.044758
O32   O     O_2   0.283505 0.809044 0.353882 -0.519410
O33   O     O_3   0.385860 0.933979 0.725325 -0.598422
H33   H     H_    0.411684 0.911435 0.695015 0.289139
O34   O     O_3   0.611206 0.902980 0.268032 -0.600162
H34   H     H_    0.584838 0.902372 0.298354 0.289379
O35   O     O_3   0.611968 0.525207 0.775531 -0.598393
H35   H     H_    0.585743 0.519840 0.806085 0.291903
O36   O     O_3   0.389522 0.385466 0.233492 -0.601772
H36   H     H_    0.416012 0.380967 0.203474 0.286500

loop_
_geom_bond_atom_site_label_1
_geom_bond_atom_site_label_2
_ccdc_geom_bond_type
O17   V3    S    
C88   O32   D    
N1    C17   A    
C22   C26   A    
O1    C5    A    
O19   V1    S    
O13   V1    S    
C27   H20   S    
O3    C7    A    
O34   H34   S    
C14   C46   A    
C44   C48   A    
O4    V2    S    
O15   V3    S    
C62   C70   A    
O33   H33   S    
C61   C69   A    
C68   C83   A    
C42   C54   A    
O7    C3    A    
C41   C53   A    
C32   C60   A    
C63   C71   A    
C79   O35   S    
N3    C39   S    
C18   C54   A    
N2    C38   S    
C52   H16   S    
C23   C88   S    
C25   C57   A    
C25   H18   S    
C31   C35   A    
C87   O31   D    
C67   C84   A    
C21   C86   S    
C27   C59   A    
O1    V3    S    
C15   C47   A    
C33   H9    S    
O2    V4    S    
C14   O22   S    
C21   C37   A    
O3    V1    S    
C34   C38   A    
C19   C55   A    
C73   C77   A    
C1    O15   A    
C11   C12   D    
C2    O16   A    
C7    C9    S    
O2    C6    A    
C80   O36   S    
C33   C37   A    
C63   C68   A    
O14   V2    S    
C43   C55   A    
C22   C85   S    
C32   C36   A    
C76   C80   A    
C16   N4    A    
O11   C7    A    
C44   C71   A    
O12   C8    A    
C31   C59   A    
C50   H14   S    
O10   V2    S    
C49   H13   S    
C13   N1    A    
C50   C82   A    
O5    V1    S    
C53   C78   A    
C82   H26   S    
O7    V3    S    
C55   C80   A    
C63   C75   A    
O8    V4    S    
C73   H21   S    
C12   H4    S    
C42   C69   A    
C52   C84   A    
C41   C70   A    
O36   H36   S    
C64   C72   A    
O18   V4    S    
C36   H12   S    
N4    C40   S    
C46   C50   A    
O11   V3    S    
C24   C40   A    
C8    C10   S    
C68   C72   A    
C74   C78   A    
C11   H3    S    
C32   H8    S    
O5    C1    A    
C51   C83   A    
C54   C77   A    
C42   C46   A    
C75   C79   A    
C1    C60   S    
C41   C45   A    
O8    C4    A    
C13   C45   A    
C43   C72   A    
C9    C10   D    
O9    C5    A    
C36   C40   A    
C66   C70   A    
C21   C25   A    
C44   C56   A    
C62   C65   A    
C28   C60   A    
C84   H28   S    
C61   C66   A    
C14   N2    A    
C65   C69   A    
C3    C58   S    
O6    V2    S    
C86   O30   D    
C67   C71   A    
C65   C82   A    
C26   C58   A    
C17   C53   A    
C88   H32   S    
N1    C37   S    
C4    C57   S    
C81   H25   S    
C74   H22   S    
O10   C6    A    
C4    O14   A    
C78   O34   S    
C56   C79   A    
C23   C39   A    
C22   C38   A    
O16   V4    S    
O9    V1    S    
C18   O25   S    
C35   H11   S    
C3    O13   A    
C10   H2    S    
C23   C27   A    
C77   O33   S    
C48   C52   A    
C17   O26   S    
C16   C48   A    
C47   C51   A    
O6    C2    A    
C34   H10   S    
C64   C76   A    
C5    C11   S    
C31   H7    S    
O12   V4    S    
C6    C12   S    
C83   H27   S    
C30   C58   A    
C24   C28   A    
C30   H6    S    
C85   O29   D    
C24   C87   S    
C29   H5    S    
N2    C18   A    
C85   H29   S    
C62   C74   A    
C35   C39   A    
C15   N3    A    
C30   C34   A    
C2    C59   S    
O4    C8    A    
C29   C33   A    
O20   V2    S    
C29   C57   A    
C66   C81   A    
N3    C19   A    
C26   H17   S    
C9    H1    S    
C20   O27   S    
C43   C47   A    
N4    C20   A    
O35   H35   S    
C20   C56   A    
C51   H15   S    
C86   H30   S    
C19   O28   S    
C75   H23   S    
C87   H31   S    
C13   O21   S    
C76   H24   S    
C61   C73   A    
C15   O23   S    
C64   C67   A    
C45   C49   A    
C16   O24   S    
C49   C81   A    
C28   H19   S    
