data_mof_unit_44026.cif
_audit_creation_date              2012-10-26T19:53:30-0400
_audit_creation_method            fapswitch 2.2
_symmetry_space_group_name_H-M    P1
_symmetry_Int_Tables_number       1
_space_group_crystal_system       triclinic
_cell_length_a                    9.115515
_cell_length_b                    7.820974
_cell_length_c                    10.697039
_cell_angle_alpha                 90.04591
_cell_angle_beta                  89.692438
_cell_angle_gamma                 89.735105
_cell_volume                      762.596108095

loop_
_atom_site_label
_atom_site_type_symbol
_atom_type_description
_atom_site_fract_x
_atom_site_fract_y
_atom_site_fract_z
_atom_type_partial_charge
C1    C     C_R   0.220125 0.500237 0.499935 0.544248
C2    C     C_3   0.637728 0.456525 0.040578 0.016945
C3    C     C_3   0.502538 0.498989 0.876881 0.028945
C4    C     C_3   0.503453 0.500332 0.123098 0.040536
C5    C     C_1   0.065354 0.500310 0.499764 -0.066966
C6    C     C_1   0.934640 0.499644 0.499697 -0.065149
C7    C     C_3   0.218924 0.588172 0.903541 -0.266474
C8    C     C_3   0.114569 0.667013 0.999502 -0.449046
C9    C     C_3   0.794910 0.421566 0.084972 -0.282038
C10   C     C_3   0.813776 0.251946 0.153716 -0.430296
C11   C     C_3   0.429714 0.833234 0.090067 -0.387728
C12   C     C_R   0.779874 0.499752 0.499760 0.546928
C13   C     C_3   0.581140 0.168206 0.908208 -0.385718
C14   C     C_3   0.709521 0.740281 0.904022 -0.405560
C15   C     C_3   0.292805 0.259147 0.091623 -0.396886
C16   C     C_R   0.501416 0.500056 0.259145 0.546138
C17   C     C_R   0.501602 0.499819 0.740802 0.540797
C18   C     C_3   0.467536 0.656487 0.040728 0.012367
C19   C     C_3   0.539001 0.342999 0.958611 0.008555
C20   C     C_3   0.600893 0.612642 0.957665 -0.012714
C21   C     C_3   0.404556 0.386334 0.041639 -0.000496
C22   C     C_3   0.368566 0.542896 0.959241 0.019309
Cu1   Cu    Cu3+1 0.500000 0.669080 0.500000 0.984272
Cu2   Cu    Cu3+1 0.500000 0.330920 0.500000 0.979707
H1    H     H_    0.112945 0.592361 0.087564 0.153285
H2    H     H_    0.828213 0.527779 0.147584 0.141644
H3    H     H_    0.393951 0.914559 0.011199 0.119928
H4    H     H_    0.339480 0.824882 0.159716 0.148086
H5    H     H_    0.526981 0.889455 0.136153 0.144868
H6    H     H_    0.607263 0.082932 0.986992 0.117867
H7    H     H_    0.488799 0.113790 0.854256 0.152085
H8    H     H_    0.679370 0.179165 0.847050 0.144566
H9    H     H_    0.766376 0.807419 0.981110 0.115026
H10   H     H_    0.790158 0.672085 0.843846 0.129364
H11   H     H_    0.650494 0.834692 0.845640 0.158832
H12   H     H_    0.144619 0.801288 0.019401 0.145677
H13   H     H_    0.238567 0.193189 0.012608 0.120001
H14   H     H_    0.348794 0.164041 0.151560 0.151919
H15   H     H_    0.208912 0.326493 0.148898 0.129316
H16   H     H_    0.003087 0.669684 0.960194 0.128482
H17   H     H_    0.234223 0.680399 0.825691 0.158130
H18   H     H_    0.169473 0.470082 0.864683 0.138988
H19   H     H_    0.723145 0.229038 0.220668 0.193124
H20   H     H_    0.820132 0.144518 0.086240 0.133963
H21   H     H_    0.918444 0.253744 0.206343 0.136160
H22   H     H_    0.868952 0.420393 0.002328 0.144578
N1    N     N_1   0.500000 0.076820 0.500000 -0.093724
N2    N     N_1   0.500000 0.923180 0.500000 -0.092088
O1    O     O_R   0.288390 0.642760 0.500000 -0.498013
O2    O     O_R   0.711610 0.357240 0.500000 -0.500317
O3    O     O_R   0.711610 0.642760 0.500000 -0.495726
O4    O     O_R   0.288390 0.357240 0.500000 -0.495221
O5    O     O_R   0.499960 0.642760 0.316850 -0.510567
O6    O     O_R   0.500040 0.357240 0.683150 -0.509159
O7    O     O_R   0.500040 0.642760 0.683150 -0.512163
O8    O     O_R   0.499960 0.357240 0.316850 -0.518588

loop_
_geom_bond_atom_site_label_1
_geom_bond_atom_site_label_2
_ccdc_geom_bond_type
C14   H10   S    
C2    C4    S    
Cu1   Cu2   S    
C16   O8    A    
C15   H14   S    
C3    C19   S    
C4    C21   S    
Cu2   O8    S    
C7    C22   S    
C9    C10   S    
C17   O7    A    
C13   H8    S    
Cu1   O3    S    
N1    N2    T    
C10   H20   S    
C11   H3    S    
C4    C18   S    
C14   H9    S    
C10   H19   S    
C9    H22   S    
C11   C18   S    
C21   C22   S    
Cu1   O7    S    
C8    H1    S    
Cu2   N1    S    
C15   H15   S    
C15   C21   S    
C11   H4    S    
C10   H21   S    
C1    C5    S    
Cu1   O5    S    
C4    C16   S    
C19   C21   S    
C9    H2    S    
C3    C17   S    
C18   C20   S    
Cu2   O4    S    
C7    H17   S    
Cu2   O2    S    
C5    C6    T    
C1    O4    A    
Cu1   O1    S    
C7    C8    S    
C13   C19   S    
Cu2   O6    S    
C6    C12   S    
C14   C20   S    
C13   H6    S    
C3    C20   S    
C12   O3    A    
C11   H5    S    
C8    H12   S    
C7    H18   S    
C14   H11   S    
C2    C20   S    
C16   O5    A    
C15   H13   S    
C3    C22   S    
Cu1   N2    S    
C8    H16   S    
C2    C19   S    
C18   C22   S    
C2    C9    S    
C1    O1    A    
C17   O6    A    
C13   H7    S    
C12   O2    A    
