data_mof_unit_7635.cif
_audit_creation_date              2012-12-10T20:55:42-0500
_audit_creation_method            fapswitch 2.2
_symmetry_space_group_name_H-M    P1
_symmetry_Int_Tables_number       1
_space_group_crystal_system       triclinic
_cell_length_a                    15.840306
_cell_length_b                    15.01666
_cell_length_c                    10.61123
_cell_angle_alpha                 89.558364
_cell_angle_beta                  89.927433
_cell_angle_gamma                 90.092058
_cell_volume                      2523.99694812

loop_
_atom_site_label
_atom_site_type_symbol
_atom_type_description
_atom_site_fract_x
_atom_site_fract_y
_atom_site_fract_z
_atom_type_partial_charge
C1    C     C_1   0.250706 0.499692 0.489450 -0.205701
C2    C     C_1   0.749264 0.500285 0.489379 -0.208933
C3    C     C_R   0.474915 0.498605 0.876842 -0.238644
C4    C     C_R   0.528967 0.501459 0.124500 -0.239967
C5    C     C_R   0.500005 0.905059 0.499938 0.040268
C6    C     C_R   0.500064 0.094943 0.499833 0.040688
C7    C     C_R   0.444855 0.953372 0.421427 -0.115130
C8    C     C_R   0.555227 0.046629 0.578313 -0.117410
C9    C     C_R   0.555186 0.952711 0.578392 -0.100790
C10   C     C_R   0.444898 0.047294 0.421345 -0.099253
C11   C     C_R   0.956370 0.582290 0.459164 0.096676
C12   C     C_R   0.043563 0.416598 0.471267 0.096408
C13   C     C_R   0.045131 0.581060 0.448872 0.112970
C14   C     C_R   0.954837 0.417183 0.460533 0.113861
C15   C     C_R   0.338772 0.499922 0.499723 0.906568
C16   C     C_R   0.661222 0.500070 0.499985 0.908378
C17   C     C_R   0.514587 0.500450 0.260367 0.893393
C18   C     C_R   0.486897 0.499555 0.740398 0.889288
C19   C     C_R   0.912857 0.500083 0.464306 0.020878
C20   C     C_R   0.087100 0.498758 0.464676 0.020096
C21   C     C_1   0.499996 0.807275 0.499974 0.029678
C22   C     C_1   0.500031 0.192725 0.499914 0.030210
C23   C     C_1   0.823731 0.500338 0.477761 -0.032023
C24   C     C_1   0.176231 0.499254 0.478046 -0.033245
C25   C     C_R   0.542546 0.665894 0.108330 -0.260999
C26   C     C_R   0.462569 0.333726 0.893510 -0.262172
C27   C     C_R   0.448133 0.661204 0.888903 -0.260707
C28   C     C_R   0.556775 0.339403 0.113097 -0.259926
C29   C     C_R   0.516581 0.746439 0.053223 -0.004169
C30   C     C_R   0.489088 0.253447 0.948937 -0.004572
C31   C     C_R   0.467876 0.744009 0.941455 0.006803
C32   C     C_R   0.537693 0.256396 0.060776 0.007622
C33   C     C_R   0.479391 0.580785 0.940824 0.092446
C34   C     C_R   0.525294 0.419446 0.060474 0.092635
C35   C     C_R   0.517903 0.582758 0.058546 0.095400
C36   C     C_R   0.486849 0.417208 0.942699 0.095323
H1    H     H_    0.401775 0.082751 0.359818 0.154011
H2    H     H_    0.598315 0.917257 0.639911 0.155861
H3    H     H_    0.598438 0.081568 0.639686 0.159379
H4    H     H_    0.401652 0.918430 0.360040 0.157822
H5    H     H_    0.582090 0.668586 0.191439 0.150346
H6    H     H_    0.422524 0.330388 0.811044 0.150345
H7    H     H_    0.408643 0.659994 0.805635 0.147183
H8    H     H_    0.595611 0.341179 0.197070 0.147158
N1    N     N_1   0.500000 0.270550 0.500000 -0.096005
N2    N     N_1   0.500000 0.729450 0.500000 -0.096106
O1    O     O_R   0.378020 0.573650 0.500040 -0.612982
O2    O     O_R   0.621980 0.426350 0.499960 -0.613637
O3    O     O_R   0.621980 0.573650 0.499960 -0.613512
O4    O     O_R   0.378020 0.426350 0.500040 -0.612000
O5    O     O_R   0.499990 0.573670 0.316780 -0.611472
O6    O     O_R   0.500010 0.426330 0.683220 -0.613306
O7    O     O_R   0.500010 0.573670 0.683220 -0.609396
O8    O     O_R   0.499990 0.426330 0.316780 -0.607608
Zn1   Zn    Zn3+2 0.500000 0.598370 0.500000 0.960541
Zn2   Zn    Zn3+2 0.500000 0.401630 0.500000 0.960916
C37   C     C_3   0.096603 0.665577 0.421941 -0.389649
C38   C     C_3   0.133335 0.664853 0.288548 -0.834844
H9    H     H_    0.178214 0.609012 0.276019 0.265897
H10   H     H_    0.081971 0.658603 0.218037 0.253410
H11   H     H_    0.167803 0.728122 0.270350 0.244952
H12   H     H_    0.059978 0.727667 0.430010 0.208955
H13   H     H_    0.148435 0.671969 0.491742 0.204149
C39   C     C_3   0.903394 0.331371 0.445906 -0.382602
C40   C     C_3   0.866621 0.324000 0.313126 -0.851328
H14   H     H_    0.821414 0.378581 0.293024 0.261189
H15   H     H_    0.917948 0.326352 0.241803 0.256963
H16   H     H_    0.832479 0.259724 0.304014 0.241767
H17   H     H_    0.940064 0.270053 0.462627 0.208947
H18   H     H_    0.851573 0.329186 0.516521 0.206231
C41   C     C_3   0.907374 0.669742 0.466240 -0.387646
C42   C     C_3   0.885495 0.705113 0.335091 -0.844576
H19   H     H_    0.943494 0.719237 0.279824 0.261689
H20   H     H_    0.846480 0.655684 0.283852 0.260351
H21   H     H_    0.848897 0.767783 0.343621 0.244136
H22   H     H_    0.847833 0.661680 0.520318 0.213059
H23   H     H_    0.941783 0.720495 0.521439 0.183782
C43   C     C_3   0.092471 0.329952 0.491141 -0.392696
C44   C     C_3   0.114551 0.286564 0.365775 -0.832962
H24   H     H_    0.056643 0.269233 0.312693 0.259507
H25   H     H_    0.153784 0.332509 0.307632 0.264431
H26   H     H_    0.150980 0.224617 0.383453 0.243839
H27   H     H_    0.151919 0.341274 0.543847 0.210270
H28   H     H_    0.057883 0.282907 0.553481 0.183473
C45   C     C_2   0.564837 0.176251 0.132530 0.462777
H29   H     H_    0.620254 0.179738 0.192414 0.025157
O9    O     O_2   0.523296 0.107742 0.132516 -0.488064
C46   C     C_2   0.441091 0.824503 0.870175 0.461160
H30   H     H_    0.385662 0.821489 0.810273 0.024835
O10   O     O_2   0.482939 0.892800 0.870606 -0.488373
C47   C     C_2   0.468823 0.170163 0.880844 0.476612
H31   H     H_    0.413894 0.167824 0.819852 0.029424
O11   O     O_2   0.515372 0.105545 0.885238 -0.487676
C48   C     C_2   0.537278 0.829413 0.121773 0.477719
H32   H     H_    0.592270 0.831283 0.182675 0.030090
O12   O     O_2   0.491015 0.894273 0.117865 -0.487843

loop_
_geom_bond_atom_site_label_1
_geom_bond_atom_site_label_2
_ccdc_geom_bond_type
C7    C10   A    
C15   O1    A    
C17   O5    A    
C18   O6    A    
C37   H12   S    
C45   H29   S    
C27   C33   A    
C11   C19   A    
C10   H1    S    
O1    Zn1   S    
C41   H22   S    
C11   C41   S    
C13   C37   S    
C3    C33   A    
C38   H10   S    
C6    C22   S    
C3    C18   S    
C15   O4    A    
C18   O7    A    
C43   H27   S    
C20   C24   S    
N1    Zn2   S    
C8    C9    A    
C40   H15   S    
C12   C43   S    
N2    Zn1   S    
C7    H4    S    
C1    C15   S    
C8    H3    S    
C39   H18   S    
C2    C16   S    
C34   C36   A    
C38   H11   S    
C45   O9    D    
C4    C35   A    
C28   C34   A    
C16   O2    A    
C42   H21   S    
C37   H13   S    
C4    C34   A    
O7    Zn1   S    
C25   C29   A    
O8    Zn2   S    
C27   C31   A    
C28   C32   A    
C16   O3    A    
C42   H20   S    
C25   H5    S    
C47   H31   S    
C44   H25   S    
C43   C44   S    
C30   C47   S    
C6    C8    A    
C38   H9    S    
O3    Zn1   S    
C28   H8    S    
O4    Zn2   S    
C19   C23   S    
C5    C9    A    
C43   H28   S    
C47   O11   D    
C40   H16   S    
C14   C39   S    
C12   C20   A    
C39   H17   S    
C48   O12   D    
C25   C35   A    
C4    C17   S    
C26   C36   A    
C12   C14   A    
C26   C30   A    
C41   H23   S    
C26   H6    S    
C5    C7    A    
C21   N2    T    
O2    Zn2   S    
C31   C46   S    
C13   C20   A    
C14   C19   A    
C46   O10   D    
C42   H19   S    
C6    C10   A    
C44   H26   S    
C39   C40   S    
C41   C42   S    
C29   C31   A    
C30   C32   A    
C11   C13   A    
C37   C38   S    
C29   C48   S    
C3    C36   A    
C32   C45   S    
C9    H2    S    
C33   C35   A    
O5    Zn1   S    
C48   H32   S    
C44   H24   S    
C27   H7    S    
C22   N1    T    
C5    C21   S    
C46   H30   S    
C1    C24   T    
C40   H14   S    
C2    C23   T    
C17   O8    A    
O6    Zn2   S    
