data_mof_unit_61053.cif
_audit_creation_date              2013-03-05T15:42:04-0500
_audit_creation_method            fapswitch 2.2
_symmetry_space_group_name_H-M    P1
_symmetry_Int_Tables_number       1
_space_group_crystal_system       triclinic
_cell_length_a                    26.226621
_cell_length_b                    26.286839
_cell_length_c                    22.285145
_cell_angle_alpha                 90.63356
_cell_angle_beta                  53.935253
_cell_angle_gamma                 90.418976
_cell_volume                      12418.5261564

loop_
_atom_site_label
_atom_site_type_symbol
_atom_site_description
_atom_site_fract_x
_atom_site_fract_y
_atom_site_fract_z
_atom_type_partial_charge
Zn1   Zn    Zn3+2 0.823660 0.707100 0.438580 0.974137
Zn2   Zn    Zn3+2 0.823660 0.292900 0.438580 0.986366
Zn3   Zn    Zn3+2 0.323660 0.207100 0.438580 0.976908
Zn4   Zn    Zn3+2 0.323660 0.792900 0.438580 0.977376
Zn5   Zn    Zn3+2 0.676410 0.707120 0.561420 0.973030
Zn6   Zn    Zn3+2 0.676410 0.292880 0.561420 0.970863
Zn7   Zn    Zn3+2 0.176410 0.207120 0.561420 0.966710
Zn8   Zn    Zn3+2 0.176410 0.792880 0.561420 0.966651
Zn9   Zn    Zn3+2 0.737810 0.792950 0.438580 0.965095
Zn10  Zn    Zn3+2 0.737810 0.207050 0.438580 0.960573
Zn11  Zn    Zn3+2 0.237810 0.292950 0.438580 0.967857
Zn12  Zn    Zn3+2 0.237810 0.707050 0.438580 0.969271
Zn13  Zn    Zn3+2 0.762240 0.792950 0.561420 0.985575
Zn14  Zn    Zn3+2 0.762240 0.207050 0.561420 0.987051
Zn15  Zn    Zn3+2 0.262240 0.292950 0.561420 0.986451
Zn16  Zn    Zn3+2 0.262240 0.707050 0.561420 0.983729
O1    O     O_3   0.750030 0.750030 0.500000 -0.489023
O2    O     O_3   0.750030 0.249970 0.500000 -0.489918
O3    O     O_3   0.250030 0.250030 0.500000 -0.489938
O4    O     O_3   0.250030 0.749970 0.500000 -0.489235
O5    O     O_R   0.698090 0.780090 0.663980 -0.628848
O6    O     O_R   0.698090 0.219910 0.663980 -0.622544
O7    O     O_R   0.198090 0.280090 0.663980 -0.626653
O8    O     O_R   0.198090 0.719910 0.663980 -0.620405
O9    O     O_R   0.862050 0.719970 0.336020 -0.642614
O10   O     O_R   0.862050 0.280030 0.336020 -0.641603
O11   O     O_R   0.362050 0.219970 0.336020 -0.637886
O12   O     O_R   0.362050 0.780030 0.336020 -0.641627
O13   O     O_R   0.698510 0.635460 0.542990 -0.649568
O14   O     O_R   0.698510 0.364540 0.542990 -0.651865
O15   O     O_R   0.198510 0.135460 0.542990 -0.654049
O16   O     O_R   0.198510 0.864540 0.542990 -0.651236
O17   O     O_R   0.741470 0.864610 0.457010 -0.647321
O18   O     O_R   0.741470 0.135390 0.457010 -0.641423
O19   O     O_R   0.241470 0.364610 0.457010 -0.651244
O20   O     O_R   0.241470 0.635390 0.457010 -0.642523
O21   O     O_R   0.613960 0.720010 0.542990 -0.643181
O22   O     O_R   0.613960 0.279990 0.542990 -0.641457
O23   O     O_R   0.113960 0.220010 0.542990 -0.641752
O24   O     O_R   0.113960 0.779990 0.542990 -0.641042
O25   O     O_R   0.843120 0.780070 0.542990 -0.634787
O26   O     O_R   0.843120 0.219930 0.542990 -0.634230
O27   O     O_R   0.343120 0.280070 0.542990 -0.634135
O28   O     O_R   0.343120 0.719930 0.542990 -0.632710
O29   O     O_R   0.656940 0.780080 0.457010 -0.637743
O30   O     O_R   0.656940 0.219920 0.457010 -0.650979
O31   O     O_R   0.156940 0.280080 0.457010 -0.639988
O32   O     O_R   0.156940 0.719920 0.457010 -0.645022
O33   O     O_R   0.886110 0.719980 0.457010 -0.654163
O34   O     O_R   0.886110 0.280020 0.457010 -0.640842
O35   O     O_R   0.386110 0.219980 0.457010 -0.655603
O36   O     O_R   0.386110 0.780020 0.457010 -0.649318
O37   O     O_R   0.801570 0.635440 0.457010 -0.596128
O38   O     O_R   0.801570 0.364560 0.457010 -0.589749
O39   O     O_R   0.301570 0.135440 0.457010 -0.594271
O40   O     O_R   0.301570 0.864560 0.457010 -0.596672
O41   O     O_R   0.758570 0.864610 0.542990 -0.643562
O42   O     O_R   0.758570 0.135390 0.542990 -0.648604
O43   O     O_R   0.258570 0.364610 0.542990 -0.632746
O44   O     O_R   0.258570 0.635390 0.542990 -0.644655
O45   O     O_R   0.638020 0.720010 0.663980 -0.637924
O46   O     O_R   0.638020 0.279990 0.663980 -0.640559
O47   O     O_R   0.138020 0.220010 0.663980 -0.640817
O48   O     O_R   0.138020 0.779990 0.663980 -0.643119
O49   O     O_R   0.801960 0.780050 0.336020 -0.630735
O50   O     O_R   0.801960 0.219950 0.336020 -0.633438
O51   O     O_R   0.301960 0.280050 0.336020 -0.633139
O52   O     O_R   0.301960 0.719950 0.336020 -0.632684
C1    C     C_R   0.650502 0.750255 0.699112 0.819889
C2    C     C_R   0.650484 0.250054 0.698930 0.820878
C3    C     C_R   0.150478 0.250253 0.699099 0.808012
C4    C     C_R   0.150378 0.749910 0.698937 0.812091
C5    C     C_R   0.849579 0.749914 0.301074 0.818328
C6    C     C_R   0.849472 0.249922 0.300935 0.810280
C7    C     C_R   0.349590 0.249918 0.301058 0.817272
C8    C     C_R   0.349538 0.749770 0.300943 0.819905
C9    C     C_R   0.750040 0.611278 0.499400 0.917974
C10   C     C_R   0.750099 0.388667 0.499601 0.911018
C11   C     C_R   0.250268 0.111281 0.501686 0.915354
C12   C     C_R   0.250095 0.888664 0.500288 0.894605
C13   C     C_R   0.749337 0.888274 0.501346 0.665701
C14   C     C_R   0.747021 0.111679 0.501556 0.674335
C15   C     C_R   0.248097 0.388228 0.502459 0.670610
C16   C     C_R   0.248902 0.611774 0.500190 0.668960
C17   C     C_R   0.611449 0.749829 0.499982 0.843561
C18   C     C_R   0.611504 0.250123 0.499676 0.848450
C19   C     C_R   0.111222 0.250148 0.500463 0.854481
C20   C     C_R   0.111241 0.749743 0.500231 0.851852
C21   C     C_R   0.888694 0.750182 0.500046 0.859853
C22   C     C_R   0.888713 0.249891 0.499776 0.855653
C23   C     C_R   0.388643 0.250085 0.500182 0.846120
C24   C     C_R   0.388446 0.750274 0.500333 0.851230
C25   C     C_2   0.049258 0.720228 0.457183 -0.160634
C26   C     C_2   0.049387 0.279438 0.457902 -0.159095
C27   C     C_2   0.549939 0.221182 0.455768 -0.173933
C28   C     C_2   0.548384 0.780767 0.459927 -0.167052
C29   C     C_2   0.054648 0.749371 0.502933 -0.290425
C30   C     C_2   0.054388 0.250557 0.503510 -0.290551
C31   C     C_2   0.556959 0.252494 0.498308 -0.294779
C32   C     C_2   0.556310 0.747979 0.499563 -0.284384
H1    H     H_    0.087769 0.695380 0.417009 0.176199
H2    H     H_    0.088257 0.303879 0.417873 0.178539
H3    H     H_    0.586087 0.193226 0.420141 0.178009
H4    H     H_    0.583993 0.809490 0.426503 0.180321
H5    H     H_    0.017030 0.773754 0.544823 0.155236
H6    H     H_    0.016279 0.226775 0.545514 0.155365
H7    H     H_    0.523126 0.281963 0.532507 0.156410
H8    H     H_    0.522883 0.717973 0.531927 0.155349
C33   C     C_2   0.992424 0.719573 0.458597 -0.163142
C34   C     C_2   0.992505 0.280643 0.459413 -0.160140
C35   C     C_2   0.494938 0.223137 0.453646 -0.170381
C36   C     C_2   0.493523 0.779365 0.457432 -0.173731
C37   C     C_2   0.943956 0.751766 0.500082 -0.286125
C38   C     C_2   0.944311 0.248082 0.499155 -0.287349
C39   C     C_2   0.442547 0.249686 0.502939 -0.289862
C40   C     C_2   0.442006 0.751269 0.503813 -0.283403
H9    H     H_    0.991230 0.691693 0.423122 0.176508
H10   H     H_    0.991037 0.309189 0.425578 0.179637
H11   H     H_    0.497552 0.200758 0.410643 0.178120
H12   H     H_    0.495809 0.802925 0.416170 0.175144
H13   H     H_    0.943629 0.780876 0.534913 0.153775
H14   H     H_    0.944564 0.218339 0.532082 0.155029
H15   H     H_    0.437277 0.271349 0.547802 0.155467
H16   H     H_    0.437151 0.728586 0.547091 0.159070
C41   C     C_3   0.023357 0.780920 0.044025 -0.554520
C42   C     C_3   0.021072 0.285500 0.044519 -0.561601
C43   C     C_3   0.524658 0.281124 0.044246 -0.561325
C44   C     C_3   0.520188 0.712866 0.042971 -0.562964
C45   C     C_3   0.928102 0.771362 0.043455 -0.356424
C46   C     C_3   0.987214 0.196219 0.041734 -0.363740
C47   C     C_3   0.429340 0.274323 0.043405 -0.360990
C48   C     C_3   0.426647 0.732365 0.042482 -0.359926
C49   C     C_3   0.970896 0.771273 0.957343 -0.469781
C50   C     C_3   0.030031 0.196665 0.955649 -0.476659
C51   C     C_3   0.472223 0.274333 0.957270 -0.472844
C52   C     C_3   0.469786 0.733024 0.956391 -0.471027
H17   H     H_    0.066997 0.822250 0.940981 0.110710
H18   H     H_    0.110629 0.267840 0.939974 0.110820
H19   H     H_    0.569494 0.322896 0.941323 0.112533
H20   H     H_    0.560855 0.673769 0.937802 0.112846
H21   H     H_    0.009460 0.820478 0.066154 0.177327
H22   H     H_    0.047947 0.271665 0.065413 0.178173
H23   H     H_    0.511715 0.320693 0.066591 0.177647
H24   H     H_    0.502283 0.673650 0.063131 0.178649
H25   H     H_    0.884443 0.749193 0.064114 0.217175
H26   H     H_    0.946691 0.170043 0.061976 0.217680
H27   H     H_    0.385039 0.253185 0.063965 0.215132
H28   H     H_    0.385455 0.757775 0.063811 0.217959
H29   H     H_    0.913370 0.811065 0.064382 0.171400
H30   H     H_    0.014291 0.181155 0.061696 0.166139
H31   H     H_    0.415785 0.314121 0.064437 0.170050
H32   H     H_    0.407859 0.693243 0.061887 0.171257
H33   H     H_    0.975996 0.810829 0.937146 0.181200
H34   H     H_    0.077383 0.181385 0.934455 0.176075
H35   H     H_    0.478402 0.314037 0.937142 0.181209
H36   H     H_    0.471313 0.694303 0.934651 0.183151
H37   H     H_    0.948045 0.748558 0.936735 0.207002
H38   H     H_    0.009726 0.170977 0.934658 0.203691
H39   H     H_    0.448830 0.252547 0.936570 0.201450
H40   H     H_    0.449397 0.758970 0.936480 0.204483
C53   C     C_1   0.110227 0.749589 0.778337 -0.096482
C54   C     C_1   0.110567 0.250845 0.778488 -0.106524
C55   C     C_1   0.610776 0.250432 0.778322 -0.102103
C56   C     C_1   0.610898 0.750731 0.778525 -0.103381
C57   C     C_3   0.963527 0.748412 0.073259 0.207551
C58   C     C_3   0.963098 0.250661 0.073285 0.220338
C59   C     C_3   0.464035 0.249799 0.073178 0.213042
C60   C     C_3   0.463889 0.749679 0.073331 0.216976
C61   C     C_3   0.065985 0.782196 0.957663 0.192432
C62   C     C_3   0.065012 0.285450 0.958080 0.196836
C63   C     C_3   0.567448 0.282617 0.957841 0.195519
C64   C     C_3   0.563172 0.712682 0.956549 0.195145
C65   C     C_3   0.036587 0.748772 0.926786 0.140878
C66   C     C_3   0.036231 0.251496 0.926914 0.155135
C67   C     C_3   0.537290 0.250482 0.926742 0.151829
C68   C     C_3   0.537292 0.750672 0.926974 0.149759
C69   C     C_3   0.025740 0.693519 0.956030 -0.389268
C70   C     C_3   0.968753 0.269825 0.957618 -0.416252
C71   C     C_3   0.524999 0.195143 0.955765 -0.409477
C72   C     C_3   0.531397 0.804996 0.958652 -0.416080
C73   C     C_3   0.984748 0.693086 0.042415 0.379022
C74   C     C_3   0.926136 0.271512 0.044033 0.380167
C75   C     C_3   0.483777 0.194507 0.042104 0.387734
C76   C     C_3   0.490522 0.804205 0.045009 0.384591
C77   C     C_1   0.076856 0.749123 0.845132 -0.039327
C78   C     C_1   0.076984 0.251249 0.845281 -0.040929
C79   C     C_1   0.577587 0.250601 0.845114 -0.040725
C80   C     C_1   0.577701 0.750985 0.845331 -0.038687
C81   C     C_1   0.922754 0.749110 0.154888 -0.072776
C82   C     C_1   0.922587 0.250062 0.154859 -0.049868
C83   C     C_1   0.423129 0.249825 0.154834 -0.058252
C84   C     C_1   0.422844 0.748920 0.154881 -0.051306
C85   C     C_1   0.889353 0.749555 0.221687 -0.147512
C86   C     C_1   0.889132 0.249818 0.221612 -0.147396
C87   C     C_1   0.389578 0.249812 0.221640 -0.138924
C88   C     C_1   0.389306 0.749092 0.221632 -0.153847
H41   H     H_    0.015720 0.679066 0.057875 0.080450
H42   H     H_    0.914667 0.312186 0.062430 0.079537
H43   H     H_    0.513768 0.179790 0.058586 0.077851
H44   H     H_    0.521915 0.813221 0.062294 0.081409
H45   H     H_    0.071299 0.673940 0.932496 0.188100
H46   H     H_    0.969967 0.307812 0.935536 0.186078
H47   H     H_    0.570043 0.174765 0.932389 0.184509
H48   H     H_    0.578545 0.821423 0.936000 0.189093
H49   H     H_    0.049374 0.765461 0.065134 0.214780
H50   H     H_    0.005036 0.324696 0.067192 0.213578
H51   H     H_    0.550193 0.264614 0.065364 0.214376
H52   H     H_    0.547207 0.724013 0.065145 0.215045
H53   H     H_    0.002029 0.671157 0.936183 0.196044
H54   H     H_    0.948014 0.243533 0.937770 0.196006
H55   H     H_    0.500871 0.173691 0.935707 0.190459
H56   H     H_    0.509627 0.830682 0.940173 0.191228
C89   C     C_2   0.782468 0.027701 0.498620 -0.202233
C90   C     C_2   0.786696 0.972871 0.483307 -0.206647
C91   C     C_2   0.286038 0.527168 0.467977 -0.203569
C92   C     C_2   0.281259 0.472442 0.458778 -0.203305
C93   C     C_2   0.738226 0.056775 0.503964 0.444698
C94   C     C_2   0.736144 0.942189 0.516832 0.490843
C95   C     C_2   0.235679 0.557703 0.507246 0.479446
C96   C     C_2   0.238551 0.442709 0.514973 0.459883
H57   H     H_    0.821238 0.045227 0.496389 0.113684
H58   H     H_    0.833776 0.957061 0.445117 0.088589
H59   H     H_    0.333303 0.543323 0.436573 0.091294
H60   H     H_    0.318468 0.455432 0.405822 0.100266
C97   C     C_2   0.798299 0.471742 0.445308 0.402303
C98   C     C_2   0.801667 0.527559 0.452981 0.365466
C99   C     C_2   0.298340 0.971379 0.493978 0.391900
C100  C     C_2   0.301014 0.028277 0.487850 0.426445
C101  C     C_2   0.750751 0.444101 0.501642 -0.474890
C102  C     C_2   0.748836 0.555864 0.494970 -0.478421
C103  C     C_2   0.250121 0.944145 0.503002 -0.465853
C104  C     C_2   0.249569 0.055922 0.508886 -0.480609
H61   H     H_    0.711625 0.462004 0.552041 0.127591
H62   H     H_    0.702498 0.538444 0.525354 0.131513
H63   H     H_    0.208832 0.961859 0.512656 0.123348
H64   H     H_    0.203246 0.038811 0.538458 0.124294
O53   O     O_3   0.931079 0.661593 0.069372 -0.641910
C105  C     C_3   0.921680 0.626374 0.122674 0.071023
H65   H     H_    0.870699 0.616595 0.158773 0.174044
H66   H     H_    0.932882 0.642591 0.160103 0.133704
C106  C     C_3   0.959420 0.577627 0.084610 -0.342019
H67   H     H_    0.946148 0.561568 0.049209 0.242007
H68   H     H_    0.010688 0.586404 0.048541 0.220424
C107  C     C_3   0.946556 0.538028 0.141585 -0.941474
H69   H     H_    0.960872 0.552834 0.176528 0.269156
H70   H     H_    0.973893 0.502950 0.112589 0.279623
H71   H     H_    0.895625 0.528220 0.177743 0.257692
O54   O     O_3   0.871301 0.241367 0.072134 -0.640866
C108  C     C_3   0.819075 0.271370 0.091185 0.085696
H72   H     H_    0.787671 0.247097 0.084802 0.182653
H73   H     H_    0.832817 0.304329 0.053357 0.129187
C109  C     C_3   0.782241 0.288974 0.172355 -0.365995
H74   H     H_    0.767471 0.255221 0.208743 0.244202
H75   H     H_    0.812852 0.313072 0.180239 0.209997
C110  C     C_3   0.723870 0.319394 0.195603 -0.943207
H76   H     H_    0.737716 0.353948 0.160941 0.268946
H77   H     H_    0.698230 0.331350 0.254617 0.264908
H78   H     H_    0.691769 0.295783 0.189641 0.272043
O55   O     O_3   0.428907 0.164551 0.069266 -0.646757
C111  C     C_3   0.429666 0.118566 0.101153 0.079811
H79   H     H_    0.380682 0.103523 0.135392 0.175934
H80   H     H_    0.442936 0.124681 0.139895 0.132359
C112  C     C_3   0.472506 0.078972 0.041031 -0.362833
H81   H     H_    0.458621 0.074412 0.002796 0.233361
H82   H     H_    0.522357 0.091911 0.008297 0.215915
C113  C     C_3   0.467712 0.027603 0.075112 -0.961838
H83   H     H_    0.482056 0.031235 0.112968 0.273980
H84   H     H_    0.499418 0.999853 0.030436 0.263694
H85   H     H_    0.418589 0.013030 0.106570 0.258577
O56   O     O_3   0.439603 0.839055 0.074831 -0.641614
C114  C     C_3   0.450856 0.884848 0.099296 0.053272
H86   H     H_    0.422593 0.915104 0.097274 0.180387
H87   H     H_    0.501100 0.897289 0.062100 0.129357
C115  C     C_3   0.429014 0.879856 0.179755 -0.346756
H88   H     H_    0.379234 0.866559 0.215072 0.236233
H89   H     H_    0.458537 0.851376 0.182684 0.218583
C116  C     C_3   0.433627 0.930400 0.210545 -0.907782
H90   H     H_    0.482897 0.944795 0.175728 0.264938
H91   H     H_    0.419127 0.924963 0.267982 0.287800
H92   H     H_    0.401835 0.958934 0.212142 0.260420
N1    N     N_R   0.131071 0.767351 0.926648 0.221606
O57   O     O_R   0.143255 0.725015 0.945611 -0.408927
O58   O     O_R   0.177282 0.798175 0.882501 -0.389424
N2    N     N_R   0.078373 0.337468 0.928961 0.219729
O59   O     O_R   0.033017 0.369550 0.950134 -0.423476
O60   O     O_R   0.136532 0.352839 0.884345 -0.377220
N3    N     N_R   0.632116 0.266483 0.926857 0.221214
O61   O     O_R   0.643171 0.223563 0.945770 -0.413274
O62   O     O_R   0.679114 0.296736 0.882895 -0.383792
N4    N     N_R   0.629241 0.722985 0.926689 0.222071
O63   O     O_R   0.644780 0.762723 0.948010 -0.411186
O64   O     O_R   0.672783 0.690504 0.881215 -0.383219
O65   O     O_3   0.695669 0.034685 0.492572 -0.611389
C117  C     C_3   0.638583 0.062265 0.524241 0.111016
H93   H     H_    0.609312 0.040011 0.512329 0.149016
H94   H     H_    0.646054 0.099057 0.496441 0.163873
C118  C     C_3   0.600124 0.069133 0.609017 -0.384672
H95   H     H_    0.590072 0.031520 0.635836 0.257083
H96   H     H_    0.626789 0.092237 0.623938 0.206887
C119  C     C_3   0.537667 0.095859 0.639820 -0.971899
H97   H     H_    0.546339 0.134105 0.614703 0.264767
H98   H     H_    0.510873 0.100502 0.700900 0.271498
H99   H     H_    0.508777 0.073004 0.627833 0.269036
O66   O     O_3   0.677703 0.960647 0.577481 -0.623684
C120  C     C_3   0.627459 0.925007 0.608590 0.072396
H100  H     H_    0.589055 0.939189 0.664849 0.153046
H101  H     H_    0.639957 0.887164 0.618207 0.128517
C121  C     C_3   0.600957 0.920985 0.562964 -0.348309
H102  H     H_    0.579629 0.957878 0.565184 0.220585
H103  H     H_    0.639107 0.912241 0.503988 0.245343
C122  C     C_3   0.550533 0.879713 0.593141 -0.943939
H104  H     H_    0.570243 0.842354 0.592676 0.258348
H105  H     H_    0.533667 0.876787 0.557763 0.266385
H106  H     H_    0.509897 0.889208 0.650804 0.264094
O67   O     O_3   0.175513 0.538903 0.534717 -0.616836
C123  C     C_3   0.125561 0.572837 0.584053 0.070518
H107  H     H_    0.081970 0.557714 0.592929 0.153442
H108  H     H_    0.131951 0.611060 0.559768 0.140129
C124  C     C_3   0.113992 0.576159 0.660099 -0.345339
H109  H     H_    0.096880 0.538859 0.688151 0.231853
H110  H     H_    0.158321 0.585482 0.653590 0.241896
C125  C     C_3   0.065004 0.616766 0.709362 -0.942513
H111  H     H_    0.081771 0.654762 0.683262 0.251986
H112  H     H_    0.057197 0.618015 0.764044 0.269832
H113  H     H_    0.019506 0.607883 0.718358 0.267207
O68   O     O_3   0.198364 0.463173 0.586785 -0.607780
C126  C     C_3   0.144549 0.432566 0.636021 0.109894
H114  H     H_    0.118858 0.450737 0.691792 0.166533
H115  H     H_    0.157268 0.394284 0.643708 0.157033
C127  C     C_3   0.099025 0.429004 0.613907 -0.392889
H116  H     H_    0.081596 0.467503 0.614844 0.248517
H117  H     H_    0.123325 0.413054 0.556974 0.224310
C128  C     C_3   0.042671 0.395083 0.667243 -0.937842
H118  H     H_    0.058763 0.355845 0.666009 0.257436
H119  H     H_    0.010398 0.393475 0.650380 0.274272
H120  H     H_    0.016355 0.410563 0.724714 0.272468
O69   O     O_3   0.849300 0.447489 0.382951 -0.600267
C129  C     C_3   0.851137 0.458670 0.319696 0.141596
H121  H     H_    0.901043 0.455681 0.270301 0.172522
H122  H     H_    0.835743 0.498164 0.319899 0.135996
C130  C     C_3   0.811853 0.419863 0.311130 -0.382531
H123  H     H_    0.828577 0.380785 0.309470 0.244232
H124  H     H_    0.761535 0.422848 0.359518 0.207262
C131  C     C_3   0.816902 0.428798 0.240277 -0.974051
H125  H     H_    0.800083 0.467584 0.240876 0.267648
H126  H     H_    0.787132 0.400684 0.236477 0.274542
H127  H     H_    0.866530 0.424286 0.190749 0.274344
O70   O     O_3   0.860292 0.550780 0.409268 -0.603954
C132  C     C_3   0.891781 0.544043 0.442590 0.136013
H128  H     H_    0.903949 0.503214 0.440393 0.158508
H129  H     H_    0.861978 0.557462 0.501557 0.123639
C133  C     C_3   0.952592 0.575297 0.400098 -0.316995
H130  H     H_    0.983611 0.561527 0.341627 0.226551
H131  H     H_    0.941033 0.615883 0.399930 0.243867
C134  C     C_3   0.987848 0.571292 0.435146 -0.980703
H132  H     H_    0.958276 0.586245 0.493022 0.270103
H133  H     H_    0.031920 0.594085 0.402607 0.266967
H134  H     H_    0.000402 0.531044 0.435345 0.272792
O71   O     O_3   0.350778 0.946501 0.480451 -0.604146
C135  C     C_3   0.337139 0.928495 0.548176 0.082728
H135  H     H_    0.298676 0.899729 0.573762 0.135872
H136  H     H_    0.322567 0.960151 0.588792 0.098691
C136  C     C_3   0.396247 0.903492 0.532750 -0.325471
H137  H     H_    0.413163 0.873775 0.489123 0.249221
H138  H     H_    0.434100 0.932452 0.511976 0.207263
C137  C     C_3   0.383126 0.879085 0.602392 -0.937115
H139  H     H_    0.367439 0.908331 0.646362 0.266579
H140  H     H_    0.426800 0.860954 0.589048 0.272153
H141  H     H_    0.346157 0.849320 0.623323 0.266128
O72   O     O_3   0.358075 0.053216 0.457920 -0.586157
C138  C     C_3   0.373812 0.052583 0.508775 0.114389
H142  H     H_    0.406234 0.020275 0.494502 0.182504
H143  H     H_    0.331746 0.049363 0.567884 0.089193
C139  C     C_3   0.408217 0.101643 0.502146 -0.304288
H144  H     H_    0.448941 0.107462 0.443345 0.234857
H145  H     H_    0.375221 0.134113 0.520437 0.230629
C140  C     C_3   0.431906 0.099888 0.550444 -1.007418
H146  H     H_    0.391860 0.094143 0.609543 0.267090
H147  H     H_    0.455532 0.136255 0.546064 0.287130
H148  H     H_    0.466389 0.068466 0.531900 0.262641

loop_
_geom_bond_atom_site_label_1
_geom_bond_atom_site_label_2
_geom_bond_distance
_ccdc_geom_bond_type
C125  H112  1.110596 S    
C110  H77   1.110518 S    
Zn5   O21   1.941461 S    
C46   H26   1.112717 S    
C47   H31   1.113073 S    
O23   C19   1.276127 A    
C34   H10   1.086390 S    
C6    C86   1.428928 S    
O69   C129  1.415900 S    
C128  H118  1.111222 S    
N2    O59   1.301498 A    
O42   C14   1.283227 A    
C27   C31   1.340202 D    
C125  H113  1.110799 S    
C114  H86   1.110303 S    
C107  H69   1.110941 S    
O46   C2    1.284456 A    
C115  H88   1.111618 S    
C43   H51   1.112734 S    
C140  H148  1.110980 S    
C90   H58   1.088132 S    
O34   C22   1.278393 A    
C27   H3    1.086386 S    
C99   O71   1.389442 S    
C4    C53   1.430472 S    
N3    O62   1.301023 A    
Zn3   O3    1.939502 S    
O68   C126  1.422256 S    
C41   C61   1.556450 S    
Zn16  O28   1.936405 S    
C45   H25   1.112710 S    
C20   C29   1.449597 S    
O28   C24   1.274930 A    
C121  C122  1.525193 S    
C29   H5    1.080411 S    
C130  H124  1.111135 S    
Zn4   O40   1.942010 S    
C46   C50   1.550920 S    
O11   C7    1.284798 A    
C68   C80   1.470882 S    
C105  H66   1.114715 S    
C39   H15   1.081090 S    
C127  H116  1.108428 S    
C25   H1    1.086441 S    
C36   H12   1.086193 S    
C42   C58   1.551275 S    
C123  H107  1.110397 S    
Zn8   O16   1.942646 S    
C91   C92   1.465729 S    
C92   H60   1.087981 S    
O16   C12   1.273980 A    
C99   C100  1.500766 S    
Zn16  O4    1.950494 S    
C133  H130  1.111972 S    
Zn12  O4    1.930325 S    
Zn13  O5    1.910488 S    
Zn2   O10   1.905373 S    
C43   H23   1.113442 S    
C18   C31   1.450483 S    
C24   C40   1.451738 S    
C70   C74   1.557046 S    
C45   C49   1.551239 S    
Zn6   O14   1.942646 S    
O47   C3    1.278587 A    
Zn7   O3    1.940228 S    
C28   H4    1.086355 S    
C48   H32   1.113077 S    
C119  H97   1.111281 S    
C62   C66   1.562848 S    
C128  H120  1.110884 S    
C112  H82   1.110509 S    
C50   C66   1.551886 S    
C56   C80   1.203424 T    
C60   C84   1.469373 S    
C59   C83   1.470972 S    
C30   H6    1.080849 S    
C107  H71   1.110078 S    
O24   C20   1.267927 A    
Zn11  O19   1.937252 S    
C64   N4    1.469083 S    
Zn10  O2    1.930325 S    
C41   H49   1.112772 S    
O70   C132  1.411363 S    
C102  H62   1.083959 S    
C61   N1    1.469159 S    
C22   C38   1.451175 S    
Zn9   O49   1.906076 S    
Zn4   O4    1.940682 S    
C26   H2    1.086353 S    
C138  H143  1.117830 S    
O71   C135  1.416876 S    
Zn7   O23   1.941461 S    
Zn8   O24   1.935686 S    
C106  H68   1.111008 S    
C49   C65   1.551267 S    
C72   C76   1.557172 S    
C109  H74   1.111701 S    
O25   C21   1.269670 A    
C52   C68   1.551684 S    
C132  H128  1.114278 S    
C41   C57   1.551092 S    
C58   C74   1.557179 S    
C73   H41   1.118498 S    
O72   C138  1.416409 S    
C10   C101  1.457681 S    
Zn12  O52   1.910685 S    
C65   C77   1.471118 S    
C108  H72   1.110830 S    
C97   O69   1.389624 S    
O22   C18   1.268068 A    
C123  C124  1.537335 S    
O14   C10   1.276113 A    
Zn13  O41   1.947470 S    
C43   C63   1.557380 S    
O50   C6    1.279433 A    
C133  C134  1.526314 S    
C104  H64   1.080968 S    
C70   H54   1.113619 S    
C35   H11   1.086251 S    
C106  H67   1.111552 S    
Zn16  O44   1.937296 S    
C72   H56   1.113591 S    
C95   O67   1.402435 S    
C139  H144  1.111507 S    
Zn2   O34   1.941415 S    
Zn3   O39   1.942602 S    
C41   H21   1.113514 S    
C120  H101  1.111355 S    
C46   H30   1.113078 S    
Zn6   O22   1.935686 S    
C47   H27   1.112683 S    
C34   C38   1.340713 D    
C119  H99   1.111070 S    
C47   C59   1.553282 S    
C116  H90   1.110771 S    
C118  H96   1.109756 S    
C135  H135  1.111614 S    
C121  H103  1.108911 S    
Zn10  O50   1.910685 S    
C32   H8    1.081150 S    
C90   C94   1.340861 D    
C126  H115  1.108743 S    
C98   C102  1.349892 D    
O5    C1    1.278468 A    
O26   C22   1.274639 A    
C139  C140  1.528192 S    
O31   C19   1.276898 A    
C62   N2    1.469183 S    
C45   H29   1.113120 S    
O65   C117  1.423276 S    
C42   C62   1.557239 S    
C74   O54   1.422049 S    
C137  H140  1.109677 S    
C48   C52   1.551107 S    
C138  C139  1.526240 S    
Zn5   O45   1.905459 S    
H19   C63   1.115332 S    
C137  H141  1.110999 S    
Zn7   O47   1.905459 S    
C113  H84   1.110341 S    
Zn8   O48   1.911818 S    
C109  C110  1.525233 S    
C134  H133  1.110598 S    
C71   H47   1.110132 S    
C132  C133  1.528115 S    
C129  H122  1.115673 S    
C122  H105  1.109912 S    
C136  C137  1.526003 S    
C69   H45   1.110318 S    
O51   C7    1.284423 A    
C25   C29   1.340581 D    
C36   C40   1.340652 D    
C100  O72   1.390803 S    
O8    C4    1.283627 A    
C73   O53   1.423312 S    
C108  C109  1.532985 S    
C50   H38   1.113296 S    
C92   C96   1.338304 D    
C111  H79   1.110897 S    
C113  H85   1.110551 S    
O52   C8    1.278028 A    
C129  C130  1.533129 S    
C44   H52   1.112778 S    
Zn1   O1    1.939502 S    
O40   C12   1.272860 A    
Zn13  O1    1.930170 S    
C106  C107  1.526178 S    
C76   O56   1.422609 S    
Zn14  O6    1.905893 S    
Zn3   O11   1.911723 S    
Zn15  O27   1.940237 S    
C14   C93   1.456485 S    
C69   C73   1.557382 S    
C28   C32   1.342367 D    
C107  H70   1.110352 S    
O9    C5    1.284617 A    
C101  H61   1.083667 S    
C83   C87   1.203464 T    
C140  H147  1.108865 S    
H20   C64   1.115387 S    
C67   C79   1.470571 S    
C52   H40   1.113282 S    
C81   C85   1.203278 T    
C68   C72   1.553680 S    
O13   C9    1.275667 A    
C131  H125  1.110671 S    
C116  H92   1.110267 S    
C61   C65   1.562448 S    
C103  H63   1.080119 S    
O18   C14   1.257101 A    
O6    C2    1.284220 A    
C135  C136  1.528318 S    
C64   C68   1.563165 S    
C25   C33   1.472192 S    
C115  H89   1.110547 S    
C114  C115  1.534662 S    
Zn9   O29   1.936104 S    
C5    C85   1.430063 S    
C115  C116  1.525131 S    
Zn11  O31   1.936104 S    
C1    C56   1.430528 S    
Zn12  O32   1.939933 S    
C2    C55   1.430148 S    
Zn13  O25   1.940237 S    
C33   H9    1.085847 S    
C112  H81   1.111531 S    
C89   C90   1.467321 S    
Zn15  O3    1.930170 S    
C105  C106  1.532065 S    
Zn11  O3    1.950650 S    
C127  H117  1.109870 S    
C84   C88   1.202450 T    
O43   C15   1.258480 A    
C63   N3    1.469123 S    
C117  H93   1.109951 S    
Zn5   O1    1.940228 S    
C26   C30   1.342435 D    
C138  H142  1.109783 S    
C123  H108  1.110527 S    
N4    O63   1.301450 A    
C137  H139  1.110745 S    
C53   C77   1.203440 T    
C8    C88   1.428687 S    
O35   C23   1.270405 A    
C89   H57   1.087550 S    
C127  C128  1.525813 S    
C133  H131  1.111907 S    
C57   C81   1.470458 S    
C136  H137  1.110293 S    
O32   C20   1.271468 A    
C66   C70   1.552959 S    
C19   C30   1.451747 S    
C125  H111  1.111118 S    
C110  H78   1.110825 S    
O67   C123  1.421358 S    
Zn9   O17   1.937252 S    
C111  C112  1.534471 S    
C96   O68   1.401657 S    
C119  H98   1.110363 S    
C21   C37   1.450114 S    
C128  H119  1.110436 S    
Zn14  O42   1.937296 S    
C71   C75   1.556411 S    
O7    C3    1.278885 A    
C51   H39   1.113279 S    
C117  C118  1.539713 S    
Zn2   O38   1.942010 S    
Zn3   O35   1.935645 S    
C42   H22   1.113433 S    
C97   C101  1.350081 D    
O37   C9    1.272711 A    
C91   C95   1.339244 D    
O39   C11   1.276371 A    
C46   C58   1.552381 S    
N3    O61   1.301456 A    
C131  H127  1.110990 S    
C75   O55   1.423282 S    
O36   C24   1.278398 A    
N1    O58   1.301042 A    
O12   C8    1.279026 A    
C100  C104  1.352910 D    
O54   C108  1.414942 S    
C109  H75   1.110354 S    
C105  H65   1.110909 S    
O19   C15   1.277992 A    
C40   H16   1.081178 S    
Zn15  O43   1.947470 S    
C72   H48   1.110116 S    
C31   H7    1.081209 S    
C45   C57   1.553028 S    
Zn6   O46   1.911818 S    
C126  H114  1.110160 S    
C26   C34   1.472802 S    
C99   C103  1.357451 D    
C50   H34   1.113190 S    
C42   H50   1.112851 S    
N2    O60   1.301023 A    
C23   C39   1.450880 S    
C139  H145  1.109677 S    
C11   C104  1.464601 S    
C124  H109  1.109225 S    
C120  H100  1.110709 S    
O56   C114  1.415299 S    
H18   C62   1.115352 S    
O38   C10   1.270969 A    
C7    C87   1.430653 S    
C112  C113  1.524402 S    
C122  H104  1.110258 S    
C3    C54   1.430099 S    
Zn2   O2    1.940682 S    
C118  H95   1.108161 S    
Zn14  O2    1.950494 S    
C74   H42   1.118737 S    
C135  H136  1.112856 S    
C116  H91   1.110663 S    
O49   C5    1.284316 A    
C130  H123  1.111583 S    
C28   C36   1.472430 S    
C9    C102  1.460285 S    
Zn8   O4    1.939046 S    
Zn4   O36   1.941415 S    
C49   H33   1.113168 S    
O21   C17   1.276329 A    
C47   C51   1.551669 S    
C52   H36   1.113185 S    
C71   H55   1.113785 S    
C110  H76   1.110866 S    
C51   H35   1.113125 S    
C55   C79   1.203189 T    
C69   H53   1.113833 S    
Zn1   O37   1.942602 S    
C75   H43   1.118499 S    
C59   C75   1.557787 S    
C134  H132  1.111317 S    
C60   C76   1.557850 S    
Zn10  O30   1.939933 S    
Zn12  O20   1.947423 S    
C49   H37   1.113289 S    
C33   C37   1.342186 D    
Zn14  O26   1.936405 S    
Zn15  O7    1.910488 S    
C124  C125  1.526033 S    
C132  H129  1.116537 S    
Zn1   O9    1.911723 S    
C136  H138  1.111316 S    
Zn4   O12   1.905373 S    
Zn11  O51   1.906076 S    
Zn5   O13   1.942058 S    
Zn6   O2    1.939046 S    
C108  H73   1.115830 S    
Zn7   O15   1.942058 S    
C48   H28   1.112718 S    
C111  H80   1.114584 S    
C54   C78   1.203191 T    
C89   C93   1.338965 D    
C67   C71   1.551396 S    
C76   H44   1.118453 S    
N1    O57   1.301448 A    
C63   C67   1.562747 S    
O27   C23   1.270000 A    
C58   C82   1.469738 S    
C51   C67   1.551558 S    
O29   C17   1.276948 A    
C16   C95   1.448720 S    
C98   O70   1.386177 S    
C44   H24   1.113445 S    
C65   C69   1.553010 S    
C120  C121  1.535172 S    
C97   C98   1.483310 S    
C37   H13   1.080389 S    
Zn10  O18   1.947423 S    
C93   O65   1.402943 S    
C140  H146  1.110819 S    
Zn9   O1    1.950650 S    
O66   C120  1.419675 S    
C131  H126  1.109475 S    
C44   C64   1.556806 S    
C70   H46   1.110078 S    
C118  C119  1.526504 S    
O41   C13   1.259526 A    
C12   C103  1.459002 S    
O55   C111  1.415136 S    
C94   O66   1.403105 S    
C121  H102  1.109099 S    
C130  C131  1.525589 S    
O45   C1    1.279238 A    
C114  H87   1.115386 S    
H17   C61   1.115400 S    
C48   C60   1.552735 S    
O33   C21   1.270280 A    
C91   H59   1.088203 S    
C126  C127  1.538586 S    
O15   C11   1.273736 A    
C57   C73   1.560967 S    
C17   C32   1.452090 S    
C27   C35   1.472105 S    
C66   C78   1.470517 S    
C117  H94   1.106876 S    
C15   C96   1.451082 S    
O44   C16   1.276241 A    
Zn1   O33   1.935645 S    
O20   C16   1.259023 A    
C13   C94   1.450233 S    
O10   C6    1.277769 A    
N4    O64   1.301024 A    
O48   C4    1.285215 A    
Zn16  O8    1.905893 S    
C113  H83   1.110717 S    
C82   C86   1.202570 T    
C38   H14   1.080859 S    
C134  H134  1.111187 S    
C43   C59   1.551549 S    
C129  H121  1.110966 S    
C122  H106  1.110744 S    
C44   C60   1.550661 S    
C35   C39   1.342249 D    
C124  H110  1.109413 S    
O53   C105  1.416002 S    
O17   C13   1.276825 A    
O30   C18   1.271809 A    
