data_mof_unit_47544.cif
_audit_creation_date              2012-12-11T17:36:14-0500
_audit_creation_method            fapswitch 2.2
_symmetry_space_group_name_H-M    P1
_symmetry_Int_Tables_number       1
_space_group_crystal_system       triclinic
_cell_length_a                    25.865944
_cell_length_b                    6.904433
_cell_length_c                    21.698154
_cell_angle_alpha                 90.0001
_cell_angle_beta                  96.028039
_cell_angle_gamma                 90.000019
_cell_volume                      3853.63961848

loop_
_atom_site_label
_atom_site_type_symbol
_atom_type_description
_atom_site_fract_x
_atom_site_fract_y
_atom_site_fract_z
_atom_type_partial_charge
O1    O     O_R   0.208650 0.594520 0.175450 -0.534857
O2    O     O_R   0.791350 0.405480 0.824550 -0.534856
O3    O     O_R   0.291350 0.094520 0.324550 -0.534857
O4    O     O_R   0.708650 0.905480 0.675450 -0.534857
O5    O     O_R   0.192980 0.260780 0.300160 -0.540896
O6    O     O_R   0.807020 0.739220 0.699840 -0.540896
O7    O     O_R   0.307020 0.760780 0.199840 -0.540896
O8    O     O_R   0.692980 0.239220 0.800160 -0.540895
C1    C     C_R   0.178802 0.432873 0.318434 0.681885
C2    C     C_R   0.821198 0.567127 0.681566 0.681886
C3    C     C_R   0.321198 0.932873 0.181565 0.681886
C4    C     C_R   0.678802 0.067127 0.818434 0.681886
O9    O     O_R   0.202550 0.264660 0.174420 -0.536745
O10   O     O_R   0.797450 0.735340 0.825580 -0.536745
O11   O     O_R   0.297450 0.764660 0.325580 -0.536745
O12   O     O_R   0.702550 0.235340 0.674420 -0.536745
O13   O     O_R   0.300990 0.096480 0.197920 -0.539267
O14   O     O_R   0.699010 0.903520 0.802080 -0.539266
O15   O     O_R   0.199010 0.596480 0.302080 -0.539266
O16   O     O_R   0.800990 0.403520 0.697920 -0.539267
C5    C     C_R   0.191073 0.433347 0.151143 0.698393
C6    C     C_R   0.808927 0.566653 0.848857 0.698392
C7    C     C_R   0.308927 0.933347 0.348857 0.698393
C8    C     C_R   0.691073 0.066653 0.651142 0.698394
O17   O     O_3   0.282290 0.427760 0.257860 -0.364555
O18   O     O_3   0.717710 0.572240 0.742140 -0.364555
O19   O     O_3   0.217710 0.927760 0.242140 -0.364555
O20   O     O_3   0.782290 0.072240 0.757860 -0.364555
V1    V     V_3+5 0.244010 0.152080 0.248540 1.412721
V2    V     V_3+5 0.755990 0.847920 0.751460 1.412721
V3    V     V_3+5 0.255990 0.652080 0.251460 1.412721
V4    V     V_3+5 0.744010 0.347920 0.748540 1.412721
C9    C     C_R   0.657400 0.060943 0.591967 -0.044404
C10   C     C_R   0.342600 0.939057 0.408033 -0.044404
C11   C     C_R   0.842601 0.560944 0.908033 -0.044405
C12   C     C_R   0.157399 0.439056 0.091967 -0.044404
C13   C     C_R   0.646534 0.121632 0.481683 -0.159816
C14   C     C_R   0.353465 0.878368 0.518316 -0.159816
C15   C     C_R   0.853466 0.621639 0.018316 -0.159816
C16   C     C_R   0.146534 0.378361 0.981684 -0.159816
C17   C     C_R   0.678193 0.113142 0.537563 -0.167176
C18   C     C_R   0.321807 0.886858 0.462436 -0.167176
C19   C     C_R   0.821807 0.613148 0.962436 -0.167175
C20   C     C_R   0.178193 0.386852 0.037564 -0.167176
C21   C     C_R   0.604098 0.017761 0.590202 -0.214431
C22   C     C_R   0.395902 0.982239 0.409798 -0.214431
C23   C     C_R   0.895902 0.517759 0.909798 -0.214431
C24   C     C_R   0.104098 0.482240 0.090202 -0.214431
C25   C     C_R   0.570550 0.028595 0.533742 0.086956
C26   C     C_R   0.429450 0.971405 0.466258 0.086956
C27   C     C_R   0.929450 0.528596 0.966258 0.086956
C28   C     C_R   0.070550 0.471404 0.033742 0.086956
C29   C     C_R   0.593171 0.081284 0.479306 0.138738
C30   C     C_R   0.406829 0.918716 0.520694 0.138738
C31   C     C_R   0.906829 0.581290 0.020694 0.138738
C32   C     C_R   0.093171 0.418710 0.979306 0.138738
C33   C     C_R   0.515552 0.991718 0.529360 0.057754
C34   C     C_R   0.484448 0.008282 0.470640 0.057754
C35   C     C_R   0.984448 0.491717 0.970640 0.057754
C36   C     C_R   0.015552 0.508283 0.029360 0.057754
C37   C     C_R   0.509408 0.060568 0.418299 -0.186446
C38   C     C_R   0.490592 0.939432 0.581701 -0.186446
C39   C     C_R   0.990592 0.560574 0.081701 -0.186445
C40   C     C_R   0.009408 0.439426 0.918299 -0.186445
C41   C     C_R   0.562496 0.095761 0.422712 -0.200583
C42   C     C_R   0.437504 0.904239 0.577288 -0.200583
C43   C     C_R   0.937504 0.595769 0.077288 -0.200583
C44   C     C_R   0.062496 0.404231 0.922712 -0.200583
H1    H     H_    0.579754 0.136070 0.381118 0.123894
H2    H     H_    0.420246 0.863930 0.618882 0.123894
H3    H     H_    0.920247 0.636082 0.118882 0.123894
H4    H     H_    0.079753 0.363918 0.881118 0.123894
H5    H     H_    0.409867 0.019054 0.366242 0.094210
H6    H     H_    0.590133 0.980946 0.633758 0.094210
H7    H     H_    0.090134 0.519059 0.133757 0.094210
H8    H     H_    0.909866 0.480941 0.866243 0.094210
H9    H     H_    0.280928 0.851282 0.461520 0.106732
H10   H     H_    0.719072 0.148718 0.538480 0.106732
H11   H     H_    0.219071 0.351274 0.038480 0.106733
H12   H     H_    0.780928 0.648726 0.961519 0.106733
H13   H     H_    0.663766 0.162590 0.440155 0.114132
H14   H     H_    0.336234 0.837410 0.559845 0.114132
H15   H     H_    0.836235 0.662602 0.059844 0.114132
H16   H     H_    0.163765 0.337398 0.940155 0.114132
H17   H     H_    0.488961 0.076311 0.372762 0.124177
H18   H     H_    0.511039 0.923689 0.627238 0.124177
H19   H     H_    0.011039 0.576319 0.127238 0.124176
H20   H     H_    0.988961 0.423681 0.872762 0.124176
C45   C     C_R   0.427260 0.793658 0.079269 -0.134427
C46   C     C_R   0.572740 0.206342 0.920731 -0.134427
C47   C     C_R   0.072740 0.293658 0.420731 -0.134427
C48   C     C_R   0.927260 0.706342 0.579269 -0.134427
H21   H     H_    0.445414 0.663116 0.064123 0.104658
H22   H     H_    0.554586 0.336884 0.935877 0.104658
H23   H     H_    0.054586 0.163116 0.435877 0.104658
H24   H     H_    0.945414 0.836883 0.564123 0.104658
C49   C     C_R   0.388008 0.778703 0.119230 -0.170282
C50   C     C_R   0.611992 0.221297 0.880770 -0.170282
C51   C     C_R   0.111992 0.278703 0.380770 -0.170282
C52   C     C_R   0.888008 0.721297 0.619230 -0.170282
H25   H     H_    0.376783 0.636321 0.133927 0.118324
H26   H     H_    0.623217 0.363679 0.866073 0.118324
H27   H     H_    0.123217 0.136321 0.366073 0.118324
H28   H     H_    0.876783 0.863679 0.633927 0.118324
C53   C     C_R   0.363542 0.945821 0.139682 -0.057048
C54   C     C_R   0.636458 0.054179 0.860317 -0.057049
C55   C     C_R   0.136458 0.445821 0.360318 -0.057049
C56   C     C_R   0.863542 0.554179 0.639682 -0.057048
C57   C     C_R   0.379647 0.127810 0.119020 -0.169104
C58   C     C_R   0.620353 0.872190 0.880980 -0.169104
C59   C     C_R   0.120353 0.627811 0.380980 -0.169105
C60   C     C_R   0.879647 0.372189 0.619019 -0.169104
H29   H     H_    0.361903 0.260031 0.133433 0.122035
H30   H     H_    0.638097 0.739969 0.866567 0.122034
H31   H     H_    0.138097 0.760031 0.366567 0.122034
H32   H     H_    0.861903 0.239969 0.633433 0.122034
C61   C     C_R   0.418778 0.142263 0.079192 -0.139044
C62   C     C_R   0.581222 0.857737 0.920808 -0.139044
C63   C     C_R   0.081222 0.642264 0.420808 -0.139044
C64   C     C_R   0.918778 0.357736 0.579192 -0.139044
H33   H     H_    0.430204 0.284020 0.064047 0.104869
H34   H     H_    0.569796 0.715980 0.935953 0.104869
H35   H     H_    0.069796 0.784020 0.435953 0.104869
H36   H     H_    0.930204 0.215980 0.564047 0.104869
C65   C     C_R   0.442815 0.975595 0.058967 0.131027
C66   C     C_R   0.557184 0.024405 0.941033 0.131027
C67   C     C_R   0.057184 0.475595 0.441032 0.131027
C68   C     C_R   0.942816 0.524405 0.558967 0.131027
C69   C     C_1   0.483173 0.992335 0.017380 -0.061426
C70   C     C_1   0.516827 0.007665 0.982620 -0.061426
C71   C     C_1   0.016827 0.492335 0.482620 -0.061426
C72   C     C_1   0.983173 0.507665 0.517380 -0.061426

loop_
_geom_bond_atom_site_label_1
_geom_bond_atom_site_label_2
_ccdc_geom_bond_type
O17   V3    S    
C51   H27   S    
O1    C5    A    
O19   V1    S    
C9    C21   A    
C16   H16   S    
O3    C7    A    
C10   C18   A    
O1    V3    S    
O15   V3    S    
C58   C62   A    
C57   C61   A    
C33   C38   A    
C5    C12   S    
C45   C65   A    
O7    C3    A    
C6    C11   S    
C38   H18   S    
C35   C40   A    
C26   C30   A    
C47   C67   A    
C36   C39   A    
C40   C44   A    
O2    V4    S    
C23   H8    S    
C14   C18   A    
C54   C58   A    
O4    C8    A    
C25   C29   A    
C44   H4    S    
C66   C70   S    
C48   C68   A    
C48   H24   S    
O13   V1    S    
C59   C63   A    
C62   H34   S    
O3    V1    S    
C61   H33   S    
C28   C36   A    
C2    C56   S    
C1    O15   A    
C52   H28   S    
C15   C31   A    
C2    O16   A    
C16   C32   A    
O2    C6    A    
C10   C22   A    
C11   C19   A    
C58   H30   S    
C16   C20   A    
C43   H3    S    
C57   H29   S    
C13   C29   A    
C34   C37   A    
O11   C7    A    
C11   C23   A    
C35   C36   A    
O12   C8    A    
C14   H14   S    
C45   H21   S    
C24   H7    S    
C13   H13   S    
O10   V2    S    
C68   C72   S    
C46   H22   S    
O5    V1    S    
O17   V1    S    
C39   C43   A    
C52   C56   A    
O7    V3    S    
C38   C42   A    
O19   V3    S    
C26   C34   A    
O20   V4    S    
C17   H10   S    
C60   C64   A    
O18   V4    S    
C15   C19   A    
C19   H12   S    
C32   C44   A    
C47   H23   S    
C56   C60   A    
C45   C49   A    
C21   H6    S    
O8    V4    S    
O5    C1    A    
C37   C41   A    
C31   C43   A    
C14   C30   A    
C21   C25   A    
O8    C4    A    
C7    C10   S    
C49   H25   S    
C46   C66   A    
O9    C5    A    
C3    C53   S    
C37   H17   S    
O14   V2    S    
O6    V2    S    
O18   V2    S    
C12   C20   A    
C27   C35   A    
C71   C72   T    
C60   H32   S    
C29   C41   A    
C48   C52   A    
C69   C70   T    
O16   V4    S    
O9    V1    S    
C53   C57   A    
C3    O13   A    
C39   H19   S    
C55   C59   A    
C20   H11   S    
O6    C2    A    
C25   C33   A    
C23   C27   A    
C64   C68   A    
O11   V3    S    
C30   C42   A    
C63   H35   S    
O12   V4    S    
C51   C55   A    
C22   C26   A    
C8    C9    S    
C50   C54   A    
C9    C17   A    
O10   C6    A    
O20   V2    S    
C49   C53   A    
C50   H26   S    
C4    C54   S    
C33   C34   A    
C42   H2    S    
C41   H1    S    
C46   C50   A    
C12   C24   A    
C27   C31   A    
C13   C17   A    
C67   C71   S    
C64   H36   S    
C15   H15   S    
C65   C69   S    
C24   C28   A    
C18   H9    S    
C4    O14   A    
C1    C55   S    
C59   H31   S    
C62   C66   A    
C47   C51   A    
C61   C65   A    
C40   H20   S    
C22   H5    S    
O4    V2    S    
C28   C32   A    
C63   C67   A    
