data_mof_unit_33872.cif
_audit_creation_date              2012-12-11T14:08:21-0500
_audit_creation_method            fapswitch 2.2
_symmetry_space_group_name_H-M    P1
_symmetry_Int_Tables_number       1
_space_group_crystal_system       triclinic
_cell_length_a                    28.047283
_cell_length_b                    7.226107
_cell_length_c                    17.146496
_cell_angle_alpha                 90.007868
_cell_angle_beta                  101.519337
_cell_angle_gamma                 89.821041
_cell_volume                      3405.11085963

loop_
_atom_site_label
_atom_site_type_symbol
_atom_type_description
_atom_site_fract_x
_atom_site_fract_y
_atom_site_fract_z
_atom_type_partial_charge
O1    O     O_R   0.000700 0.436510 0.857920 -0.531489
O2    O     O_R   0.999300 0.563490 0.142080 -0.533577
O3    O     O_R   0.999300 0.936510 0.642080 -0.531457
O4    O     O_R   0.000700 0.063490 0.357920 -0.533503
O5    O     O_R   0.930080 0.766380 0.721890 -0.540902
O6    O     O_R   0.069920 0.233620 0.278110 -0.540363
O7    O     O_R   0.069920 0.266380 0.778110 -0.540776
O8    O     O_R   0.930080 0.733620 0.221890 -0.540274
C1    C     C_R   0.910436 0.597617 0.711861 0.701319
C2    C     C_R   0.089066 0.401714 0.293798 0.703751
C3    C     C_R   0.089534 0.097022 0.788040 0.701183
C4    C     C_R   0.910972 0.902229 0.206177 0.703997
O9    O     O_R   0.996180 0.766230 0.862310 -0.543855
O10   O     O_R   0.003820 0.233770 0.137690 -0.542177
O11   O     O_R   0.003820 0.266230 0.637690 -0.543968
O12   O     O_R   0.996180 0.733770 0.362310 -0.542266
O13   O     O_R   0.065870 0.936460 0.783500 -0.538037
O14   O     O_R   0.934130 0.063540 0.216500 -0.538993
O15   O     O_R   0.934130 0.436460 0.716500 -0.537712
O16   O     O_R   0.065870 0.563540 0.283500 -0.538760
C5    C     C_R   0.998455 0.596489 0.894410 0.757231
C6    C     C_R   0.001502 0.403508 0.105579 0.759536
C7    C     C_R   0.001542 0.096476 0.605598 0.756876
C8    C     C_R   0.998500 0.903520 0.394412 0.759316
O17   O     O_3   0.022790 0.603020 0.723980 -0.377935
O18   O     O_3   0.977210 0.396980 0.276020 -0.378428
O19   O     O_3   0.977210 0.103020 0.776020 -0.377804
O20   O     O_3   0.022790 0.896980 0.223980 -0.378402
V1    V     V_3+5 0.995770 0.877900 0.754830 1.402731
V2    V     V_3+5 0.004230 0.122100 0.245170 1.402302
V3    V     V_3+5 0.004230 0.377900 0.745170 1.402432
V4    V     V_3+5 0.995770 0.622100 0.254830 1.402005
C9    C     C_2   0.001765 0.082408 0.519516 -0.335981
C10   C     C_2   0.998345 0.917585 0.480516 -0.333501
C11   C     C_2   0.998232 0.582449 0.980490 -0.335915
C12   C     C_2   0.001656 0.417546 0.019477 -0.333443
H1    H     H_    0.004575 0.210541 0.487653 0.153206
H2    H     H_    0.995550 0.789449 0.512385 0.154489
H3    H     H_    0.995420 0.710656 0.012364 0.153207
H4    H     H_    0.004452 0.289337 0.987598 0.154507
C13   C     C_R   0.689872 0.976779 0.982672 0.726099
C14   C     C_R   0.321175 0.050153 0.928462 0.690510
C15   C     C_R   0.311069 0.472462 0.514865 0.726322
C16   C     C_R   0.678963 0.572679 0.569949 0.685238
O21   O     O_2   0.721366 0.997330 0.933239 -0.509626
O22   O     O_2   0.293532 0.075575 0.983681 -0.507839
O23   O     O_2   0.279902 0.495882 0.564702 -0.510726
O24   O     O_2   0.706678 0.613037 0.516275 -0.508431
N1    N     N_R   0.707261 0.947782 0.062134 -0.533917
N2    N     N_R   0.299792 0.046538 0.849516 -0.534093
N3    N     N_R   0.293261 0.439565 0.435816 -0.530963
N4    N     N_R   0.700163 0.555761 0.648587 -0.529163
C17   C     C_R   0.676193 0.931160 0.113811 0.712518
C18   C     C_R   0.327581 0.027753 0.792409 0.730435
C19   C     C_R   0.323970 0.420308 0.383638 0.714245
C20   C     C_R   0.672561 0.519526 0.704553 0.718676
C21   C     C_R   0.782375 0.088713 0.140937 -0.023387
C22   C     C_R   0.222713 0.216328 0.792304 -0.048099
C23   C     C_R   0.217987 0.583588 0.358026 -0.024989
C24   C     C_R   0.777192 0.722073 0.706522 -0.039107
C25   C     C_R   0.831531 0.072645 0.178026 -0.273554
C26   C     C_R   0.171649 0.228827 0.780950 -0.290586
C27   C     C_R   0.168684 0.569578 0.321531 -0.272859
C28   C     C_R   0.828295 0.732621 0.718348 -0.290580
C29   C     C_R   0.835452 0.766424 0.123372 -0.289704
C30   C     C_R   0.167665 0.923578 0.835941 -0.271155
C31   C     C_R   0.164728 0.263419 0.376064 -0.289728
C32   C     C_R   0.832130 0.427318 0.663045 -0.270859
C33   C     C_R   0.786413 0.778122 0.084586 -0.049478
C34   C     C_R   0.218525 0.906124 0.848549 -0.018329
C35   C     C_R   0.213894 0.273200 0.414326 -0.048977
C36   C     C_R   0.781204 0.412332 0.649731 -0.020721
C37   C     C_R   0.759093 0.940048 0.093803 0.355276
C38   C     C_R   0.246990 0.054590 0.827870 0.356797
C39   C     C_R   0.241320 0.433928 0.404816 0.355658
C40   C     C_R   0.752907 0.561663 0.670559 0.363440
C41   C     C_R   0.606755 0.975299 0.004579 -0.064263
C42   C     C_R   0.401274 0.016477 0.895770 -0.053564
C43   C     C_R   0.393875 0.468630 0.491379 -0.062033
C44   C     C_R   0.599181 0.514067 0.600276 -0.068899
C45   C     C_R   0.639282 0.981587 0.952218 0.003486
C46   C     C_R   0.371370 0.020802 0.952687 -0.009704
C47   C     C_R   0.361761 0.479367 0.544433 -0.036352
C48   C     C_R   0.628979 0.541392 0.544195 -0.014046
C49   C     C_R   0.621044 0.990086 0.870620 -0.118784
C50   C     C_R   0.391236 0.980749 0.032047 -0.147516
C51   C     C_R   0.380501 0.503525 0.625412 -0.041318
C52   C     C_R   0.609501 0.518618 0.463370 -0.150784
C53   C     C_R   0.625742 0.960935 0.087554 -0.084662
C54   C     C_R   0.379400 0.025322 0.814080 -0.052579
C55   C     C_R   0.374416 0.451224 0.408776 -0.081093
C56   C     C_R   0.620898 0.505297 0.682198 -0.089990
C57   C     C_R   0.858281 0.912063 0.170380 -0.012466
C58   C     C_R   0.143742 0.084575 0.803208 -0.017033
C59   C     C_R   0.141838 0.409989 0.329353 -0.012618
C60   C     C_R   0.856180 0.587122 0.696313 -0.018217
H5    H     H_    0.856264 0.643294 0.115852 0.119216
H6    H     H_    0.146492 0.810023 0.852378 0.125052
H7    H     H_    0.143872 0.141033 0.383755 0.119352
H8    H     H_    0.853236 0.313031 0.646612 0.125158
H9    H     H_    0.646399 0.989479 0.830359 0.196149
H10   H     H_    0.367516 0.964318 0.074391 0.177366
H11   H     H_    0.355401 0.521512 0.665443 0.223816
H12   H     H_    0.633426 0.518432 0.420845 0.177888
C61   C     C_R   0.483886 0.015298 0.864756 0.008012
C62   C     C_R   0.523998 0.984026 0.029686 0.023055
C63   C     C_R   0.517032 0.479334 0.630016 0.055353
C64   C     C_R   0.476420 0.483875 0.464599 0.025093
C65   C     C_R   0.472870 0.972772 0.003010 0.057792
C66   C     C_R   0.536147 0.995805 0.890543 0.041761
C67   C     C_R   0.527906 0.483555 0.490847 0.049932
C68   C     C_R   0.464843 0.486820 0.604009 -0.000231
C69   C     C_R   0.452926 0.000711 0.921095 0.073214
C70   C     C_R   0.555431 0.984295 0.974462 0.064418
C71   C     C_R   0.547750 0.494814 0.573698 0.074636
C72   C     C_R   0.445267 0.477907 0.520391 0.071267
C73   C     C_R   0.460685 0.051654 0.785237 -0.168071
C74   C     C_R   0.544546 0.007892 0.110952 -0.118031
C75   C     C_R   0.540171 0.448565 0.709957 -0.200422
C76   C     C_R   0.454847 0.506819 0.383594 -0.118958
C77   C     C_R   0.410395 0.035768 0.758564 0.203736
C78   C     C_R   0.593898 0.985158 0.140761 0.219775
C79   C     C_R   0.590220 0.472775 0.737089 0.202819
C80   C     C_R   0.405662 0.476674 0.354750 0.213331
O25   O     O_2   0.304921 0.015221 0.715668 -0.478421
O26   O     O_2   0.694582 0.886150 0.190115 -0.487897
O27   O     O_2   0.695376 0.494994 0.780664 -0.477934
O28   O     O_2   0.305214 0.372317 0.307867 -0.487314
C81   C     C_R   0.570971 0.990286 0.838686 -0.013817
C82   C     C_R   0.440338 0.936931 0.055590 -0.044562
C83   C     C_R   0.430805 0.510804 0.656204 -0.028104
C84   C     C_R   0.561058 0.467973 0.437680 -0.049007
H13   H     H_    0.153444 0.352383 0.753933 0.124407
H14   H     H_    0.849099 0.186598 0.213627 0.127709
H15   H     H_    0.846534 0.855373 0.745681 0.125200
H16   H     H_    0.151094 0.684252 0.286175 0.127632
H17   H     H_    0.480241 0.096986 0.741319 0.159766
H18   H     H_    0.522308 0.046051 0.153050 0.152396
H19   H     H_    0.520181 0.400987 0.753363 0.117460
H20   H     H_    0.475805 0.551431 0.340809 0.151557
C85   C     C_2   0.765783 0.616453 0.035829 0.509453
H21   H     H_    0.789699 0.504667 0.025374 0.022156
O29   O     O_2   0.722409 0.602679 0.007876 -0.470379
C86   C     C_2   0.239905 0.729408 0.884110 0.427005
H22   H     H_    0.216739 0.628275 0.904919 0.039960
O30   O     O_2   0.282851 0.691569 0.889454 -0.494238
C87   C     C_2   0.234564 0.110896 0.462879 0.511019
H23   H     H_    0.210713 0.999232 0.473066 0.020662
O31   O     O_2   0.277913 0.096665 0.491077 -0.469356
C88   C     C_2   0.759505 0.237450 0.613216 0.413723
H24   H     H_    0.782602 0.135025 0.592698 0.046122
O32   O     O_2   0.716356 0.202598 0.606714 -0.505059
C89   C     C_2   0.248468 0.377448 0.766277 0.520456
H25   H     H_    0.227561 0.486920 0.731717 0.039694
O33   O     O_2   0.292587 0.393720 0.783689 -0.480794
C90   C     C_2   0.757088 0.263805 0.154014 0.431650
H26   H     H_    0.775869 0.366161 0.195308 0.046808
O34   O     O_2   0.715826 0.298776 0.118684 -0.495002
C91   C     C_2   0.751219 0.883336 0.732430 0.503750
H27   H     H_    0.772009 0.995626 0.764739 0.046537
O35   O     O_2   0.706940 0.895764 0.717791 -0.505410
C92   C     C_2   0.243383 0.757609 0.344670 0.429199
H28   H     H_    0.224562 0.860686 0.303570 0.048718
O36   O     O_2   0.284780 0.790932 0.379574 -0.496640
I1    I     I_    0.388078 0.021832 0.632306 -0.263066
I2    I     I_    0.614594 0.006751 0.267206 -0.233844
I3    I     I_    0.612288 0.474794 0.863635 -0.279394
I4    I     I_    0.383910 0.493532 0.228283 -0.239130
C93   C     C_2   0.560242 0.975048 0.750849 0.336281
H29   H     H_    0.579773 0.061370 0.716024 0.091155
O37   O     O_2   0.532882 0.857158 0.716767 -0.540644
C94   C     C_2   0.453626 0.829476 0.130567 0.421239
H30   H     H_    0.434708 0.854838 0.178928 0.086223
O38   O     O_2   0.484039 0.706048 0.137512 -0.502351
C95   C     C_2   0.444253 0.566913 0.741161 0.364163
H31   H     H_    0.475444 0.653411 0.762088 0.134658
O39   O     O_2   0.419731 0.519318 0.789061 -0.503433
C96   C     C_2   0.550196 0.369380 0.360275 0.421501
H32   H     H_    0.568911 0.407860 0.313062 0.092628
O40   O     O_2   0.522390 0.237856 0.350119 -0.502051

loop_
_geom_bond_atom_site_label_1
_geom_bond_atom_site_label_2
_ccdc_geom_bond_type
O17   V3    S    
C35   C87   S    
C61   C66   A    
N1    C17   A    
O1    C5    A    
C30   H6    S    
C78   I2    S    
O19   V1    S    
O13   V1    S    
C93   H29   S    
C64   C76   A    
O3    C7    A    
C87   H23   S    
C14   C46   A    
C24   C91   S    
C44   C48   A    
N1    C37   S    
O15   V3    S    
C75   C79   A    
C96   H32   S    
O4    V2    S    
C77   I1    S    
C95   O39   D    
C42   C54   A    
O7    C3    A    
C41   C53   A    
C32   C60   A    
C62   C70   A    
C26   H13   S    
C81   C93   S    
C90   H26   S    
C87   O31   D    
N3    C39   S    
C18   C54   A    
N2    C38   S    
C74   C78   A    
O4    C8    A    
C25   C57   A    
C31   C35   A    
C53   C78   A    
C33   C85   S    
C27   C59   A    
O1    V3    S    
C15   C47   A    
C66   C81   A    
O2    V4    S    
C14   O22   S    
C20   O27   S    
C51   C83   A    
O3    V1    S    
C73   C77   A    
C34   C38   A    
C19   C55   A    
C34   C86   S    
C49   C81   A    
C80   I4    S    
C1    O15   A    
C11   C12   D    
C2    O16   A    
C7    C9    S    
O2    C6    A    
C91   O35   D    
C33   C37   A    
C76   H20   S    
C89   O33   D    
C66   C70   A    
O5    V1    S    
C65   C69   A    
C30   C58   A    
C79   I3    S    
C16   N4    A    
O11   C7    A    
C28   H15   S    
O12   C8    A    
C43   C72   A    
C62   C74   A    
C31   C59   A    
C93   O37   D    
C61   C73   A    
O10   V2    S    
C63   C75   A    
C52   H12   S    
C21   C37   A    
C94   O38   D    
C25   H14   S    
C92   O36   D    
C18   O25   S    
O7    V3    S    
O8    V4    S    
C12   H4    S    
C28   C60   A    
C86   O30   D    
C56   C79   A    
C82   C94   S    
O18   V4    S    
C50   C82   A    
N4    C40   S    
C46   C50   A    
C24   C40   A    
C8    C10   S    
C32   C36   A    
C44   C56   A    
C11   H3    S    
C32   H8    S    
O5    C1    A    
C21   C90   S    
C22   C89   S    
C42   C46   A    
C91   H27   S    
C44   C71   A    
C41   C45   A    
O8    C4    A    
C13   C45   A    
C9    C10   D    
C61   C69   A    
O9    C5    A    
C36   C40   A    
C63   C68   A    
N2    C18   A    
O11   V3    S    
C1    C60   S    
C63   C71   A    
C22   C26   A    
C14   N2    A    
C51   H11   S    
C3    C58   S    
O6    V2    S    
C36   C88   S    
C55   C80   A    
C26   C58   A    
C17   C53   A    
O14   V2    S    
C54   C77   A    
C88   O32   D    
C4    C57   S    
C42   C69   A    
C52   C84   A    
O10   C6    A    
C41   C70   A    
C50   H10   S    
C23   C39   A    
C68   C72   A    
C49   H9    S    
C94   H30   S    
C22   C38   A    
C92   H28   S    
O16   V4    S    
O9    V1    S    
C3    O13   A    
C10   H2    S    
C43   C55   A    
C73   H17   S    
C48   C52   A    
C86   H22   S    
C16   C48   A    
C47   C51   A    
O6    C2    A    
C96   O40   D    
C21   C25   A    
C5    C11   S    
C31   H7    S    
O12   V4    S    
C13   N1    A    
C6    C12   S    
C23   C27   A    
C64   C67   A    
C24   C28   A    
C75   H19   S    
C27   H16   S    
C64   C72   A    
C85   O29   D    
C29   H5    S    
O20   V2    S    
C95   H31   S    
C85   H21   S    
C35   C39   A    
C15   N3    A    
C30   C34   A    
N4    C20   A    
C2    C59   S    
C29   C33   A    
C90   O34   D    
C29   C57   A    
C83   C95   S    
N3    C19   A    
C68   C83   A    
C9    H1    S    
C17   O26   S    
C43   C47   A    
C76   C80   A    
C67   C84   A    
C20   C56   A    
C19   O28   S    
C4    O14   A    
C65   C82   A    
C23   C92   S    
C13   O21   S    
C88   H24   S    
C67   C71   A    
C89   H25   S    
C74   H18   S    
C15   O23   S    
C45   C49   A    
C16   O24   S    
C84   C96   S    
C62   C65   A    
