data_mof_unit_15652.cif
_audit_creation_date              2012-12-10T18:04:02-0500
_audit_creation_method            fapswitch 2.2
_symmetry_space_group_name_H-M    P1
_symmetry_Int_Tables_number       1
_space_group_crystal_system       triclinic
_cell_length_a                    10.81812
_cell_length_b                    9.518199
_cell_length_c                    10.823176
_cell_angle_alpha                 89.880495
_cell_angle_beta                  90.204378
_cell_angle_gamma                 89.693903
_cell_volume                      1114.42635222

loop_
_atom_site_label
_atom_site_type_symbol
_atom_type_description
_atom_site_fract_x
_atom_site_fract_y
_atom_site_fract_z
_atom_type_partial_charge
C1    C     C_R   0.262157 0.500562 0.496609 0.796458
C2    C     C_R   0.737655 0.499752 0.497232 0.827024
C3    C     C_R   0.426341 0.075072 0.420059 -0.010861
C4    C     C_R   0.573933 0.073778 0.579731 -0.025764
C5    C     C_R   0.426421 0.926290 0.420034 -0.047223
C6    C     C_R   0.573941 0.924934 0.579718 -0.015198
C7    C     C_R   0.498977 0.500270 0.262267 0.800697
C8    C     C_R   0.499095 0.499905 0.737663 0.804998
C9    C     C_R   0.511385 0.625408 0.063327 0.111793
C10   C     C_R   0.513543 0.624098 0.936042 0.092541
C11   C     C_R   0.490131 0.501527 0.129097 -0.125834
C12   C     C_R   0.491151 0.500524 0.870741 -0.075595
C13   C     C_R   0.454734 0.380078 0.064544 -0.205445
C14   C     C_R   0.454924 0.379702 0.935686 -0.214821
C15   C     C_3   0.620058 0.723964 0.929941 -0.080002
C16   C     C_3   0.617852 0.725171 0.070795 -0.060139
C17   C     C_R   0.064698 0.395040 0.552840 -0.212673
C18   C     C_R   0.936966 0.394031 0.552831 -0.238172
C19   C     C_R   0.871224 0.499770 0.491134 -0.069344
C20   C     C_R   0.128160 0.501894 0.491329 -0.086377
C21   C     C_R   0.933398 0.604910 0.424635 0.167979
C22   C     C_R   0.062491 0.606698 0.424851 0.110356
Cu1   Cu    Cu3+1 0.500000 0.640660 0.500000 0.939437
Cu2   Cu    Cu3+1 0.500000 0.359340 0.500000 0.941362
H1    H     H_    0.431029 0.284410 0.113185 0.164412
H2    H     H_    0.431003 0.283971 0.887447 0.163874
H3    H     H_    0.596438 0.825750 0.884464 0.153857
H4    H     H_    0.701262 0.680333 0.117303 0.161833
H5    H     H_    0.114086 0.313727 0.603313 0.162007
H6    H     H_    0.889375 0.312310 0.603443 0.157837
H7    H     H_    0.367451 0.131637 0.355860 0.121953
H8    H     H_    0.633235 0.129356 0.643531 0.117692
H9    H     H_    0.368395 0.870833 0.355132 0.125859
H10   H     H_    0.633343 0.868339 0.643394 0.110119
N1    N     N_R   0.500000 0.852070 0.500000 -0.158575
N2    N     N_R   0.500000 0.147940 0.500000 -0.159378
O1    O     O_R   0.319640 0.618740 0.499990 -0.588171
O2    O     O_R   0.680360 0.618740 0.500010 -0.563546
O3    O     O_R   0.319620 0.381170 0.499990 -0.585427
O4    O     O_R   0.680380 0.381170 0.500010 -0.588858
O5    O     O_R   0.499990 0.618810 0.319660 -0.586496
O6    O     O_R   0.500010 0.618810 0.680340 -0.589826
O7    O     O_R   0.499960 0.381240 0.319650 -0.584797
O8    O     O_R   0.500040 0.381240 0.680350 -0.589064
N3    N     N_3   0.732385 0.657912 0.882214 -0.595648
H11   H     H_    0.806109 0.724933 0.901896 0.218080
H12   H     H_    0.725286 0.654738 0.785936 0.222448
N4    N     N_3   0.579908 0.861579 0.119426 -0.597233
H13   H     H_    0.650414 0.932908 0.099919 0.218280
H14   H     H_    0.577139 0.853122 0.215577 0.250332
N5    N     N_3   0.865090 0.707912 0.354883 -0.582076
H15   H     H_    0.888550 0.807636 0.387499 0.233990
H16   H     H_    0.891751 0.700927 0.262330 0.223182
N6    N     N_3   0.123883 0.713282 0.354384 -0.618274
H17   H     H_    0.189521 0.666187 0.296875 0.220287
H18   H     H_    0.167188 0.782476 0.415252 0.236130

loop_
_geom_bond_atom_site_label_1
_geom_bond_atom_site_label_2
_ccdc_geom_bond_type
C16   H4    S    
C3    H7    S    
Cu1   Cu2   S    
C4    N2    A    
C18   H6    S    
C7    O7    A    
Cu1   O2    S    
C17   H5    S    
C9    C10   A    
C2    O2    A    
C15   H3    S    
Cu1   O5    S    
C1    O1    A    
C8    C12   S    
C6    H10   S    
C16   N4    S    
N4    H14   S    
C17   C18   A    
C20   C22   A    
C22   N6    S    
C4    H8    S    
C21   C22   A    
C14   H2    S    
C7    C11   S    
C17   C20   A    
C11   C13   A    
C13   H1    S    
Cu2   N2    S    
Cu1   O6    S    
C10   C12   A    
C3    N2    A    
C9    C11   A    
N4    H13   S    
C19   C21   A    
C9    C16   S    
C12   C14   A    
Cu1   N1    S    
C10   C15   S    
C7    O5    A    
C8    O8    A    
Cu2   O8    S    
N6    H18   S    
C1    O3    A    
N5    H16   S    
C15   C16   S    
C2    O4    A    
C21   N5    S    
Cu2   O3    S    
C6    N1    A    
C4    C6    A    
C18   C19   A    
N3    H12   S    
Cu2   O7    S    
C15   N3    S    
N6    H17   S    
C1    C20   S    
Cu1   O1    S    
C13   C14   A    
Cu2   O4    S    
C2    C19   S    
N3    H11   S    
C5    N1    A    
N5    H15   S    
C8    O6    A    
C3    C5    A    
C5    H9    S    
