data_mof_unit_25228.cif
_audit_creation_date              2013-03-05T15:40:16-0500
_audit_creation_method            fapswitch 2.2
_symmetry_space_group_name_H-M    P1
_symmetry_Int_Tables_number       1
_space_group_crystal_system       triclinic
_cell_length_a                    28.220015
_cell_length_b                    18.436228
_cell_length_c                    17.001658
_cell_angle_alpha                 89.832169
_cell_angle_beta                  60.809783
_cell_angle_gamma                 90.27723
_cell_volume                      7721.90482355

loop_
_atom_site_label
_atom_site_type_symbol
_atom_site_description
_atom_site_fract_x
_atom_site_fract_y
_atom_site_fract_z
_atom_type_partial_charge
O1    O     O_R   0.746490 0.236330 0.638080 -0.637819
O2    O     O_R   0.253510 0.763670 0.361920 -0.634011
O3    O     O_R   0.253510 0.236330 0.361920 -0.609275
O4    O     O_R   0.746490 0.763670 0.638080 -0.634617
O5    O     O_R   0.246490 0.736330 0.638080 -0.634257
O6    O     O_R   0.753510 0.263670 0.361920 -0.636741
O7    O     O_R   0.753510 0.736330 0.361920 -0.655114
O8    O     O_R   0.246490 0.263670 0.638080 -0.606047
O9    O     O_R   0.674170 0.186160 0.516270 -0.642693
O10   O     O_R   0.325830 0.813840 0.483730 -0.637381
O11   O     O_R   0.325830 0.186160 0.483730 -0.634346
O12   O     O_R   0.674170 0.813840 0.516270 -0.631321
O13   O     O_R   0.174170 0.686160 0.516270 -0.646272
O14   O     O_R   0.825830 0.313840 0.483730 -0.645094
O15   O     O_R   0.825830 0.686160 0.483730 -0.647310
O16   O     O_R   0.174170 0.313840 0.516270 -0.651066
O17   O     O_R   0.739960 0.127620 0.525000 -0.616113
O18   O     O_R   0.260040 0.872380 0.475000 -0.614431
O19   O     O_R   0.260040 0.127620 0.475000 -0.613349
O20   O     O_R   0.739960 0.872380 0.525000 -0.622944
O21   O     O_R   0.239960 0.627620 0.525000 -0.616945
O22   O     O_R   0.760040 0.372380 0.475000 -0.618119
O23   O     O_R   0.760040 0.627620 0.475000 -0.617664
O24   O     O_R   0.239960 0.372380 0.525000 -0.624676
O25   O     O_R   0.680700 0.294870 0.629350 -0.563145
O26   O     O_R   0.319300 0.705130 0.370650 -0.570529
O27   O     O_R   0.319300 0.294870 0.370650 -0.577705
O28   O     O_R   0.680700 0.705130 0.629350 -0.557931
O29   O     O_R   0.180700 0.794870 0.629350 -0.567964
O30   O     O_R   0.819300 0.205130 0.370650 -0.568421
O31   O     O_R   0.819300 0.794870 0.370650 -0.573422
O32   O     O_R   0.180700 0.205130 0.629350 -0.571223
C1    C     C_R   0.701563 0.268335 0.676151 0.929994
C2    C     C_R   0.298467 0.731553 0.323842 0.915993
C3    C     C_R   0.297665 0.272078 0.324114 0.917878
C4    C     C_R   0.701374 0.731655 0.676255 0.941775
C5    C     C_R   0.201578 0.768540 0.676140 0.921879
C6    C     C_R   0.798424 0.231378 0.323856 0.916989
C7    C     C_R   0.798540 0.768493 0.323815 0.900917
C8    C     C_R   0.199289 0.237276 0.676739 0.924745
C9    C     C_R   0.691587 0.128957 0.532737 0.893253
C10   C     C_R   0.309168 0.870486 0.463296 0.885804
C11   C     C_R   0.308513 0.129430 0.465338 0.907373
C12   C     C_R   0.696626 0.872008 0.517136 0.903664
C13   C     C_R   0.191218 0.629254 0.534844 0.885046
C14   C     C_R   0.808751 0.370774 0.465349 0.886940
C15   C     C_R   0.808644 0.629275 0.465768 0.891912
C16   C     C_R   0.191334 0.370709 0.534384 0.866409
Zn1   Zn    Zn3+2 0.792340 0.208750 0.507670 1.042754
Zn2   Zn    Zn3+2 0.207660 0.791250 0.492330 1.051146
Zn3   Zn    Zn3+2 0.207660 0.208750 0.492330 1.075563
Zn4   Zn    Zn3+2 0.792340 0.791250 0.507670 1.041425
Zn5   Zn    Zn3+2 0.292340 0.708750 0.507670 1.051713
Zn6   Zn    Zn3+2 0.707660 0.291250 0.492330 1.048538
Zn7   Zn    Zn3+2 0.707660 0.708750 0.492330 1.047749
Zn8   Zn    Zn3+2 0.292340 0.291250 0.507670 1.081515
C17   C     C_R   0.541258 0.129325 0.516746 0.081486
C18   C     C_R   0.479072 0.872925 0.412120 0.092173
C19   C     C_R   0.462839 0.132590 0.460731 0.090875
C20   C     C_R   0.573192 0.875663 0.430871 0.097065
C21   C     C_R   0.037646 0.631284 0.533500 0.091080
C22   C     C_R   0.961729 0.368712 0.468908 0.085470
C23   C     C_R   0.961022 0.631901 0.472985 0.089871
C24   C     C_R   0.038351 0.368080 0.529422 0.086957
C25   C     C_R   0.516379 0.194943 0.516378 -0.136590
C26   C     C_R   0.511340 0.810798 0.393458 -0.104608
C27   C     C_R   0.479046 0.197064 0.484823 -0.114331
C28   C     C_R   0.558702 0.812639 0.400846 -0.144905
C29   C     C_R   0.017593 0.697162 0.520582 -0.143652
C30   C     C_R   0.981745 0.302828 0.481912 -0.158414
C31   C     C_R   0.980707 0.697507 0.488017 -0.146925
C32   C     C_R   0.018634 0.302476 0.514472 -0.141022
C33   C     C_R   0.486008 0.066629 0.464105 0.044876
C34   C     C_R   0.541424 0.937916 0.449107 0.047816
C35   C     C_R   0.527725 0.065701 0.486675 0.042534
C36   C     C_R   0.495794 0.937337 0.435835 0.042275
C37   C     C_R   0.979618 0.565890 0.488504 0.042505
C38   C     C_R   0.019662 0.434095 0.514077 0.040131
C39   C     C_R   0.019293 0.565611 0.516144 0.042113
C40   C     C_R   0.979988 0.434378 0.486438 0.040974
C41   C     C_R   0.959317 0.500266 0.474736 -0.033114
C42   C     C_R   0.040014 0.499722 0.527717 -0.030208
C43   C     C_R   0.467816 0.001777 0.443968 -0.023885
C44   C     C_R   0.555711 0.001270 0.479118 -0.027516
C45   C     C_R   0.894127 0.434194 0.445532 0.058413
C46   C     C_R   0.105558 0.565811 0.555993 0.055949
C47   C     C_R   0.105871 0.433235 0.554295 0.057230
C48   C     C_R   0.893811 0.566756 0.447235 0.057180
C49   C     C_R   0.398014 0.934978 0.427417 0.056599
C50   C     C_R   0.612516 0.064433 0.530132 0.058249
C51   C     C_R   0.629411 0.937327 0.485108 0.056664
C52   C     C_R   0.395484 0.067615 0.436305 0.056585
C53   C     C_R   0.843634 0.435092 0.444635 -0.100951
C54   C     C_R   0.156287 0.564928 0.556045 -0.101325
C55   C     C_R   0.156465 0.434524 0.555119 -0.093969
C56   C     C_R   0.843456 0.565462 0.445553 -0.099767
C57   C     C_R   0.344289 0.935185 0.438797 -0.103795
C58   C     C_R   0.659682 0.063918 0.541195 -0.097285
C59   C     C_R   0.669416 0.936907 0.513826 -0.098102
C60   C     C_R   0.343280 0.065785 0.442154 -0.101996
C61   C     C_R   0.820984 0.500204 0.440219 -0.266662
C62   C     C_R   0.179065 0.499799 0.560089 -0.267545
C63   C     C_R   0.319705 0.000309 0.440527 -0.248823
C64   C     C_R   0.683589 0.999502 0.541300 -0.265562
C65   C     C_R   0.916126 0.500434 0.454662 0.069467
C66   C     C_R   0.083413 0.499560 0.547257 0.070480
C67   C     C_R   0.420676 0.001431 0.434854 0.078697
C68   C     C_R   0.598839 0.000772 0.499042 0.071732
C69   C     C_R   0.077647 0.368501 0.556803 -0.169782
C70   C     C_R   0.921956 0.631484 0.445104 -0.177099
C71   C     C_R   0.922580 0.369702 0.441249 -0.189982
C72   C     C_R   0.077035 0.630304 0.560638 -0.172368
C73   C     C_R   0.618821 0.877393 0.442963 -0.213772
C74   C     C_R   0.422882 0.132786 0.435367 -0.155100
C75   C     C_R   0.430183 0.871730 0.408776 -0.174176
C76   C     C_R   0.580095 0.126744 0.545009 -0.172482
C77   C     C_R   0.721138 0.261898 0.952438 -0.022213
C78   C     C_R   0.279533 0.739079 0.047050 -0.018340
C79   C     C_R   0.289401 0.256198 0.035740 -0.026756
C80   C     C_R   0.719862 0.740220 0.953638 -0.020293
C81   C     C_R   0.220960 0.761923 0.952609 -0.030941
C82   C     C_R   0.779864 0.239184 0.046663 -0.020446
C83   C     C_R   0.778943 0.761407 0.047661 -0.018325
C84   C     C_R   0.232360 0.224860 0.937868 -0.029707
C85   C     C_R   0.700275 0.214500 0.027998 0.364404
C86   C     C_R   0.300369 0.786712 0.971719 0.364210
C87   C     C_R   0.242060 0.211727 0.073612 0.314448
C88   C     C_R   0.699692 0.787287 0.028832 0.367243
C89   C     C_R   0.200081 0.714393 0.028041 0.361510
C90   C     C_R   0.800659 0.286713 0.971228 0.365229
C91   C     C_R   0.799005 0.714163 0.972693 0.365062
C92   C     C_R   0.282954 0.262405 0.896171 0.327422
C93   C     C_R   0.729744 0.204426 0.074338 -0.250323
C94   C     C_R   0.270999 0.796807 0.925203 -0.225555
C95   C     C_R   0.211508 0.204764 0.028962 -0.204414
C96   C     C_R   0.729318 0.796595 0.075079 -0.257625
C97   C     C_R   0.229462 0.704272 0.074518 -0.252045
C98   C     C_R   0.771232 0.296704 0.924796 -0.246629
C99   C     C_R   0.769437 0.704949 0.926357 -0.248623
C100  C     C_R   0.306693 0.284520 0.948483 -0.202521
C101  C     C_R   0.640969 0.321102 0.950641 0.298637
C102  C     C_R   0.359900 0.680134 0.048547 0.292101
C103  C     C_R   0.375781 0.297214 0.039946 0.227236
C104  C     C_R   0.638370 0.682792 0.953111 0.300480
C105  C     C_R   0.140597 0.820721 0.951112 0.307485
C106  C     C_R   0.860528 0.180890 0.047975 0.293598
C107  C     C_R   0.860723 0.818447 0.047630 0.296368
C108  C     C_R   0.162704 0.148089 0.918324 0.228595
C109  C     C_R   0.612487 0.340428 0.903393 -0.285944
C110  C     C_R   0.388117 0.660286 0.095993 -0.278927
C111  C     C_R   0.397840 0.329141 0.090977 -0.249543
C112  C     C_R   0.610374 0.662558 0.905428 -0.272853
C113  C     C_R   0.112148 0.840094 0.903899 -0.269808
C114  C     C_R   0.888506 0.160706 0.095656 -0.280405
C115  C     C_R   0.889148 0.837983 0.094870 -0.273677
C116  C     C_R   0.122799 0.145102 0.889614 -0.301319
C117  C     C_R   0.627491 0.311124 0.819436 0.230242
C118  C     C_R   0.372806 0.688715 0.180419 0.232940
C119  C     C_R   0.376977 0.309683 0.180552 0.232416
C120  C     C_R   0.626079 0.690696 0.820585 0.221675
C121  C     C_R   0.127356 0.811499 0.819610 0.226794
C122  C     C_R   0.872943 0.188631 0.180392 0.237939
C123  C     C_R   0.873630 0.809518 0.179472 0.227530
C124  C     C_R   0.127819 0.189205 0.819153 0.228945
C125  C     C_R   0.678126 0.279545 0.772425 -0.169443
C126  C     C_R   0.322064 0.720154 0.227579 -0.176231
C127  C     C_R   0.323384 0.285518 0.227348 -0.191297
C128  C     C_R   0.677475 0.720915 0.772727 -0.183328
C129  C     C_R   0.178140 0.780211 0.772320 -0.176190
C130  C     C_R   0.822082 0.219829 0.227591 -0.179492
C131  C     C_R   0.822147 0.779646 0.227570 -0.170759
C132  C     C_R   0.174285 0.230046 0.774342 -0.178297
C133  C     C_R   0.708826 0.263909 0.815896 -0.241025
C134  C     C_R   0.291539 0.736133 0.183875 -0.234501
C135  C     C_R   0.293717 0.276239 0.180941 -0.212782
C136  C     C_R   0.708167 0.736816 0.816348 -0.240478
C137  C     C_R   0.208820 0.764518 0.815855 -0.234998
C138  C     C_R   0.791628 0.235787 0.183744 -0.243202
C139  C     C_R   0.791055 0.764473 0.184471 -0.252217
C140  C     C_R   0.203516 0.249830 0.818795 -0.187586
C141  C     C_R   0.689336 0.281440 0.906291 0.039626
C142  C     C_R   0.311310 0.719328 0.093179 0.037400
C143  C     C_R   0.320228 0.275276 0.085682 0.050680
C144  C     C_R   0.687751 0.721118 0.907758 0.038834
C145  C     C_R   0.189178 0.781562 0.906459 0.043553
C146  C     C_R   0.811668 0.219527 0.092796 0.040297
C147  C     C_R   0.811209 0.780460 0.093259 0.041223
C148  C     C_R   0.199328 0.207803 0.891222 0.055164
O33   O     O_R   0.062020 0.072840 0.007170 -0.571210
O34   O     O_R   0.937980 0.927160 0.992830 -0.579718
O35   O     O_R   0.937980 0.072840 0.992830 -0.576449
O36   O     O_R   0.062020 0.927160 0.007170 -0.569938
O37   O     O_R   0.562020 0.572840 0.007170 -0.578866
O38   O     O_R   0.437980 0.427160 0.992830 -0.592505
O39   O     O_R   0.437980 0.572840 0.992830 -0.580432
O40   O     O_R   0.562020 0.427160 0.007170 -0.579037
O41   O     O_R   0.947860 0.073950 0.109290 -0.569524
O42   O     O_R   0.052140 0.926050 0.890710 -0.573525
O43   O     O_R   0.052140 0.073950 0.890710 -0.573049
O44   O     O_R   0.947860 0.926050 0.109290 -0.568015
O45   O     O_R   0.447860 0.573950 0.109290 -0.563789
O46   O     O_R   0.552140 0.426050 0.890710 -0.566294
O47   O     O_R   0.552140 0.573950 0.890710 -0.567309
O48   O     O_R   0.447860 0.426050 0.109290 -0.567949
C149  C     C_R   0.077906 0.094521 0.929625 0.934179
C150  C     C_R   0.929154 0.896263 0.062721 0.918680
C151  C     C_R   0.928661 0.103112 0.063165 0.928924
C152  C     C_R   0.071689 0.897239 0.936523 0.918602
C153  C     C_R   0.570653 0.603910 0.937436 0.919340
C154  C     C_R   0.434206 0.392180 0.058534 0.922106
C155  C     C_R   0.428414 0.602881 0.063408 0.924791
C156  C     C_R   0.571923 0.397447 0.936230 0.909778
Zn9   Zn    Zn3+2 0.505960 0.500000 0.080520 1.223103
Zn10  Zn    Zn3+2 0.494040 0.500000 0.919480 1.203673
Zn11  Zn    Zn3+2 0.005960 1.000000 0.080520 1.222584
Zn12  Zn    Zn3+2 0.994040 0.000000 0.919480 1.221124
H1    H     H_    0.032953 0.250990 0.525367 0.166898
H2    H     H_    0.966433 0.748994 0.477027 0.163365
H3    H     H_    0.967712 0.251594 0.469381 0.164246
H4    H     H_    0.031668 0.748397 0.533026 0.164754
H5    H     H_    0.583013 0.764079 0.385908 0.155960
H6    H     H_    0.461051 0.248447 0.483185 0.168753
H7    H     H_    0.499943 0.760859 0.373369 0.179689
H8    H     H_    0.526960 0.244811 0.537902 0.169340
H9    H     H_    0.782472 0.500029 0.440518 0.201452
H10   H     H_    0.217762 0.499976 0.559146 0.201888
H11   H     H_    0.279258 0.999935 0.448169 0.205417
H12   H     H_    0.716312 0.999014 0.557536 0.201537
H13   H     H_    0.085002 0.317500 0.579974 0.203418
H14   H     H_    0.914836 0.682483 0.421624 0.201292
H15   H     H_    0.915360 0.319358 0.416556 0.198399
H16   H     H_    0.084504 0.680667 0.584984 0.200230
H17   H     H_    0.645740 0.831733 0.417025 0.173147
H18   H     H_    0.414166 0.184672 0.416249 0.198830
H19   H     H_    0.418658 0.821782 0.389264 0.196150
H20   H     H_    0.583861 0.173861 0.579203 0.203601
H21   H     H_    0.786526 0.334133 0.868291 0.194106
H22   H     H_    0.214136 0.666758 0.130941 0.191300
H23   H     H_    0.341353 0.320622 0.917564 0.210685
H24   H     H_    0.784167 0.667688 0.870261 0.193514
H25   H     H_    0.286293 0.834360 0.868823 0.203664
H26   H     H_    0.714437 0.166996 0.130844 0.193132
H27   H     H_    0.714561 0.833777 0.131263 0.189418
H28   H     H_    0.171926 0.179924 0.065413 0.226449
N1    N     N_R   0.650051 0.175296 0.057646 0.236231
O49   O     O_R   0.634574 0.155195 0.000330 -0.321530
O50   O     O_R   0.621996 0.153498 0.140953 -0.330107
N2    N     N_R   0.350452 0.826141 0.942523 0.240105
O51   O     O_R   0.365719 0.846135 0.000140 -0.313769
O52   O     O_R   0.378542 0.848298 0.859377 -0.310694
N3    N     N_R   0.226302 0.168566 0.153147 0.207673
O53   O     O_R   0.262324 0.129520 0.160326 -0.312446
O54   O     O_R   0.175173 0.158561 0.210834 -0.361698
N4    N     N_R   0.650012 0.826863 0.058246 0.235043
O55   O     O_R   0.622240 0.848219 0.141437 -0.342359
O56   O     O_R   0.634798 0.847655 0.000805 -0.319842
N5    N     N_R   0.149917 0.675118 0.057426 0.231412
O57   O     O_R   0.134639 0.654915 0.999893 -0.338755
O58   O     O_R   0.121714 0.653383 0.140732 -0.338367
N6    N     N_R   0.850755 0.326153 0.941845 0.235917
O59   O     O_R   0.865991 0.346464 0.999395 -0.325858
O60   O     O_R   0.878888 0.347995 0.858571 -0.325316
N7    N     N_R   0.848485 0.674210 0.943717 0.235090
O61   O     O_R   0.863418 0.653287 0.001473 -0.323796
O62   O     O_R   0.876232 0.652447 0.860699 -0.326528
N8    N     N_R   0.313372 0.273361 0.800406 0.199481
O63   O     O_R   0.320038 0.219635 0.746536 -0.345224
O64   O     O_R   0.342009 0.332275 0.767345 -0.369456
N9    N     N_R   0.621190 0.341493 0.042880 0.218712
O65   O     O_R   0.574110 0.317996 0.105118 -0.278010
O66   O     O_R   0.651395 0.379922 0.065544 -0.364925
N10   N     N_R   0.380172 0.660635 0.955894 0.217656
O67   O     O_R   0.350181 0.623117 0.931927 -0.381287
O68   O     O_R   0.427741 0.683542 0.894655 -0.270346
N11   N     N_R   0.411719 0.274528 0.948613 0.212687
O69   O     O_R   0.404111 0.211680 0.921684 -0.294670
O70   O     O_R   0.457310 0.308337 0.898465 -0.315524
N12   N     N_R   0.617132 0.664197 0.046531 0.218445
O71   O     O_R   0.646235 0.627358 0.072682 -0.369274
O72   O     O_R   0.569000 0.685758 0.106003 -0.286524
N13   N     N_R   0.120618 0.840727 0.043534 0.221433
O73   O     O_R   0.073306 0.817542 0.105364 -0.279359
O74   O     O_R   0.150668 0.878996 0.066683 -0.323219
N14   N     N_R   0.881379 0.162306 0.954893 0.219549
O75   O     O_R   0.851800 0.125291 0.929618 -0.365315
O76   O     O_R   0.929336 0.184904 0.894693 -0.280811
N15   N     N_R   0.881658 0.837360 0.954376 0.219297
O77   O     O_R   0.929517 0.815361 0.894362 -0.276990
O78   O     O_R   0.852433 0.874645 0.928874 -0.366128
N16   N     N_R   0.173322 0.085201 0.957749 0.201525
O79   O     O_R   0.220595 0.054458 0.915197 -0.323194
O80   O     O_R   0.139987 0.064871 0.040049 -0.316642
N17   N     N_R   0.590646 0.310693 0.783587 0.241306
O81   O     O_R   0.589774 0.364999 0.735165 -0.335221
O82   O     O_R   0.567075 0.250053 0.783004 -0.311230
N18   N     N_R   0.409507 0.687699 0.216534 0.224440
O83   O     O_R   0.446250 0.738319 0.193307 -0.321725
O84   O     O_R   0.408312 0.634718 0.268321 -0.342256
N19   N     N_R   0.410981 0.313460 0.221739 0.226117
O85   O     O_R   0.407186 0.367881 0.273126 -0.341330
O86   O     O_R   0.452324 0.270290 0.193972 -0.314448
N20   N     N_R   0.589171 0.690299 0.784840 0.230053
O87   O     O_R   0.590264 0.638202 0.732427 -0.332723
O88   O     O_R   0.549284 0.736104 0.815854 -0.290591
N21   N     N_R   0.090493 0.812230 0.783809 0.224935
O89   O     O_R   0.091836 0.864847 0.731463 -0.339411
O90   O     O_R   0.051800 0.764007 0.811533 -0.311686
N22   N     N_R   0.909480 0.186959 0.216843 0.222786
O91   O     O_R   0.907193 0.134110 0.269617 -0.348968
O92   O     O_R   0.950125 0.232306 0.186214 -0.361679
N23   N     N_R   0.910785 0.809236 0.214731 0.224776
O93   O     O_R   0.910108 0.861016 0.267199 -0.341060
O94   O     O_R   0.950387 0.762982 0.183450 -0.309736
N24   N     N_R   0.087246 0.192117 0.791167 0.230031
O95   O     O_R   0.084852 0.141759 0.739646 -0.332244
O96   O     O_R   0.061263 0.252363 0.800534 -0.333019
H29   H     H_    0.747935 0.237702 0.779842 0.202278
H30   H     H_    0.252357 0.762151 0.219961 0.204754
H31   H     H_    0.250424 0.267443 0.219796 0.200258
H32   H     H_    0.747954 0.761929 0.779654 0.201954
H33   H     H_    0.248008 0.738523 0.779726 0.201609
H34   H     H_    0.752322 0.261478 0.219890 0.202385
H35   H     H_    0.751187 0.739607 0.221381 0.196344
H36   H     H_    0.231961 0.294418 0.791829 0.208114

loop_
_geom_bond_atom_site_label_1
_geom_bond_atom_site_label_2
_geom_bond_distance
_ccdc_geom_bond_type
C112  C153  1.453109 S    
C104  C144  1.405312 A    
O5    C5    1.259868 A    
O7    Zn7   2.009316 S    
O31   Zn4   2.068809 S    
O42   Zn12  2.007365 S    
O8    Zn8   2.009316 S    
O4    C4    1.255022 A    
C74   H18   1.076865 S    
O18   Zn2   2.014992 S    
C130  C138  1.416665 A    
C82   C90   1.418237 A    
N14   O75   1.301234 A    
C12   C59   1.440493 S    
C63   H11   1.083991 S    
O43   C149  1.256321 A    
O44   Zn11  1.994601 S    
C22   C30   1.403637 A    
C61   H9    1.084327 S    
O1    Zn1   2.015762 S    
C7    C131  1.448124 S    
C70   H14   1.077788 S    
O34   C150  1.226556 A    
N11   O69   1.301853 A    
N10   O67   1.301213 A    
N15   O78   1.301268 A    
C50   C76   1.416627 A    
C107  C115  1.430212 A    
C19   C33   1.397670 A    
O21   C13   1.302601 A    
C55   C62   1.381260 A    
O2    C2    1.260022 A    
C103  C111  1.418794 A    
N1    O49   1.301281 A    
C33   C35   1.405094 A    
O6    Zn6   2.015762 S    
C36   C43   1.399119 A    
N2    O52   1.301527 A    
C64   H12   1.085227 S    
C17   C76   1.395854 A    
C41   C65   1.417000 A    
C37   C39   1.409830 A    
C126  C134  1.416487 A    
N7    O61   1.301379 A    
C10   C57   1.470229 S    
C81   C89   1.418135 A    
O27   C3    1.282953 A    
N24   O95   1.302173 A    
C86   N2    1.440833 S    
C113  C121  1.386532 A    
C94   H25   1.083570 S    
O35   Zn12  1.991807 S    
C113  C152  1.455531 S    
C38   C42   1.404408 A    
C106  C114  1.429825 A    
O46   Zn10  2.007365 S    
O37   Zn9   1.976501 S    
C57   C63   1.382762 A    
N18   O83   1.300411 A    
C102  C142  1.405722 A    
O30   Zn1   2.069487 S    
C23   C31   1.403797 A    
N9    O66   1.301205 A    
C52   C74   1.421462 A    
O24   Zn8   2.026857 S    
O17   Zn1   2.014992 S    
C90   C98   1.409543 A    
C135  C143  1.414723 A    
C136  C144  1.397625 A    
C84   C95   1.409865 A    
C90   N6    1.440801 S    
O23   Zn7   2.026857 S    
C108  C148  1.419147 A    
O9    C9    1.252864 A    
C21   C29   1.403528 A    
O12   C12   1.246791 A    
O13   C13   1.258171 A    
C119  C127  1.391580 A    
C101  C141  1.405430 A    
C120  C128  1.383647 A    
O40   C156  1.228580 A    
C89   C97   1.409383 A    
C86   C94   1.409609 A    
O7    C7    1.254420 A    
O9    Zn6   2.101207 S    
O8    C8    1.257350 A    
C33   C43   1.406477 A    
C25   H8    1.083622 S    
O11   Zn8   2.111812 S    
C111  C119  1.383755 A    
C17   C25   1.403185 A    
C49   C75   1.419860 A    
C29   H4    1.083630 S    
C71   H15   1.078490 S    
O16   Zn3   2.111812 S    
C4    C128  1.449845 S    
C105  N13   1.436741 S    
C134  C142  1.396523 A    
C18   C36   1.406559 A    
O22   Zn6   2.014992 S    
O30   C6    1.293008 A    
C31   H2    1.083626 S    
C34   C36   1.411529 A    
C79   C100  1.413660 A    
C22   C40   1.402079 A    
C89   N5    1.440837 S    
O18   C10   1.301648 A    
C5    C129  1.451259 S    
C38   C40   1.409817 A    
C35   C44   1.400819 A    
C82   C146  1.496729 S    
C84   C92   1.421431 A    
N5    O57   1.301288 A    
O39   Zn10  1.991807 S    
O2    Zn2   2.015762 S    
C19   C27   1.403637 A    
C45   C53   1.432607 A    
C22   C71   1.396028 A    
N21   O90   1.300372 A    
C47   C55   1.434744 A    
C88   N4    1.440881 S    
O6    C6    1.260626 A    
O33   Zn11  1.976501 S    
C114  C151  1.456450 S    
C107  N15   1.437161 S    
C131  C139  1.418091 A    
C46   C66   1.410210 A    
C119  N19   1.439147 S    
O37   C153  1.227202 A    
C129  C137  1.416816 A    
O20   C12   1.293350 A    
N22   O92   1.300497 A    
C91   N7    1.440879 S    
N20   O88   1.300399 A    
O23   C15   1.302470 A    
O24   C16   1.302073 A    
C117  C125  1.384334 A    
C84   C148  1.522013 S    
O35   C151  1.228486 A    
C115  C123  1.383849 A    
C105  C145  1.405225 A    
C138  C146  1.397143 A    
N17   O81   1.302290 A    
C93   H26   1.083594 S    
O38   C154  1.246660 A    
O3    C3    1.268252 A    
C108  N16   1.441549 S    
C79   C143  1.523418 S    
C80   C144  1.497195 S    
C20   C28   1.407247 A    
N8    O64   1.301386 A    
N23   O94   1.300429 A    
C124  C132  1.370916 A    
C106  N14   1.436971 S    
C127  C135  1.412932 A    
C128  C136  1.418294 A    
C96   H27   1.083679 S    
C99   H24   1.083587 S    
C24   C38   1.402153 A    
C114  C122  1.386646 A    
C1    C125  1.451430 S    
C34   C44   1.409508 A    
C26   H7    1.083458 S    
C39   C42   1.404968 A    
N13   O74   1.301230 A    
C30   H3    1.083628 S    
C17   C35   1.404553 A    
N14   O76   1.301385 A    
C50   C68   1.415652 A    
C104  C112  1.429740 A    
C139  H35   1.083705 S    
C48   C65   1.411271 A    
C24   C69   1.396409 A    
C109  C117  1.387763 A    
C21   C39   1.402266 A    
C42   C66   1.416751 A    
O12   Zn7   2.111812 S    
C91   C99   1.409346 A    
O13   Zn2   2.101207 S    
N10   O68   1.301172 A    
N12   O71   1.301268 A    
O47   C153  1.270339 A    
C51   C59   1.432026 A    
C56   C61   1.381014 A    
C21   C72   1.396132 A    
C77   C85   1.418174 A    
O45   C155  1.269681 A    
O25   C1    1.294809 A    
C79   C87   1.420855 A    
C48   C56   1.435265 A    
C111  C154  1.463108 S    
O10   C10   1.262701 A    
C85   N1    1.440960 S    
C77   C98   1.404451 A    
C75   H19   1.080709 S    
N3    O53   1.301556 A    
O14   C14   1.257618 A    
C73   H17   1.077868 S    
C133  H29   1.083631 S    
C87   C95   1.404973 A    
C88   C96   1.409698 A    
C139  C147  1.396623 A    
N24   O96   1.300658 A    
C62   H10   1.084291 S    
C137  C145  1.396609 A    
C98   H21   1.083580 S    
N16   O79   1.300988 A    
C117  N17   1.438989 S    
O10   Zn5   2.101207 S    
C140  C148  1.407912 A    
C69   H13   1.077893 S    
O33   C149  1.231898 A    
C25   C27   1.396752 A    
C15   C56   1.466817 S    
C109  C156  1.455610 S    
C101  N9    1.436608 S    
C81   C94   1.404419 A    
C123  C131  1.383312 A    
O36   Zn11  1.991809 S    
C48   C70   1.420807 A    
C132  C140  1.411198 A    
N18   O84   1.302354 A    
C59   C64   1.375081 A    
C133  C141  1.396074 A    
N9    O65   1.301127 A    
C103  N11   1.444476 S    
O19   C11   1.296010 A    
C6    C130  1.451660 S    
C124  N24   1.439482 S    
C135  H31   1.079586 S    
C136  H32   1.083623 S    
C121  N21   1.438955 S    
C11   C60   1.459935 S    
O3    Zn3   2.009316 S    
O27   Zn8   2.068809 S    
N6    O59   1.301289 A    
C107  C147  1.405246 A    
C60   C63   1.382362 A    
C103  C143  1.424386 A    
C95   H28   1.076887 S    
N19   O85   1.302428 A    
O32   Zn3   2.068809 S    
N4    O55   1.301820 A    
N15   O77   1.301220 A    
C122  C130  1.386404 A    
C37   C41   1.404472 A    
C76   H20   1.079887 S    
O15   Zn4   2.111812 S    
O25   Zn6   2.069487 S    
C116  C149  1.442752 S    
O45   Zn9   2.007363 S    
O22   C14   1.303000 A    
N1    O50   1.301607 A    
O41   C151  1.269778 A    
C53   C61   1.381649 A    
C8    C132  1.457736 S    
N2    O51   1.301295 A    
C118  C126  1.385694 A    
C110  C118  1.386849 A    
C83   C91   1.418138 A    
C51   C68   1.407358 A    
C106  C146  1.406068 A    
O46   C156  1.269104 A    
C45   C71   1.419990 A    
O38   Zn10  1.976502 S    
C80   C88   1.418743 A    
C47   C69   1.420518 A    
C92   C100  1.409472 A    
C72   H16   1.078583 S    
C110  C155  1.456279 S    
C102  C110  1.430501 A    
C118  N18   1.438913 S    
C19   C74   1.389842 A    
C44   C68   1.413633 A    
C100  H23   1.079886 S    
O1    C1    1.258399 A    
C92   N8    1.435865 S    
O28   C4    1.291817 A    
N17   O82   1.300673 A    
N21   O89   1.302374 A    
O29   C5    1.293562 A    
C104  N12   1.437267 S    
C108  C116  1.430087 A    
C2    C126  1.451371 S    
O34   Zn12  1.976502 S    
C26   C28   1.402372 A    
N23   O93   1.302290 A    
C112  C120  1.384232 A    
C16   C55   1.466964 S    
O47   Zn10  1.994600 S    
C122  N22   1.439297 S    
C28   H5    1.083506 S    
O15   C15   1.252898 A    
C115  C150  1.452833 S    
O16   C16   1.253481 A    
C101  C109  1.431468 A    
C32   H1    1.083632 S    
C47   C66   1.411302 A    
O4    Zn4   2.009316 S    
O5    Zn5   2.015762 S    
N11   O70   1.299952 A    
C77   C141  1.496361 S    
N3    O54   1.301458 A    
O14   Zn1   2.101207 S    
C125  C133  1.416214 A    
C97   H22   1.083576 S    
C29   C31   1.397265 A    
C46   C54   1.432150 A    
C18   C26   1.404346 A    
O31   C7    1.291615 A    
C140  H36   1.078302 S    
C3    C127  1.458077 S    
O11   C11   1.255581 A    
C78   C97   1.404386 A    
C87   N3    1.436392 S    
O41   Zn11  2.007363 S    
C105  C113  1.430421 A    
O32   C8    1.299077 A    
O36   C152  1.227634 A    
C49   C67   1.413556 A    
C20   C73   1.399711 A    
C137  H33   1.083614 S    
C134  H30   1.083634 S    
C45   C65   1.410193 A    
C13   C54   1.465503 S    
O28   Zn7   2.068809 S    
O26   C2    1.293487 A    
C102  N10   1.436743 S    
O29   Zn2   2.069487 S    
O42   C152  1.269914 A    
O43   Zn12  1.994600 S    
N6    O60   1.301578 A    
N13   O73   1.301221 A    
O48   Zn9   1.994601 S    
C51   C73   1.426174 A    
C49   C57   1.431788 A    
N5    O58   1.301572 A    
C27   H6    1.083657 S    
C46   C72   1.419761 A    
C82   C93   1.404562 A    
O39   C155  1.228352 A    
C52   C67   1.409376 A    
N4    O56   1.301302 A    
C80   C99   1.404598 A    
N19   O86   1.300541 A    
C18   C75   1.408321 A    
N12   O72   1.301257 A    
O26   Zn5   2.069487 S    
N22   O91   1.302447 A    
C52   C60   1.427556 A    
C23   C37   1.401950 A    
C78   C142  1.496431 S    
C85   C93   1.409455 A    
N20   O87   1.302323 A    
O44   C150  1.270643 A    
C40   C41   1.405034 A    
C83   C96   1.404673 A    
C23   C70   1.396358 A    
C121  C129  1.385567 A    
O20   Zn4   2.026857 S    
N7    O62   1.301771 A    
O21   Zn5   2.014992 S    
O40   Zn9   1.991809 S    
C138  H34   1.083639 S    
C14   C53   1.465341 S    
C120  N20   1.439269 S    
C58   C64   1.369099 A    
C20   C34   1.399272 A    
C43   C67   1.412332 A    
N16   O80   1.301102 A    
C24   C32   1.403692 A    
C83   C147  1.496857 S    
O17   C9    1.306369 A    
N8    O63   1.301687 A    
C81   C145  1.496337 S    
O19   Zn3   2.026857 S    
C116  C124  1.394246 A    
O48   C154  1.268156 A    
C9    C58   1.459913 S    
C30   C32   1.397258 A    
C78   C86   1.418124 A    
C123  N23   1.439410 S    
C50   C58   1.432275 A    
C54   C62   1.381942 A    
