data_mof_unit_51137.cif
_audit_creation_date              2013-03-05T15:52:29-0500
_audit_creation_method            fapswitch 2.2
_symmetry_space_group_name_H-M    P1
_symmetry_Int_Tables_number       1
_space_group_crystal_system       triclinic
_cell_length_a                    27.832803
_cell_length_b                    10.865898
_cell_length_c                    9.570054
_cell_angle_alpha                 88.659829
_cell_angle_beta                  89.832352
_cell_angle_gamma                 92.922664
_cell_volume                      2889.67618963

loop_
_atom_site_label
_atom_site_type_symbol
_atom_site_description
_atom_site_fract_x
_atom_site_fract_y
_atom_site_fract_z
_atom_type_partial_charge
O1    O     O_R   0.500000 0.319640 0.618810 -0.572672
O2    O     O_R   0.500000 0.319660 0.381240 -0.558629
C1    C     C_R   0.498333 0.262023 0.501451 0.806070
O3    O     O_R   0.430260 0.500010 0.618770 -0.602206
O4    O     O_R   0.430270 0.500030 0.381200 -0.572920
C2    C     C_R   0.407557 0.501620 0.500071 0.786078
Cu1   Cu    Cu3+1 0.500000 0.499990 0.640660 0.936541
Cu2   Cu    Cu3+1 0.500000 0.500010 0.359340 0.958573
O5    O     O_R   0.500000 0.680340 0.618760 -0.608332
O6    O     O_R   0.500000 0.680360 0.381190 -0.574111
O7    O     O_R   0.569730 0.499970 0.618800 -0.593056
O8    O     O_R   0.569740 0.499990 0.381230 -0.601627
C3    C     C_R   0.495065 0.736458 0.497773 0.793751
C4    C     C_R   0.592720 0.498906 0.499738 0.808459
C5    C     C_R   0.175512 0.400141 0.526678 0.546291
O9    O     O_2   0.197451 0.293027 0.513151 -0.533326
N1    N     N_R   0.202359 0.508604 0.530740 -0.464559
C6    C     C_R   0.181334 0.618907 0.543322 0.558588
C7    C     C_R   0.277981 0.562243 0.405573 -0.090647
C8    C     C_R   0.328255 0.562033 0.394540 0.107799
C9    C     C_R   0.329811 0.449144 0.617784 -0.263180
C10   C     C_R   0.279950 0.450570 0.627122 -0.095103
C11   C     C_R   0.253843 0.506874 0.521120 0.305746
C12   C     C_R   0.102334 0.512021 0.543614 -0.049510
C13   C     C_R   0.125300 0.399494 0.536118 -0.020408
C14   C     C_R   0.097845 0.288321 0.536267 -0.123905
C15   C     C_R   0.130533 0.624457 0.543063 -0.093293
C16   C     C_R   0.354594 0.503865 0.502111 -0.043831
H1    H     H_    0.349101 0.404409 0.701300 0.155118
H2    H     H_    0.261530 0.408158 0.717176 0.156251
H3    H     H_    0.114697 0.201013 0.528286 0.208697
C17   C     C_R   0.646253 0.499103 0.502080 -0.051129
C18   C     C_R   0.972856 0.396700 0.569652 0.043506
C19   C     C_R   0.976811 0.623694 0.548184 0.053763
C20   C     C_R   0.949580 0.509721 0.559445 0.071545
C21   C     C_R   0.944170 0.286533 0.591719 -0.200117
C22   C     C_R   0.894268 0.286697 0.593530 -0.128869
C23   C     C_R   0.870986 0.396535 0.573988 -0.025000
C24   C     C_R   0.898470 0.508528 0.558609 -0.044196
C25   C     C_R   0.874733 0.619135 0.540772 -0.025286
C26   C     C_R   0.824302 0.615324 0.533843 0.598979
N2    N     N_R   0.798460 0.505094 0.545314 -0.462572
C27   C     C_R   0.820605 0.396997 0.568241 0.555635
C28   C     C_R   0.725694 0.462334 0.402863 0.042722
C29   C     C_R   0.674835 0.462000 0.387607 0.068209
C30   C     C_R   0.669202 0.536472 0.625915 -0.245691
C31   C     C_R   0.718817 0.539116 0.638234 -0.107122
C32   C     C_R   0.747165 0.502544 0.528238 0.250209
O10   O     O_2   0.793919 0.290290 0.583785 -0.504221
C33   C     C_R   0.023741 0.397223 0.557031 0.042456
C34   C     C_R   0.051202 0.511344 0.551102 0.073713
C35   C     C_R   0.027975 0.624407 0.552007 0.028382
C36   C     C_R   0.048167 0.286926 0.546699 -0.193692
H4    H     H_    0.873968 0.199649 0.608927 0.193195
H5    H     H_    0.959175 0.198221 0.610263 0.142229
H6    H     H_    0.029861 0.197371 0.542245 0.145676
O11   O     O_2   0.209795 0.721584 0.560101 -0.503235
C37   C     C_R   0.106905 0.736922 0.546723 0.001493
H7    H     H_    0.257219 0.605880 0.324481 0.152013
C38   C     C_R   0.951660 0.733104 0.530361 -0.195182
C39   C     C_R   0.901731 0.730545 0.526787 -0.135743
O12   O     O_2   0.801263 0.720565 0.513492 -0.511996
C40   C     C_R   0.056761 0.735039 0.554535 -0.244929
H8    H     H_    0.969327 0.822739 0.514214 0.140566
H9    H     H_    0.648727 0.565228 0.714555 0.168240
H10   H     H_    0.884353 0.816814 0.511498 0.190263
H11   H     H_    0.735462 0.569104 0.734658 0.158934
H12   H     H_    0.041149 0.823345 0.561634 0.149130
C41   C     C_R   0.435551 0.116353 0.700667 -0.150869
H13   H     H_    0.431146 0.214221 0.698926 0.139442
C42   C     C_R   0.409069 0.047446 0.801404 -0.111600
H14   H     H_    0.387500 0.093391 0.876597 0.137260
C43   C     C_R   0.408981 0.919746 0.802683 -0.116446
H15   H     H_    0.387351 0.866386 0.878879 0.147543
C44   C     C_R   0.434676 0.860208 0.701639 -0.153131
H16   H     H_    0.429491 0.761169 0.700006 0.162730
C45   C     C_R   0.463185 0.928051 0.600643 0.101507
C46   C     C_R   0.464559 0.058714 0.602050 0.105202
C47   C     C_R   0.493773 0.126949 0.502067 -0.201469
C48   C     C_R   0.514814 0.065688 0.390595 -0.093416
C49   C     C_R   0.503873 0.940427 0.373767 -0.116493
C50   C     C_R   0.486657 0.869288 0.490725 -0.177864
H17   H     H_    0.443370 0.365497 0.133548 0.145163
C51   C     C_R   0.566065 0.658545 0.139895 -0.145067
H18   H     H_    0.567215 0.670577 0.249572 0.197259
C52   C     C_R   0.600183 0.731507 0.065704 -0.122519
H19   H     H_    0.625907 0.790677 0.120593 0.182936
C53   C     C_R   0.599889 0.732968 0.921775 -0.184166
H20   H     H_    0.625560 0.792777 0.863916 0.169637
C54   C     C_R   0.566088 0.659698 0.851382 -0.151719
H21   H     H_    0.568060 0.671332 0.741141 0.200572
C55   C     C_R   0.532559 0.578185 0.922916 0.203994
C56   C     C_R   0.532548 0.577919 0.072614 0.185893
N3    N     N_R   0.500460 0.501210 0.147910 -0.195058
C57   C     C_R   0.468849 0.426105 0.076284 -0.009524
H22   H     H_    0.443214 0.366109 0.874819 0.122028
C58   C     C_R   0.468847 0.426201 0.928235 -0.051570
N4    N     N_R   0.500480 0.501290 0.852040 -0.200888
C59   C     C_2   0.132278 0.859964 0.533624 0.921976
O13   O     O_2   0.125748 0.937642 0.621206 -0.595501
O14   O     O_R   0.161630 0.889033 0.417438 -0.716999
H23   H     H_    0.176281 0.976358 0.419199 0.353515
C60   C     C_2   0.549929 0.130007 0.293702 0.929636
O15   O     O_2   0.592706 0.132697 0.322438 -0.588050
O16   O     O_R   0.534255 0.183128 0.168484 -0.726767
H24   H     H_    0.561670 0.223526 0.111176 0.332910
C61   C     C_2   0.502467 0.891458 0.229320 0.893243
O17   O     O_2   0.534721 0.918941 0.145723 -0.582648
O18   O     O_R   0.462162 0.820101 0.186346 -0.754242
H25   H     H_    0.464635 0.794347 0.085514 0.326611
C62   C     C_3   0.651581 0.426231 0.250466 -0.744891
H26   H     H_    0.676638 0.393188 0.171599 0.242617
H27   H     H_    0.623511 0.351789 0.268546 0.271872
H28   H     H_    0.635573 0.507713 0.202030 0.223053
C63   C     C_2   0.757455 0.421938 0.289950 0.847755
O19   O     O_2   0.753200 0.316277 0.248712 -0.544517
O20   O     O_R   0.793463 0.503580 0.234882 -0.753074
H29   H     H_    0.813373 0.464914 0.160354 0.338879
C64   C     C_3   0.352531 0.627900 0.270915 -0.778964
H30   H     H_    0.326528 0.677625 0.205522 0.222462
H31   H     H_    0.380141 0.696970 0.307719 0.263772
H32   H     H_    0.369520 0.560566 0.203418 0.239458

loop_
_geom_bond_atom_site_label_1
_geom_bond_atom_site_label_2
_geom_bond_distance
_ccdc_geom_bond_type
C49   C61   1.492704 S    
C26   N2    1.367309 A    
C56   N3    1.379802 A    
Cu1   N4    2.023377 S    
C43   C44   1.391917 A    
C17   C29   1.429598 A    
C20   C24   1.421955 A    
C62   H26   1.104568 S    
C12   C15   1.417933 A    
C1    C47   1.466595 S    
C49   C50   1.413705 A    
C55   N4    1.381792 A    
Cu1   Cu2   2.692243 S    
C45   C46   1.418714 A    
Cu1   O7    1.951427 S    
N1    C11   1.436740 S    
C21   C22   1.389054 A    
C51   C52   1.388277 A    
C23   C24   1.408444 A    
O7    C4    1.305741 A    
C52   C53   1.377179 A    
C36   H6    1.076961 S    
C5    O9    1.350306 S    
C58   N4    1.366645 A    
C18   C21   1.415904 A    
Cu1   O5    1.965960 S    
C19   C20   1.420321 A    
C43   H15   1.082781 S    
C41   C42   1.392510 A    
O5    C3    1.306810 A    
C30   C31   1.385201 A    
C39   H10   1.083639 S    
C2    C16   1.475636 S    
C7    C8    1.403049 A    
C28   C63   1.482542 S    
C63   O20   1.397673 S    
C61   O17   1.221642 D    
O6    C3    1.294094 A    
C12   C34   1.424363 A    
C14   H3    1.083696 S    
O1    Cu1   1.975646 S    
C9    C10   1.391263 A    
C19   C38   1.417228 A    
C61   O18   1.399172 S    
C41   C46   1.417591 A    
C41   H13   1.076415 S    
C26   O12   1.349767 S    
O3    Cu1   1.952954 S    
C31   H11   1.083282 S    
C33   C34   1.422980 A    
C64   H31   1.110395 S    
C33   C36   1.412996 A    
C37   C59   1.482324 S    
C48   C60   1.482640 S    
C34   C35   1.417310 A    
O14   H23   1.014018 S    
Cu2   N3    2.023132 S    
C51   H18   1.061135 S    
C30   H9    1.081526 S    
C60   O16   1.398531 S    
C4    C17   1.490123 S    
C24   C25   1.407866 A    
C42   C43   1.387216 A    
C46   C47   1.423791 A    
C27   O10   1.349688 S    
C8    C16   1.420531 A    
C7    H7    1.083691 S    
C18   C33   1.420770 A    
C9    H1    1.083648 S    
C3    C50   1.473929 S    
C35   C40   1.410969 A    
C25   C39   1.395384 A    
C38   C39   1.389061 A    
O1    C1    1.298365 A    
C7    C11   1.399785 A    
C44   H16   1.078948 S    
C22   C23   1.395872 A    
C6    O11   1.347967 S    
C54   C55   1.416913 A    
C31   C32   1.391131 A    
Cu2   O8    1.952949 S    
H17   C57   1.081724 S    
H22   C58   1.080233 S    
C57   C58   1.416819 A    
N1    C6    1.367965 A    
C62   H27   1.105803 S    
N2    C32   1.436412 S    
C12   C13   1.411487 A    
C44   C45   1.417659 A    
C22   H4    1.083543 S    
O3    C2    1.301688 A    
C25   C26   1.403942 A    
C59   O14   1.398367 S    
C9    C16   1.406302 A    
O8    C4    1.303784 A    
N2    C27   1.367555 A    
C14   C36   1.385258 A    
C28   C29   1.423323 A    
C64   H32   1.109831 S    
C37   C40   1.396522 A    
C5    N1    1.364317 A    
C40   H12   1.076800 S    
C10   H2    1.082926 S    
C52   H19   1.083032 S    
C17   C30   1.406345 A    
O2    Cu2   1.965960 S    
C6    C15   1.418290 A    
C53   C54   1.387481 A    
C48   C49   1.392650 A    
C15   C37   1.418048 A    
O4    Cu2   1.951430 S    
C64   H30   1.110895 S    
C29   C62   1.515139 S    
O16   H24   1.013811 S    
C19   C35   1.424251 A    
C59   O13   1.223030 D    
C38   H8    1.076089 S    
O2    C1    1.296489 A    
C13   C14   1.396057 A    
C42   H14   1.082724 S    
C21   H5    1.077062 S    
O20   H29   1.013782 S    
C54   H21   1.060548 S    
O4    C2    1.300734 A    
C45   C50   1.418082 A    
C55   C56   1.432558 A    
C18   C20   1.418911 A    
C62   H28   1.104318 S    
C51   C56   1.413821 A    
N3    C57   1.366164 A    
C5    C13   1.399824 A    
C47   C48   1.411882 A    
C28   C32   1.410589 A    
C23   C27   1.403740 A    
C53   H20   1.083040 S    
Cu2   O6    1.975647 S    
C60   O15   1.221777 D    
C10   C11   1.397148 A    
O18   H25   1.014111 S    
C8    C64   1.508274 S    
C63   O19   1.222911 D    
