data_mof_unit_26812.cif
_audit_creation_date              2012-10-26T21:26:12-0400
_audit_creation_method            fapswitch 2.2
_symmetry_space_group_name_H-M    P1
_symmetry_Int_Tables_number       1
_space_group_crystal_system       triclinic
_cell_length_a                    16.099476
_cell_length_b                    16.099477
_cell_length_c                    30.057175
_cell_angle_alpha                 90.000019
_cell_angle_beta                  90.000076
_cell_angle_gamma                 90.000044
_cell_volume                      7790.6136752

loop_
_atom_site_label
_atom_site_type_symbol
_atom_type_description
_atom_site_fract_x
_atom_site_fract_y
_atom_site_fract_z
_atom_type_partial_charge
C1    C     C_3   1.000000 0.000000 0.250000 -0.006843
C2    C     C_R   0.925024 0.000001 0.282248 -0.007236
C3    C     C_3   0.237856 0.831920 0.829998 -0.311221
C4    C     C_3   0.314667 0.789989 0.849526 -0.453614
C5    C     C_3   0.842229 0.204773 0.150206 -0.250947
C6    C     C_3   0.762143 0.168148 0.170039 -0.311221
C7    C     C_3   0.685334 0.210100 0.150522 -0.453614
C8    C     C_3   0.795228 0.842229 0.349794 -0.250946
C9    C     C_3   0.831854 0.762143 0.329962 -0.311221
C10   C     C_3   0.789903 0.685334 0.349479 -0.453614
C11   C     C_3   0.204727 0.157770 0.650182 -0.250946
C12   C     C_3   0.168082 0.237855 0.670003 -0.311222
C13   C     C_R   1.000000 0.614800 0.941631 0.556100
C14   C     C_3   0.210013 0.314666 0.650475 -0.453615
C15   C     C_3   0.842230 0.204722 0.849821 -0.250946
C16   C     C_3   0.762144 0.168069 0.830003 -0.311221
C17   C     C_3   0.685333 0.209995 0.849535 -0.453613
C18   C     C_3   0.157771 0.795229 0.150206 -0.250947
C19   C     C_3   0.237857 0.831855 0.170038 -0.311221
C20   C     C_3   0.314666 0.789903 0.150521 -0.453615
C21   C     C_3   0.204772 0.157771 0.349793 -0.250946
C22   C     C_3   0.168148 0.237857 0.329961 -0.311220
C23   C     C_3   0.210101 0.314666 0.349477 -0.453614
C24   C     C_R   1.000000 0.385200 0.058369 0.556100
C25   C     C_3   0.795272 0.842230 0.650182 -0.250945
C26   C     C_3   0.831920 0.762144 0.670002 -0.311221
C27   C     C_3   0.789988 0.685334 0.650474 -0.453614
C28   C     C_R   0.385200 1.000000 0.441631 0.556100
C29   C     C_R   0.614800 0.000000 0.558369 0.556099
C30   C     C_R   1.000000 0.385200 0.941631 0.556100
C31   C     C_R   1.000000 0.614800 0.058369 0.556100
C32   C     C_R   0.614800 0.000000 0.441631 0.556100
C33   C     C_R   0.385200 1.000000 0.558369 0.556100
C34   C     C_R   0.074928 0.105322 0.199961 -0.106390
C35   C     C_3   0.000000 1.000000 0.750000 -0.006843
C36   C     C_R   0.925069 0.894656 0.800026 -0.106405
C37   C     C_R   0.894656 0.074931 0.699974 -0.106404
C38   C     C_R   0.105322 0.925071 0.300038 -0.106390
C39   C     C_R   0.925071 0.894678 0.199961 -0.106390
C40   C     C_R   0.074931 0.105345 0.800026 -0.106406
C41   C     C_R   0.105344 0.925069 0.699973 -0.106405
C42   C     C_R   0.894677 0.074929 0.300038 -0.106390
C43   C     C_R   0.074921 0.894745 0.800076 -0.106345
C44   C     C_R   0.925076 0.105276 0.199936 -0.106360
C45   C     C_R   0.894724 0.925077 0.300064 -0.106359
C46   C     C_R   0.000001 0.074975 0.217751 -0.007237
C47   C     C_R   0.105255 0.074921 0.699924 -0.106346
C48   C     C_R   0.925079 0.105253 0.800077 -0.106344
C49   C     C_R   0.074923 0.894724 0.199936 -0.106360
C50   C     C_R   0.105276 0.074923 0.300064 -0.106360
C51   C     C_R   0.894746 0.925079 0.699924 -0.106345
C52   C     C_R   0.076373 0.169657 0.168271 0.006235
C53   C     C_R   0.923626 0.830321 0.831716 0.006235
C54   C     C_R   0.830321 0.076374 0.668284 0.006235
C55   C     C_R   0.169657 0.923627 0.331729 0.006235
C56   C     C_R   0.923627 0.830343 0.168271 0.006235
C57   C     C_R   0.999998 0.925025 0.782248 -0.007236
C58   C     C_R   0.076374 0.169681 0.831715 0.006234
C59   C     C_R   0.169679 0.923625 0.668283 0.006235
C60   C     C_R   0.830342 0.076373 0.331728 0.006235
C61   C     C_R   0.076369 0.830411 0.831767 0.006234
C62   C     C_R   0.923630 0.169610 0.168245 0.006234
C63   C     C_R   0.830390 0.923630 0.331755 0.006235
C64   C     C_R   0.169588 0.076369 0.668233 0.006235
C65   C     C_R   0.923631 0.169586 0.831768 0.006235
C66   C     C_R   0.076370 0.830390 0.168245 0.006235
C67   C     C_R   0.169610 0.076370 0.331755 0.006234
C68   C     C_R   0.925025 0.000002 0.717751 -0.007236
C69   C     C_R   0.830412 0.923631 0.668233 0.006234
C70   C     C_R   0.000001 0.201825 0.152541 0.035814
C71   C     C_R   0.999999 0.798174 0.847459 0.035814
C72   C     C_R   0.798175 0.000002 0.652541 0.035814
C73   C     C_R   0.201825 0.999999 0.347459 0.035814
C74   C     C_R   0.999999 0.798175 0.152541 0.035814
C75   C     C_R   0.000002 0.201825 0.847459 0.035814
C76   C     C_R   0.201825 0.999998 0.652541 0.035814
C77   C     C_R   0.798174 0.000001 0.347459 0.035814
C78   C     C_1   1.000000 0.733014 0.119233 -0.087166
C79   C     C_R   0.074975 0.999999 0.282249 -0.007236
C80   C     C_1   0.000001 0.266986 0.880767 -0.087166
C81   C     C_1   0.266986 0.999999 0.619233 -0.087166
C82   C     C_1   0.733014 0.000000 0.380767 -0.087166
C83   C     C_1   0.000000 0.266986 0.119233 -0.087166
C84   C     C_1   1.000000 0.733014 0.880767 -0.087166
C85   C     C_1   0.733014 0.000001 0.619233 -0.087166
C86   C     C_1   0.266986 1.000000 0.380767 -0.087166
C87   C     C_1   1.000000 0.679037 0.091429 -0.042399
C88   C     C_1   0.000000 0.320963 0.908571 -0.042399
C89   C     C_1   0.320963 1.000000 0.591429 -0.042399
C90   C     C_R   0.999998 0.925025 0.217751 -0.007236
C91   C     C_1   0.679037 0.000000 0.408571 -0.042399
C92   C     C_1   0.000000 0.320963 0.091429 -0.042399
C93   C     C_1   1.000000 0.679037 0.908571 -0.042399
C94   C     C_1   0.679037 0.000000 0.591429 -0.042399
C95   C     C_1   0.320963 1.000000 0.408571 -0.042399
C96   C     C_3   0.157773 0.204868 0.150259 -0.250948
C97   C     C_3   0.237859 0.168291 0.170118 -0.311218
C98   C     C_3   0.314665 0.210291 0.150627 -0.453614
C99   C     C_3   0.842226 0.795086 0.849716 -0.250948
C100  C     C_3   0.762140 0.831638 0.829843 -0.311216
C101  C     C_R   0.000003 0.074975 0.782249 -0.007236
C102  C     C_3   0.685336 0.789615 0.849322 -0.453612
C103  C     C_3   0.795087 0.157775 0.650284 -0.250949
C104  C     C_3   0.831641 0.237860 0.670155 -0.311217
C105  C     C_3   0.789620 0.314664 0.650675 -0.453614
C106  C     C_3   0.204868 0.842226 0.349741 -0.250949
C107  C     C_3   0.168292 0.762141 0.329881 -0.311218
C108  C     C_3   0.210293 0.685335 0.349372 -0.453614
C109  C     C_3   0.842226 0.795132 0.150259 -0.250948
C110  C     C_3   0.762141 0.831708 0.170118 -0.311219
C111  C     C_3   0.685335 0.789709 0.150626 -0.453614
C112  C     C_R   0.074976 0.999997 0.717751 -0.007236
C113  C     C_3   0.157775 0.204919 0.849713 -0.250949
C114  C     C_3   0.237860 0.168371 0.829838 -0.311217
C115  C     C_3   0.314664 0.210399 0.849314 -0.453614
C116  C     C_3   0.204913 0.842225 0.650284 -0.250949
C117  C     C_3   0.168359 0.762140 0.670155 -0.311218
C118  C     C_3   0.210380 0.685336 0.650675 -0.453614
C119  C     C_3   0.795130 0.157773 0.349740 -0.250948
C120  C     C_3   0.831705 0.237859 0.329880 -0.311219
C121  C     C_3   0.789704 0.314664 0.349371 -0.453614
C122  C     C_3   0.157770 0.795273 0.849818 -0.250945
Cu1   Cu    Cu3+1 0.916660 0.500000 0.000000 0.913022
Cu2   Cu    Cu3+1 0.083340 0.500000 0.000000 0.913022
Cu3   Cu    Cu3+1 0.500000 0.916660 0.500000 0.913022
Cu4   Cu    Cu3+1 0.500000 0.083340 0.500000 0.913022
H1    H     H_    0.132221 0.077306 0.210879 0.108121
H2    H     H_    0.867789 0.077226 0.210837 0.108119
H3    H     H_    0.194874 0.158919 0.613564 0.152938
H4    H     H_    0.683321 0.201071 0.886168 0.152195
H5    H     H_    0.685834 0.277521 0.841938 0.150727
H6    H     H_    0.628563 0.182137 0.834781 0.139054
H7    H     H_    0.761609 0.177299 0.793333 0.157035
H8    H     H_    0.758679 0.100525 0.837507 0.155636
H9    H     H_    0.841086 0.194871 0.886439 0.152939
H10   H     H_    0.841921 0.272815 0.843563 0.148906
H11   H     H_    0.314138 0.722377 0.158118 0.150727
H12   H     H_    0.316704 0.798826 0.113889 0.152194
H13   H     H_    0.922774 0.867789 0.289163 0.108119
H14   H     H_    0.371436 0.817742 0.165285 0.139055
H15   H     H_    0.241349 0.899397 0.162535 0.155632
H16   H     H_    0.238366 0.822625 0.206709 0.157039
H17   H     H_    0.158054 0.727135 0.156464 0.148906
H18   H     H_    0.158941 0.805079 0.113589 0.152937
H19   H     H_    0.201177 0.316706 0.386110 0.152193
H20   H     H_    0.277627 0.314136 0.341881 0.150727
H21   H     H_    0.182263 0.371436 0.334713 0.139055
H22   H     H_    0.177377 0.238365 0.293290 0.157039
H23   H     H_    0.100605 0.241350 0.337463 0.155631
H24   H     H_    0.077189 0.132206 0.710816 0.108119
H25   H     H_    0.194921 0.158942 0.386411 0.152936
H26   H     H_    0.272866 0.158053 0.343536 0.148907
H27   H     H_    0.722462 0.685840 0.658071 0.150726
H28   H     H_    0.798912 0.683315 0.613841 0.152195
H29   H     H_    0.817842 0.628564 0.665230 0.139054
H30   H     H_    0.899463 0.758674 0.662499 0.155636
H31   H     H_    0.822690 0.761614 0.706673 0.157035
H32   H     H_    0.727179 0.841925 0.656439 0.148907
H33   H     H_    0.805124 0.841081 0.613564 0.152937
H34   H     H_    0.867794 0.077186 0.789184 0.108118
H35   H     H_    0.132211 0.922774 0.210837 0.108119
H36   H     H_    0.077226 0.132211 0.289163 0.108119
H37   H     H_    0.922811 0.867794 0.710816 0.108119
H38   H     H_    0.316752 0.201369 0.113995 0.152193
H39   H     H_    0.314085 0.277817 0.158223 0.150727
H40   H     H_    0.371434 0.182487 0.165410 0.139056
H41   H     H_    0.867775 0.922656 0.789100 0.108121
H42   H     H_    0.238319 0.177521 0.206789 0.157046
H43   H     H_    0.241402 0.100751 0.162616 0.155622
H44   H     H_    0.158992 0.195017 0.113642 0.152936
H45   H     H_    0.158007 0.272962 0.156517 0.148906
H46   H     H_    0.685942 0.722089 0.841727 0.150727
H47   H     H_    0.683224 0.798540 0.885953 0.152190
H48   H     H_    0.628566 0.817399 0.834528 0.139057
H49   H     H_    0.758572 0.899177 0.837344 0.155617
H50   H     H_    0.761704 0.822407 0.793173 0.157049
H51   H     H_    0.842016 0.726992 0.843459 0.148906
H52   H     H_    0.922657 0.132225 0.710900 0.108122
H53   H     H_    0.840983 0.804939 0.886333 0.152934
H54   H     H_    0.798542 0.316774 0.614044 0.152191
H55   H     H_    0.722095 0.314062 0.658272 0.150727
H56   H     H_    0.817408 0.371434 0.665467 0.139057
H57   H     H_    0.822411 0.238298 0.706825 0.157050
H58   H     H_    0.899181 0.241426 0.662654 0.155618
H59   H     H_    0.804938 0.159016 0.613667 0.152935
H60   H     H_    0.726993 0.157986 0.656541 0.148906
H61   H     H_    0.277819 0.685916 0.341776 0.150727
H62   H     H_    0.201370 0.683247 0.386004 0.152193
H63   H     H_    0.077305 0.867779 0.289121 0.108121
H64   H     H_    0.182490 0.628566 0.334588 0.139057
H65   H     H_    0.100752 0.758597 0.337383 0.155622
H66   H     H_    0.177522 0.761682 0.293211 0.157046
H67   H     H_    0.272962 0.841993 0.343484 0.148907
H68   H     H_    0.195016 0.841007 0.386358 0.152936
H69   H     H_    0.683248 0.798631 0.113994 0.152192
H70   H     H_    0.685914 0.722183 0.158223 0.150727
H71   H     H_    0.628565 0.817512 0.165409 0.139056
H72   H     H_    0.761681 0.822479 0.206788 0.157046
H73   H     H_    0.758598 0.899248 0.162616 0.155622
H74   H     H_    0.867779 0.922694 0.210879 0.108121
H75   H     H_    0.841008 0.804982 0.113642 0.152936
H76   H     H_    0.841992 0.727038 0.156517 0.148906
H77   H     H_    0.314055 0.277925 0.841718 0.150727
H78   H     H_    0.316780 0.201479 0.885946 0.152191
H79   H     H_    0.371434 0.182616 0.834520 0.139057
H80   H     H_    0.241432 0.100833 0.837340 0.155618
H81   H     H_    0.238291 0.177601 0.793168 0.157049
H82   H     H_    0.157981 0.273013 0.843456 0.148908
H83   H     H_    0.159021 0.195067 0.886330 0.152934
H84   H     H_    0.201458 0.683226 0.614044 0.152191
H85   H     H_    0.132226 0.077345 0.789100 0.108122
H86   H     H_    0.277906 0.685938 0.658271 0.150727
H87   H     H_    0.182593 0.628566 0.665467 0.139058
H88   H     H_    0.177589 0.761702 0.706825 0.157049
H89   H     H_    0.100820 0.758574 0.662653 0.155618
H90   H     H_    0.195062 0.840984 0.613667 0.152935
H91   H     H_    0.273006 0.842014 0.656541 0.148906
H92   H     H_    0.722179 0.314084 0.341774 0.150727
H93   H     H_    0.798626 0.316754 0.386002 0.152192
H94   H     H_    0.817507 0.371434 0.334587 0.139056
H95   H     H_    0.899245 0.241403 0.337382 0.155622
H96   H     H_    0.077343 0.867774 0.710899 0.108122
H97   H     H_    0.822476 0.238317 0.293210 0.157046
H98   H     H_    0.727036 0.158006 0.343483 0.148907
H99   H     H_    0.804982 0.158993 0.386357 0.152936
H100  H     H_    0.316685 0.798913 0.886159 0.152195
H101  H     H_    0.314160 0.722462 0.841930 0.150726
H102  H     H_    0.371437 0.817842 0.834770 0.139054
H103  H     H_    0.238386 0.822690 0.793327 0.157035
H104  H     H_    0.241327 0.899463 0.837501 0.155636
H105  H     H_    0.158919 0.805125 0.886436 0.152937
H106  H     H_    0.158075 0.727179 0.843561 0.148907
H107  H     H_    0.922693 0.132221 0.289121 0.108121
H108  H     H_    0.685863 0.277626 0.158119 0.150727
H109  H     H_    0.683294 0.201177 0.113890 0.152194
H110  H     H_    0.628564 0.182262 0.165287 0.139055
H111  H     H_    0.758649 0.100605 0.162536 0.155632
H112  H     H_    0.761635 0.177377 0.206709 0.157038
H113  H     H_    0.841947 0.272866 0.156464 0.148907
H114  H     H_    0.841058 0.194921 0.113589 0.152937
H115  H     H_    0.798826 0.683295 0.386112 0.152194
H116  H     H_    0.722376 0.685862 0.341883 0.150727
H117  H     H_    0.817741 0.628564 0.334715 0.139055
H118  H     H_    0.132206 0.922811 0.789183 0.108119
H119  H     H_    0.822625 0.761634 0.293292 0.157039
H120  H     H_    0.899397 0.758651 0.337465 0.155632
H121  H     H_    0.805079 0.841059 0.386411 0.152937
H122  H     H_    0.727135 0.841946 0.343536 0.148906
H123  H     H_    0.277540 0.314157 0.658068 0.150727
H124  H     H_    0.201084 0.316686 0.613842 0.152195
H125  H     H_    0.182163 0.371435 0.665233 0.139055
H126  H     H_    0.100538 0.241327 0.662501 0.155635
H127  H     H_    0.177314 0.238384 0.706673 0.157035
H128  H     H_    0.272821 0.158074 0.656438 0.148907
O1    O     O_R   0.929840 0.586710 0.956230 -0.503642
O2    O     O_R   0.070160 0.586710 0.956230 -0.503644
O3    O     O_R   0.413290 0.070160 0.543770 -0.503644
O4    O     O_R   0.586710 0.929840 0.456230 -0.503644
O5    O     O_R   0.070160 0.586710 0.043770 -0.503644
O6    O     O_R   0.929840 0.413290 0.956230 -0.503644
O7    O     O_R   0.586710 0.929840 0.543770 -0.503644
O8    O     O_R   0.413290 0.070160 0.456230 -0.503644
O9    O     O_R   0.070160 0.413290 0.043770 -0.503642
O10   O     O_R   0.413290 0.929840 0.456230 -0.503642
O11   O     O_R   0.586710 0.070160 0.543770 -0.503641
O12   O     O_R   0.070160 0.413290 0.956230 -0.503642
O13   O     O_R   0.929840 0.586710 0.043770 -0.503642
O14   O     O_R   0.586710 0.070160 0.456230 -0.503642
O15   O     O_R   0.413290 0.929840 0.543770 -0.503642
O16   O     O_R   0.929840 0.413290 0.043770 -0.503644

loop_
_geom_bond_atom_site_label_1
_geom_bond_atom_site_label_2
_ccdc_geom_bond_type
C78   C87   T    
C27   H27   S    
C39   H74   S    
C120  H95   S    
C5    H114  S    
C33   O3    A    
C17   H5    S    
C29   O11   A    
C121  H92   S    
C6    C7    S    
C108  H61   S    
C26   H30   S    
C19   C20   S    
C103  H59   S    
C64   C76   A    
C49   C90   A    
C116  H90   S    
C16   H8    S    
C50   C79   A    
C3    H103  S    
C15   C65   S    
C97   C98   S    
C32   O14   A    
Cu1   Cu2   S    
C106  H68   S    
C14   H123  S    
C53   C99   S    
C102  H47   S    
C122  H105  S    
C48   H34   S    
C40   H85   S    
Cu4   O8    S    
C26   C27   S    
C1    C90   S    
C60   C119  S    
C28   C95   S    
C30   O6    A    
C77   C82   S    
C109  H76   S    
C99   H51   S    
C29   C94   S    
C42   H107  S    
C28   O8    A    
C1    C46   S    
C21   H26   S    
C32   C91   S    
C50   H36   S    
C38   C79   A    
C15   C16   S    
C66   C74   A    
C37   C68   A    
C11   H3    S    
C45   H13   S    
C11   H128  S    
C97   H43   S    
C114  H81   S    
C62   C70   A    
C26   H31   S    
C118  H86   S    
C1    C2    S    
C4    H101  S    
C20   H12   S    
C117  H89   S    
Cu3   O15   S    
C110  C111  S    
C21   C67   S    
C36   C53   A    
C40   C101  A    
C44   H2    S    
C38   C55   A    
C39   C56   A    
C8    H121  S    
C16   C17   S    
C41   C112  A    
C115  H77   S    
C107  H66   S    
C25   H33   S    
C58   C113  S    
C29   O7    A    
C107  C108  S    
Cu4   O11   S    
C51   H37   S    
C34   C46   A    
C4    H100  S    
C105  H56   S    
C9    H119  S    
C9    C10   S    
C39   C90   A    
Cu1   O1    S    
C41   H96   S    
C3    C122  S    
Cu2   O2    S    
C111  H70   S    
C51   C68   A    
C81   C89   T    
C61   C71   A    
C27   H28   S    
C21   H25   S    
C17   H4    S    
C22   H23   S    
C19   H15   S    
C96   H44   S    
C21   C22   S    
C115  H78   S    
C17   H6    S    
C102  H46   S    
C110  H72   S    
C121  H93   S    
C108  H64   S    
C10   H115  S    
C16   H7    S    
C24   C92   S    
C3    H104  S    
C104  C105  S    
C6    H111  S    
C44   C46   A    
C58   C75   A    
C72   C85   S    
C106  H67   S    
C6    H112  S    
C2    C45   A    
C27   H29   S    
C23   H20   S    
C7    H109  S    
C60   C77   A    
C56   C74   A    
C49   C66   A    
C55   C106  S    
C31   O13   A    
C113  H82   S    
C54   C103  S    
C40   C58   A    
Cu2   O5    S    
C36   C57   A    
C42   C60   A    
C47   C64   A    
C34   H1    S    
C15   H10   S    
Cu2   O9    S    
C44   C62   A    
C25   C26   S    
C59   C116  S    
C13   O2    A    
C23   H21   S    
Cu3   O4    S    
C45   C63   A    
C36   H41   S    
C82   C91   T    
C114  H80   S    
C50   C67   A    
C13   C93   S    
C61   C122  S    
C20   H11   S    
C71   C84   S    
C69   C72   A    
C99   H53   S    
C37   H52   S    
C75   C80   S    
C33   C89   S    
C23   H19   S    
C85   C94   T    
C118  H84   S    
C99   C100  S    
C47   H24   S    
C30   O12   A    
C119  C120  S    
C38   H63   S    
C96   C97   S    
Cu4   O14   S    
C100  H49   S    
C100  C102  S    
C8    C9    S    
C54   C72   A    
C106  C107  S    
C70   C83   S    
C96   H45   S    
C41   C59   A    
C12   H127  S    
C98   H40   S    
C14   H125  S    
C67   C73   A    
C37   C54   A    
Cu1   O16   S    
C104  H58   S    
C22   H22   S    
C11   C64   S    
C120  H97   S    
C115  H79   S    
Cu3   Cu4   S    
C48   C65   A    
C121  H94   S    
C31   C87   S    
C25   C69   S    
C105  H54   S    
C30   C88   S    
C3    C4    S    
C53   C71   A    
C56   C109  S    
C25   H32   S    
C120  C121  S    
C119  H99   S    
C1    C79   S    
C113  C114  S    
C63   C77   A    
C43   H118  S    
C7    H110  S    
C18   H17   S    
C10   H116  S    
C5    H113  S    
Cu4   O3    S    
C33   O15   A    
C110  H73   S    
C18   H18   S    
C49   H35   S    
C5    C62   S    
C108  H62   S    
C10   H117  S    
C12   C14   S    
C35   C101  S    
C12   H126  S    
C76   C81   S    
C98   H38   S    
C11   C12   S    
C114  C115  S    
C100  H50   S    
C14   H124  S    
Cu1   O6    S    
C102  H48   S    
C97   H42   S    
C122  H106  S    
C34   C52   A    
C65   C75   A    
C103  H60   S    
C35   C57   S    
C20   H14   S    
C109  H75   S    
C113  H83   S    
C80   C88   T    
C28   O10   A    
C117  C118  S    
C111  H71   S    
Cu2   O12   S    
C43   C61   A    
C5    C6    S    
C35   C68   S    
C2    C42   A    
C24   O16   A    
C48   C101  A    
Cu3   O10   S    
C24   O9    A    
C32   O4    A    
C119  H98   S    
C107  H65   S    
C116  C117  S    
C52   C96   S    
C118  H87   S    
C84   C93   T    
C4    H102  S    
C117  H88   S    
C18   C66   S    
C73   C86   S    
C7    H108  S    
C98   H39   S    
C52   C70   A    
C86   C95   T    
C43   C57   A    
C8    C63   S    
C55   C73   A    
Cu1   O13   S    
C104  H57   S    
C15   H9    S    
C8    H122  S    
C83   C92   T    
C19   H16   S    
C74   C78   S    
Cu3   O7    S    
C103  C104  S    
C18   C19   S    
C22   C23   S    
C31   O5    A    
C51   C69   A    
C105  H55   S    
C116  H91   S    
C109  C110  S    
C59   C76   A    
C9    H120  S    
C35   C112  S    
C47   C112  A    
C111  H69   S    
C13   O1    A    
