data_mof_unit_14826.cif
_audit_creation_date              2013-03-05T15:55:01-0500
_audit_creation_method            fapswitch 2.2
_symmetry_space_group_name_H-M    P1
_symmetry_Int_Tables_number       1
_space_group_crystal_system       triclinic
_cell_length_a                    23.269643
_cell_length_b                    10.697033
_cell_length_c                    9.954588
_cell_angle_alpha                 92.196589
_cell_angle_beta                  89.981634
_cell_angle_gamma                 92.787959
_cell_volume                      2473.10323947

loop_
_atom_site_label
_atom_site_type_symbol
_atom_site_description
_atom_site_fract_x
_atom_site_fract_y
_atom_site_fract_z
_atom_type_partial_charge
O1    O     O_R   0.500000 0.316780 0.614690 -0.633318
O2    O     O_R   0.500000 0.316750 0.385360 -0.641706
C1    C     C_R   0.501999 0.261178 0.497265 0.863764
O3    O     O_R   0.416160 0.499970 0.614690 -0.640158
O4    O     O_R   0.416150 0.499950 0.385360 -0.602003
C2    C     C_R   0.389355 0.496805 0.499798 0.930608
Zn1   Zn    Zn3+2 0.500000 0.500020 0.653130 0.937771
Zn2   Zn    Zn3+2 0.500000 0.499980 0.346870 0.962187
O5    O     O_R   0.500000 0.683250 0.614640 -0.617078
O6    O     O_R   0.500000 0.683220 0.385310 -0.603549
O7    O     O_R   0.583850 0.500050 0.614640 -0.635383
O8    O     O_R   0.583840 0.500030 0.385310 -0.623166
C3    C     C_R   0.502193 0.740286 0.503170 0.931159
C4    C     C_R   0.610338 0.499877 0.499478 0.843076
C5    C     C_R   0.880278 0.503936 0.375308 0.525272
N1    N     N_R   0.848739 0.427486 0.456977 -0.356675
C6    C     C_R   0.873739 0.341763 0.533860 0.572319
C7    C     C_R   0.933992 0.331609 0.532523 -0.179800
C8    C     C_R   0.967270 0.418464 0.458055 -0.046845
C9    C     C_R   0.940089 0.503668 0.376921 0.016318
C10   C     C_R   0.962015 0.242786 0.608132 0.237670
C11   C     C_R   0.022438 0.247123 0.616719 0.233949
C12   C     C_R   0.055794 0.337901 0.546629 -0.182702
C13   C     C_R   0.027767 0.422556 0.466200 -0.043930
C14   C     C_R   0.060144 0.513324 0.394803 0.014567
C15   C     C_R   0.032486 0.595285 0.312552 -0.125059
C16   C     C_R   0.973020 0.589805 0.302820 -0.125695
C17   C     C_R   0.116513 0.346316 0.551257 0.561928
N2    N     N_R   0.146383 0.437075 0.483537 -0.365719
C18   C     C_R   0.119771 0.520366 0.407425 0.505668
O9    O     O_2   0.853580 0.582064 0.295071 -0.548033
O10   O     O_2   0.840367 0.271197 0.615265 -0.495020
O11   O     O_2   0.145933 0.264783 0.621131 -0.491317
O12   O     O_2   0.151314 0.609067 0.343346 -0.528448
H1    H     H_    0.056664 0.664519 0.255964 0.203291
H2    H     H_    0.952935 0.655486 0.239643 0.203558
C19   C     C_R   0.240503 0.397479 0.382094 0.211700
C20   C     C_R   0.300077 0.417811 0.386426 -0.216274
H3    H     H_    0.325491 0.382864 0.303397 0.150492
C21   C     C_R   0.326915 0.480369 0.497525 -0.058218
C22   C     C_R   0.294056 0.521882 0.606578 -0.187617
H4    H     H_    0.314309 0.569284 0.693631 0.178126
C23   C     C_R   0.234489 0.505100 0.601988 -0.113282
H5    H     H_    0.208943 0.540599 0.684675 0.163865
C24   C     C_R   0.207626 0.444536 0.489916 0.272380
C25   C     C_R   0.748499 0.349454 0.432296 -0.078102
H6    H     H_    0.762572 0.260542 0.392145 0.165193
C26   C     C_R   0.690199 0.368671 0.444636 -0.281836
H7    H     H_    0.659361 0.293937 0.413564 0.150205
C27   C     C_R   0.671653 0.483863 0.495322 -0.037465
C28   C     C_R   0.711712 0.582175 0.532022 0.117509
C29   C     C_R   0.770259 0.560991 0.520882 -0.117464
H8    H     H_    0.801959 0.634937 0.549039 0.163206
C30   C     C_R   0.788591 0.445531 0.470551 0.253282
H9    H     H_    0.439223 0.104044 0.348010 0.177475
C31   C     C_R   0.590604 0.150514 0.645324 -0.195208
H10   H     H_    0.599371 0.247866 0.624067 0.163086
C32   C     C_R   0.621359 0.102328 0.748536 -0.158297
H11   H     H_    0.651074 0.164131 0.806432 0.155307
C33   C     C_R   0.610833 0.978481 0.783004 0.231582
C34   C     C_R   0.574202 0.898915 0.701251 -0.194427
H12   H     H_    0.569278 0.802810 0.728458 0.163633
C35   C     C_R   0.541828 0.947310 0.595203 0.016904
C36   C     C_R   0.547352 0.076499 0.576229 0.096560
C37   C     C_R   0.508392 0.130157 0.490830 -0.142346
C38   C     C_R   0.469433 0.059056 0.411212 -0.285882
C39   C     C_R   0.465777 0.931177 0.419869 0.308680
C40   C     C_R   0.502519 0.874393 0.509973 -0.233339
C41   C     C_R   0.423391 0.336779 0.133949 -0.154385
H13   H     H_    0.423063 0.328544 0.240284 0.187454
C42   C     C_R   0.384881 0.256928 0.061292 -0.174252
H14   H     H_    0.356065 0.192690 0.113241 0.165821
C43   C     C_R   0.383855 0.258382 0.922227 -0.156901
H15   H     H_    0.354056 0.195557 0.865946 0.171342
C44   C     C_R   0.421701 0.338849 0.854821 -0.136071
H16   H     H_    0.419349 0.332190 0.747928 0.199822
C45   C     C_R   0.461186 0.421463 0.925049 0.158550
C46   C     C_R   0.461457 0.421172 0.069366 0.142151
N3    N     N_R   0.499460 0.498800 0.142780 -0.135536
C47   C     C_R   0.539439 0.570631 0.072346 0.220644
H17   H     H_    0.569696 0.628566 0.876647 0.136863
C48   C     C_R   0.538316 0.571396 0.929809 -0.124389
N4    N     N_R   0.499440 0.498720 0.857170 -0.135384
N5    N     N_R   0.929857 0.145622 0.674871 0.270433
O13   O     O_R   0.902215 0.057081 0.604385 -0.319508
O14   O     O_R   0.933371 0.137689 0.804673 -0.302562
C49   C     C_3   0.693639 0.710591 0.577388 -0.438780
C50   C     C_3   0.685015 0.793213 0.458385 -0.817395
H18   H     H_    0.724558 0.799244 0.395948 0.281348
H19   H     H_    0.648424 0.754963 0.395948 0.239292
H20   H     H_    0.675171 0.888994 0.495634 0.261903
H21   H     H_    0.653211 0.703112 0.635631 0.204018
H22   H     H_    0.727153 0.756684 0.644228 0.228984
C51   C     C_3   0.632472 0.938295 0.916514 -0.430429
C52   C     C_3   0.678740 0.842977 0.902936 -0.854585
H23   H     H_    0.660533 0.753207 0.858678 0.238508
H24   H     H_    0.714746 0.880127 0.840572 0.282041
H25   H     H_    0.695900 0.824893 0.004051 0.269795
H26   H     H_    0.650685 0.020282 0.977237 0.216218
H27   H     H_    0.595188 0.900341 0.973538 0.201725
N6    N     N_R   0.421633 0.861048 0.343872 0.223407
O15   O     O_R   0.387927 0.779284 0.402516 -0.380089
O16   O     O_R   0.409100 0.892813 0.222814 -0.388719
C53   C     C_3   0.588042 0.645633 0.141000 -0.394907
C54   C     C_3   0.644646 0.579577 0.125769 -0.819455
H28   H     H_    0.640337 0.483515 0.164181 0.281573
H29   H     H_    0.657573 0.572919 0.018462 0.247695
H30   H     H_    0.679157 0.633370 0.183140 0.262644
H31   H     H_    0.593002 0.738334 0.096822 0.182797
H32   H     H_    0.579236 0.666479 0.246896 0.254298
N7    N     N_R   0.049111 0.157835 0.697043 0.273899
O17   O     O_R   0.067281 0.190887 0.817411 -0.304534
O18   O     O_R   0.047339 0.040165 0.658358 -0.308652
C55   C     C_3   0.213596 0.324948 0.262617 -0.417703
C56   C     C_3   0.223838 0.185529 0.269785 -0.770639
H33   H     H_    0.270611 0.169372 0.270304 0.245353
H34   H     H_    0.203951 0.147798 0.362261 0.290215
H35   H     H_    0.204034 0.134324 0.180956 0.274317
H36   H     H_    0.166545 0.335884 0.256717 0.226130
H37   H     H_    0.232427 0.361067 0.168187 0.228702

loop_
_geom_bond_atom_site_label_1
_geom_bond_atom_site_label_2
_geom_bond_distance
_ccdc_geom_bond_type
Zn1   N4    2.031748 S    
C49   C50   1.523935 S    
N6    O15   1.301174 A    
C7    C10   1.417708 A    
C43   C44   1.391725 A    
C43   H15   1.082771 S    
C8    C9    1.412757 A    
C23   H5    1.082946 S    
C55   C56   1.526041 S    
C52   H25   1.110282 S    
C1    C37   1.415598 S    
C45   C46   1.436758 A    
Zn1   O7    1.988291 S    
C54   H29   1.110252 S    
C15   C16   1.385400 A    
C19   C20   1.393168 A    
C47   C53   1.503340 S    
C17   N2    1.365413 A    
C20   C21   1.401420 A    
N5    O14   1.301016 A    
C41   H13   1.065530 S    
O4    C2    1.299251 A    
O7    C4    1.301384 A    
C45   N4    1.379419 A    
C32   C33   1.391410 A    
C56   H33   1.110346 S    
C31   H10   1.080304 S    
C34   C35   1.424881 A    
C7    C8    1.412370 A    
C22   H4    1.083281 S    
C41   C42   1.390802 A    
O5    C3    1.286462 A    
C35   C40   1.430124 A    
C52   H23   1.106273 S    
N1    C6    1.367854 A    
C56   H34   1.111089 S    
Zn2   N3    2.031226 S    
C12   C13   1.414129 A    
C31   C36   1.412132 A    
C55   H36   1.108555 S    
C26   C27   1.401109 A    
C38   C39   1.372435 A    
N6    O16   1.301529 A    
C10   C11   1.407043 A    
C22   C23   1.389519 A    
C41   C46   1.406863 A    
C51   C52   1.520926 S    
O3    Zn1   1.988191 S    
C53   C54   1.529493 S    
C29   C30   1.400752 A    
C27   C28   1.408459 A    
C11   C12   1.417920 A    
C5    C9    1.392034 A    
C54   H30   1.110112 S    
C25   C26   1.386665 A    
C18   O12   1.350659 S    
C39   C40   1.413236 A    
C20   H3    1.081713 S    
N5    O13   1.301225 A    
C47   C48   1.419492 A    
C28   C49   1.508739 S    
C42   C43   1.385234 A    
C46   N3    1.374073 A    
C19   C55   1.513613 S    
C14   C15   1.401267 A    
C48   N4    1.354444 A    
H17   C48   1.080895 S    
C28   C29   1.395605 A    
N2    C24   1.424752 S    
C33   C34   1.410695 A    
O1    C1    1.292921 A    
C44   H16   1.064973 S    
N2    C18   1.362743 A    
C44   C45   1.409943 A    
C10   N5    1.434772 S    
C51   H27   1.105829 S    
Zn2   O8    1.988188 S    
C56   H35   1.110352 S    
C25   C30   1.395919 A    
C6    C7    1.411557 A    
N7    O18   1.300836 A    
C12   C17   1.412045 A    
C13   C14   1.413118 A    
C23   C24   1.400267 A    
O3    C2    1.301417 A    
C26   H7    1.084001 S    
C50   H19   1.107082 S    
C17   O11   1.348331 S    
C37   C38   1.384071 A    
C2    C21   1.455130 S    
N3    C47   1.385217 A    
C19   C24   1.409318 A    
H9    C38   1.085355 S    
C29   H8    1.083871 S    
C39   N6    1.439547 S    
C14   C18   1.391335 A    
Zn1   O5    2.011479 S    
C25   H6    1.082896 S    
C21   C22   1.398521 A    
N7    O17   1.301070 A    
O1    Zn1   1.982678 S    
O2    Zn2   2.011477 S    
O8    C4    1.293255 A    
O6    C3    1.301479 A    
O4    Zn2   1.988293 S    
C52   H24   1.109728 S    
C5    O9    1.350690 S    
C9    C16   1.401215 A    
C16   H2    1.083314 S    
C54   H28   1.110067 S    
C36   C37   1.400909 A    
C8    C13   1.408557 A    
C32   H11   1.083465 S    
C42   H14   1.082319 S    
C53   H32   1.090525 S    
C4    C27   1.445666 S    
C50   H20   1.110568 S    
C51   H26   1.112447 S    
C49   H22   1.109845 S    
C31   C32   1.382186 A    
O2    C1    1.284510 A    
C34   H12   1.073872 S    
N1    C30   1.427785 S    
C35   C36   1.401668 A    
C15   H1    1.083316 S    
C50   H18   1.110910 S    
Zn2   O6    1.982680 S    
C11   N7    1.432955 S    
C6    O10   1.348682 S    
C53   H31   1.101051 S    
C49   H21   1.106100 S    
C55   H37   1.111766 S    
C5    N1    1.364008 A    
C3    C40   1.433197 S    
C33   C51   1.506626 S    
