data_mof_unit_49529.cif
_audit_creation_date              2013-03-05T16:07:15-0500
_audit_creation_method            fapswitch 2.2
_symmetry_space_group_name_H-M    P1
_symmetry_Int_Tables_number       1
_space_group_crystal_system       triclinic
_cell_length_a                    10.844388
_cell_length_b                    9.690829
_cell_length_c                    17.814743
_cell_angle_alpha                 89.993594
_cell_angle_beta                  101.733756
_cell_angle_gamma                 89.998894
_cell_volume                      1833.04865263

loop_
_atom_site_label
_atom_site_type_symbol
_atom_site_description
_atom_site_fract_x
_atom_site_fract_y
_atom_site_fract_z
_atom_type_partial_charge
O1    O     O_R   0.319640 0.618740 0.499990 -0.529421
O2    O     O_R   0.680360 0.381260 0.500010 -0.533596
O3    O     O_R   0.680360 0.618740 0.500010 -0.529429
O4    O     O_R   0.319640 0.381260 0.499990 -0.533633
C1    C     C_R   0.262864 0.500300 0.501481 0.858044
C2    C     C_R   0.737136 0.500299 0.498518 0.858016
O5    O     O_R   0.500000 0.618830 0.391250 -0.496369
O6    O     O_R   0.500000 0.381170 0.608750 -0.501289
O7    O     O_R   0.500000 0.618830 0.608750 -0.496375
O8    O     O_R   0.500000 0.381170 0.391250 -0.501258
C3    C     C_R   0.064470 0.377106 0.502949 -0.092257
C4    C     C_R   0.935856 0.627208 0.499430 -0.081331
C5    C     C_R   0.935527 0.377107 0.497026 -0.092149
C6    C     C_R   0.064144 0.627209 0.500584 -0.081256
C7    C     C_R   0.510261 0.499736 0.356992 0.925472
C8    C     C_R   0.489745 0.499722 0.643010 0.925467
Cu1   Cu    Cu3+1 0.500000 0.640660 0.500000 1.158984
Cu2   Cu    Cu3+1 0.500000 0.359340 0.500000 1.162275
C9    C     C_R   0.870938 0.501661 0.497752 -0.082195
C10   C     C_R   0.129061 0.501662 0.502244 -0.082169
N1    N     N_R   0.500000 0.852070 0.500000 -0.308981
N2    N     N_R   0.500000 0.147930 0.500000 -0.308382
C11   C     C_R   0.504131 0.615895 0.846920 0.224521
C12   C     C_R   0.554212 0.371557 0.160772 0.289031
C13   C     C_R   0.495749 0.615887 0.153057 0.224717
C14   C     C_R   0.445899 0.371499 0.839262 0.288923
C15   C     C_R   0.472691 0.622589 0.765830 0.206130
C16   C     C_R   0.551591 0.372816 0.239654 0.220693
C17   C     C_R   0.527220 0.622623 0.234143 0.206193
C18   C     C_R   0.448528 0.372756 0.760382 0.220582
C19   C     C_R   0.470244 0.498139 0.723937 -0.365072
C20   C     C_R   0.529773 0.498180 0.276068 -0.365113
C21   C     C_R   0.410511 0.075208 0.447020 0.346361
C22   C     C_R   0.588532 0.924166 0.553314 0.330878
C23   C     C_R   0.589491 0.075181 0.552979 0.346393
C24   C     C_R   0.411470 0.924192 0.446684 0.330798
C25   C     C_R   0.484029 0.490711 0.883423 -0.231037
C26   C     C_R   0.515960 0.490725 0.116582 -0.231090
C27   C     C_1   0.495485 0.487079 0.965686 0.269306
C28   C     C_1   0.504493 0.487083 0.034319 0.269350
H1    H     H_    0.113206 0.279593 0.508131 0.229953
H2    H     H_    0.887811 0.725194 0.499456 0.210464
H3    H     H_    0.886789 0.279600 0.491826 0.229992
H4    H     H_    0.112190 0.725195 0.500574 0.210458
S1    S     S_3+6 0.572414 0.760420 0.902119 0.143615
O9    O     O_2   0.468388 0.850401 0.918497 -0.115154
O10   O     O_2   0.654329 0.715757 0.976640 -0.268689
O11   O     O_3   0.662266 0.853182 0.854372 -0.372455
H5    H     H_    0.735138 0.792853 0.851986 0.361715
S2    S     S_3+6 0.602028 0.219925 0.117551 0.146520
O12   O     O_2   0.486341 0.137003 0.085487 -0.121642
O13   O     O_2   0.668056 0.257380 0.053925 -0.254551
O14   O     O_3   0.701112 0.123507 0.181580 -0.412952
H6    H     H_    0.721534 0.042912 0.152116 0.412226
S3    S     S_3+6 0.427268 0.760320 0.097831 0.143419
O15   O     O_2   0.531164 0.850408 0.081372 -0.115364
O16   O     O_2   0.345325 0.715546 0.023349 -0.268764
O17   O     O_3   0.337408 0.853003 0.145603 -0.372601
H7    H     H_    0.264457 0.792715 0.147897 0.361729
S4    S     S_3+6 0.398201 0.219824 0.882520 0.146556
O18   O     O_2   0.513940 0.137003 0.914635 -0.121104
O19   O     O_2   0.332105 0.257254 0.946118 -0.255123
O20   O     O_3   0.299235 0.123286 0.818509 -0.412710
H8    H     H_    0.277689 0.043500 0.848196 0.411945
N3    N     N_R   0.415576 0.745284 0.727141 0.186070
O21   O     O_R   0.321914 0.731933 0.668923 -0.343110
O22   O     O_R   0.433422 0.866290 0.758740 -0.171103
N4    N     N_R   0.579040 0.248613 0.283460 0.191891
O23   O     O_R   0.504901 0.142478 0.268419 -0.190329
O24   O     O_R   0.681724 0.239045 0.335732 -0.315843
N5    N     N_R   0.584267 0.745370 0.272788 0.186132
O25   O     O_R   0.677896 0.732103 0.331034 -0.343007
O26   O     O_R   0.566444 0.866324 0.241108 -0.171718
N6    N     N_R   0.421192 0.248524 0.716606 0.191965
O27   O     O_R   0.495390 0.142440 0.731703 -0.190007
O28   O     O_R   0.318509 0.238848 0.664343 -0.315763
S5    S     S_3+6 0.281298 0.163710 0.381083 0.130504
O29   O     O_2   0.264890 0.106196 0.301607 -0.139820
O30   O     O_2   0.163685 0.134221 0.410417 -0.282614
O31   O     O_3   0.279607 0.333865 0.364829 -0.519528
H9    H     H_    0.193923 0.354734 0.335300 0.361469
S6    S     S_3+6 0.699014 0.834269 0.629867 0.112031
O32   O     O_2   0.829700 0.889468 0.635241 -0.210110
O33   O     O_2   0.655544 0.867089 0.702407 -0.200638
O34   O     O_3   0.722297 0.663453 0.633853 -0.532461
H10   H     H_    0.775743 0.645270 0.684995 0.354828
S7    S     S_3+6 0.718720 0.163650 0.618903 0.130479
O35   O     O_2   0.735188 0.106087 0.698378 -0.139858
O36   O     O_2   0.836311 0.134195 0.589541 -0.282678
O37   O     O_3   0.720386 0.333793 0.635169 -0.519504
H11   H     H_    0.806082 0.354662 0.664677 0.361434
S8    S     S_3+6 0.300998 0.834331 0.370126 0.112112
O38   O     O_2   0.170310 0.889536 0.364738 -0.210063
O39   O     O_2   0.344481 0.867172 0.297589 -0.200359
O40   O     O_3   0.277713 0.663518 0.366146 -0.532435
H12   H     H_    0.224307 0.645347 0.314991 0.354821

loop_
_geom_bond_atom_site_label_1
_geom_bond_atom_site_label_2
_geom_bond_distance
_ccdc_geom_bond_type
S7    O35   1.498206 D    
C11   S1    1.783557 S    
O2    Cu2   1.967363 S    
O40   H12   0.991110 S    
S3    O15   1.500640 D    
O3    C2    1.305315 A    
C7    C20   1.499126 S    
N1    C24   1.393296 A    
S5    O29   1.498207 D    
C8    C19   1.499146 S    
N2    C23   1.398885 A    
N6    O28   1.301523 A    
S4    O20   1.682245 S    
O1    C1    1.305324 A    
C16   N4    1.432360 S    
O7    C8    1.320844 A    
C2    C9    1.453899 S    
C17   C20   1.415744 A    
O8    C7    1.316254 A    
O34   H10   0.991077 S    
C18   C19   1.419643 A    
C18   N6    1.432355 S    
S5    O31   1.673600 S    
C21   C24   1.463522 A    
S4    O19   1.503110 D    
C22   C23   1.463517 A    
S1    O10   1.503029 D    
C4    H2    1.083142 S    
C23   S7    1.846379 S    
N4    O23   1.299440 A    
N3    O22   1.298189 A    
C12   C26   1.411532 A    
C3    H1    1.077472 S    
C11   C15   1.416664 A    
C12   C16   1.411357 A    
O4    Cu2   1.967355 S    
C24   S8    1.841046 S    
O5    C7    1.320837 A    
O6    C8    1.316255 A    
C13   C17   1.416654 A    
O2    C2    1.310431 A    
S2    O12   1.501541 D    
S5    O30   1.500856 D    
C12   S2    1.784268 S    
C1    C10   1.453899 S    
C3    C10   1.396912 A    
S2    O14   1.682238 S    
N6    O27   1.299437 A    
C5    C9    1.396907 A    
C15   C19   1.415747 A    
C6    C10   1.402930 A    
C16   C20   1.419630 A    
C27   C28   1.206601 T    
N5    O26   1.298180 A    
O31   H9    0.991060 S    
N1    C22   1.393286 A    
O5    Cu1   1.948893 S    
O17   H7    0.990969 S    
C11   C25   1.414079 A    
S8    O40   1.673799 S    
Cu1   N1    2.048738 S    
S4    O18   1.501535 D    
C15   N3    1.448654 S    
C13   C26   1.414058 A    
S2    O13   1.503088 D    
S8    O39   1.497079 D    
Cu1   Cu2   2.726224 S    
O7    Cu1   1.948846 S    
O11   H5    0.990831 S    
C4    C6    1.387173 A    
C14   C18   1.411364 A    
S6    O33   1.497081 D    
S3    O16   1.503036 D    
S3    O17   1.678704 S    
C5    H3    1.077473 S    
C6    H4    1.083142 S    
S1    O11   1.678696 S    
N2    C21   1.398881 A    
Cu2   N2    2.048739 S    
C13   S3    1.783532 S    
O4    C1    1.310422 A    
C14   C25   1.411539 A    
O14   H6    0.990932 S    
S6    O34   1.673805 S    
O1    Cu1   1.967363 S    
S7    O36   1.500856 D    
N5    O25   1.302157 A    
C25   C27   1.445779 S    
C26   C28   1.445775 S    
C3    C5    1.380719 A    
C21   S5    1.846382 S    
O37   H11   0.991059 S    
O8    Cu2   1.948846 S    
C4    C9    1.402936 A    
S8    O38   1.499539 D    
O3    Cu1   1.967355 S    
N3    O21   1.302162 A    
O6    Cu2   1.948893 S    
O20   H8    0.991110 S    
S1    O9    1.500663 D    
N4    O24   1.301520 A    
S6    O32   1.499547 D    
S7    O37   1.673594 S    
C22   S6    1.841034 S    
C14   S4    1.784319 S    
C17   N5    1.448661 S    
