data_mof_unit_21538.cif
_audit_creation_date              2012-12-11T14:07:40-0500
_audit_creation_method            fapswitch 2.2
_symmetry_space_group_name_H-M    P1
_symmetry_Int_Tables_number       1
_space_group_crystal_system       triclinic
_cell_length_a                    19.871815
_cell_length_b                    17.018761
_cell_length_c                    15.605085
_cell_angle_alpha                 89.998731
_cell_angle_beta                  52.94844
_cell_angle_gamma                 90.00061
_cell_volume                      4211.97176487

loop_
_atom_site_label
_atom_site_type_symbol
_atom_type_description
_atom_site_fract_x
_atom_site_fract_y
_atom_site_fract_z
_atom_type_partial_charge
C1    C     C_R   0.359180 0.190253 0.015247 -0.127548
C2    C     C_R   0.648937 0.815567 0.074906 -0.075436
C3    C     C_R   0.816276 0.152291 0.633964 -0.219297
C4    C     C_R   0.292183 0.275002 0.615794 0.132930
C5    C     C_R   0.299164 0.206330 0.660585 0.045438
C6    C     C_R   0.333693 0.209613 0.716326 -0.157843
C7    C     C_R   0.358668 0.281377 0.732189 -0.125214
C8    C     C_R   0.349159 0.350289 0.692155 -0.097802
C9    C     C_R   0.316759 0.347228 0.633814 -0.219353
C10   C     C_R   0.343248 0.723444 0.639359 0.208641
C11   C     C_R   0.338877 0.802177 0.670364 0.066983
C12   C     C_R   0.359091 0.821695 0.739244 -0.157818
C13   C     C_R   0.148934 0.684433 0.074913 -0.075471
C14   C     C_R   0.380520 0.763030 0.781498 -0.085490
C15   C     C_R   0.379115 0.684456 0.757843 -0.087240
C16   C     C_R   0.360992 0.664654 0.687020 -0.216441
C17   C     C_R   0.912775 0.873620 0.280409 0.191095
C18   C     C_R   0.975817 0.897026 0.290745 -0.137819
C19   C     C_R   0.048958 0.935165 0.206894 -0.142435
C20   C     C_R   0.061074 0.950771 0.110922 -0.064140
C21   C     C_R   0.998658 0.930727 0.100040 0.029370
C22   C     C_R   0.923829 0.895630 0.185338 -0.195372
C23   C     C_R   0.771889 0.175248 0.312772 0.161362
C24   C     C_R   0.151257 0.317610 0.070398 -0.065486
C25   C     C_R   0.853993 0.153852 0.275828 -0.159686
C26   C     C_R   0.904965 0.107477 0.184224 -0.045406
C27   C     C_R   0.873679 0.078021 0.131275 -0.068496
C28   C     C_R   0.790497 0.092559 0.171988 -0.149470
C29   C     C_R   0.739729 0.140513 0.262167 -0.220963
C30   C     C_R   0.272073 0.324728 0.312595 0.161734
C31   C     C_R   0.354062 0.346295 0.275938 -0.159567
C32   C     C_R   0.405214 0.392430 0.184110 -0.045104
C33   C     C_R   0.374211 0.421496 0.130646 -0.068009
C34   C     C_R   0.291105 0.406845 0.171093 -0.150220
C35   C     C_R   0.691688 0.861501 0.676481 -0.207990
C36   C     C_R   0.240152 0.359154 0.261533 -0.221210
C37   C     C_R   0.412778 0.626374 0.280412 0.191010
C38   C     C_R   0.475834 0.602986 0.290726 -0.137802
C39   C     C_R   0.548968 0.564855 0.206871 -0.142484
C40   C     C_R   0.561068 0.549244 0.110914 -0.064223
C41   C     C_R   0.498638 0.569266 0.100052 0.029439
C42   C     C_R   0.423816 0.604352 0.185357 -0.195355
C43   C     C_R   0.620549 0.181681 0.692340 -0.189080
C44   C     C_R   0.120799 0.318392 0.692223 -0.188991
C45   C     C_R   0.191705 0.638480 0.676498 -0.207977
C46   C     C_3   0.180716 0.138739 0.507195 -0.604468
C47   C     C_3   0.259057 0.797844 0.468875 -0.575933
C48   C     C_3   0.759051 0.702140 0.468876 -0.575927
C49   C     C_R   0.339657 0.825525 0.051092 -0.099373
C50   C     C_3   0.680691 0.361329 0.507200 -0.604482
C51   C     C_3   0.133808 0.183924 0.614669 0.728135
C52   C     C_3   0.206641 0.755744 0.576138 0.688296
C53   C     C_3   0.706631 0.744239 0.576132 0.688296
C54   C     C_3   0.633771 0.316190 0.614723 0.728367
C55   C     C_3   0.309843 0.210339 0.456254 -0.466883
C56   C     C_3   0.389769 0.756912 0.448972 -0.481651
C57   C     C_3   0.889760 0.743090 0.448965 -0.481626
C58   C     C_3   0.809711 0.289638 0.456431 -0.467209
C59   C     C_3   0.833274 0.826660 0.367239 -0.108597
C60   C     C_R   0.839659 0.674475 0.051086 -0.099366
C61   C     C_3   0.716295 0.236322 0.401837 -0.107047
C62   C     C_3   0.216404 0.263753 0.401786 -0.107055
C63   C     C_3   0.333283 0.673329 0.367248 -0.108586
C64   C     C_3   0.256212 0.188987 0.416820 0.254931
C65   C     C_3   0.347262 0.758928 0.391815 0.251322
C66   C     C_3   0.847251 0.741063 0.391813 0.251288
C67   C     C_3   0.756167 0.311032 0.416879 0.254995
C68   C     C_3   0.752622 0.819527 0.572813 0.186600
C69   C     C_3   0.668034 0.230000 0.594447 0.173701
C70   C     C_3   0.168226 0.270052 0.594362 0.173773
C71   C     C_R   0.859107 0.309783 0.015362 -0.127232
C72   C     C_3   0.252634 0.680460 0.572825 0.186611
C73   C     C_3   0.839983 0.799541 0.547543 -0.106183
C74   C     C_3   0.764686 0.226299 0.542606 -0.111997
C75   C     C_3   0.264870 0.273605 0.542548 -0.112382
C76   C     C_3   0.339993 0.700458 0.547553 -0.106152
C77   C     C_R   0.398551 0.800344 0.205961 -0.122613
C78   C     C_R   0.349042 0.169248 0.217700 -0.109456
C79   C     C_R   0.849060 0.330721 0.217731 -0.109744
C80   C     C_R   0.898543 0.699653 0.205961 -0.122622
C81   C     C_3   0.774444 0.871108 0.474774 -0.607657
C82   C     C_R   0.634111 0.895001 0.103522 -0.259407
C83   C     C_3   0.658582 0.194075 0.509868 -0.615559
C84   C     C_3   0.158857 0.306082 0.509756 -0.615462
C85   C     C_3   0.274459 0.628877 0.474786 -0.607706
C86   C     C_2   0.190181 0.740931 0.099656 -0.173089
C87   C     C_2   0.205385 0.265016 0.073964 -0.176549
C88   C     C_2   0.705269 0.235006 0.074160 -0.176302
C89   C     C_2   0.690187 0.759068 0.099643 -0.173099
C90   C     C_2   0.746900 0.287975 0.995445 -0.169047
C91   C     C_2   0.714363 0.688826 0.050347 -0.163411
C92   C     C_2   0.214355 0.811177 0.050367 -0.163426
C93   C     C_R   0.634898 0.104159 0.102259 -0.254169
C94   C     C_2   0.247100 0.212152 0.995127 -0.168450
C95   C     C_R   0.328402 0.913424 0.955764 -0.160525
C96   C     C_R   0.345741 0.100259 0.924063 -0.142809
C97   C     C_R   0.845677 0.399774 0.924164 -0.142972
C98   C     C_R   0.828410 0.586585 0.955747 -0.160508
C99   C     C_R   0.358193 0.079104 0.313846 -0.136678
C100  C     C_R   0.410052 0.889366 0.300069 -0.147705
C101  C     C_R   0.910045 0.610630 0.300073 -0.147693
C102  C     C_R   0.858234 0.420858 0.313869 -0.136664
C103  C     C_R   0.313857 0.168930 0.979688 0.102113
C104  C     C_R   0.134954 0.395856 0.102196 -0.254351
C105  C     C_R   0.286878 0.852318 0.028409 0.082818
C106  C     C_R   0.786885 0.647687 0.028393 0.082794
C107  C     C_R   0.813737 0.331139 0.979886 0.102174
C108  C     C_R   0.392251 0.811222 0.297584 0.060444
C109  C     C_R   0.310052 0.140847 0.319798 0.034604
C110  C     C_R   0.810091 0.359120 0.319829 0.034715
C111  C     C_R   0.892240 0.688772 0.297588 0.060434
C112  C     C_R   0.619954 0.199623 0.014948 0.758898
C113  C     C_R   0.619439 0.799485 0.016353 0.825701
C114  C     C_R   0.119437 0.700515 0.016357 0.825761
C115  C     C_R   0.134108 0.604998 0.103526 -0.259401
C116  C     C_R   0.119982 0.300386 0.014915 0.759053
C117  C     C_R   0.650466 0.829229 0.779333 0.808122
C118  C     C_R   0.607869 0.197005 0.788113 0.807030
C119  C     C_R   0.108044 0.303042 0.788036 0.806901
C120  C     C_R   0.150480 0.670752 0.779346 0.808125
C121  C     C_R   0.595130 0.105434 0.696642 -0.274133
C122  C     C_R   0.641718 0.923041 0.686078 -0.275138
C123  C     C_R   0.141730 0.576946 0.686096 -0.275113
C124  C     C_R   0.095248 0.394594 0.696579 -0.274184
C125  C     C_R   0.843237 0.776555 0.639351 0.208650
C126  C     C_R   0.651187 0.182410 0.070490 -0.065398
C127  C     C_R   0.838876 0.697822 0.670351 0.066980
C128  C     C_R   0.859095 0.678308 0.739227 -0.157818
C129  C     C_R   0.880523 0.736974 0.781480 -0.085519
C130  C     C_R   0.879113 0.815546 0.757826 -0.087253
C131  C     C_R   0.860982 0.835347 0.687009 -0.216431
C132  C     C_R   0.791979 0.224660 0.615871 0.132430
C133  C     C_R   0.799060 0.293207 0.660775 0.044921
C134  C     C_R   0.833370 0.289649 0.716768 -0.157479
C135  C     C_R   0.858017 0.217736 0.732763 -0.124946
C136  C     C_R   0.848447 0.148957 0.692559 -0.097950
F1    F     F_    0.143664 0.143237 0.682985 -0.661629
F2    F     F_    0.611745 0.267106 0.825572 -0.622931
F3    F     F_    0.112028 0.232956 0.825431 -0.622879
F4    F     F_    0.172396 0.735756 0.806787 -0.649429
F5    F     F_    0.190206 0.807760 0.654868 -0.666113
F6    F     F_    0.690189 0.692225 0.654872 -0.666093
F7    F     F_    0.643825 0.356819 0.682896 -0.661663
F8    F     F_    0.596843 0.271814 0.004208 -0.680286
F9    F     F_    0.593430 0.728531 0.007127 -0.694834
F10   F     F_    0.093441 0.771471 0.007114 -0.694841
F11   F     F_    0.096923 0.228179 0.004139 -0.680167
F12   F     F_    0.672381 0.764221 0.806777 -0.649402
H1    H     H_    0.362003 0.247805 0.042190 0.126766
H2    H     H_    0.565151 0.315067 0.652447 0.002220
H3    H     H_    0.469359 0.404981 0.154019 0.149147
H4    H     H_    0.414105 0.455959 0.058348 0.119057
H5    H     H_    0.267182 0.431293 0.130495 0.120556
H6    H     H_    0.176221 0.347163 0.290004 0.114572
H7    H     H_    0.470467 0.612585 0.362242 0.101578
H8    H     H_    0.596880 0.548101 0.216030 0.124647
H9    H     H_    0.618443 0.520980 0.045395 0.120289
H10   H     H_    0.507948 0.556904 0.025589 0.129216
H11   H     H_    0.375338 0.616122 0.175419 0.089617
H12   H     H_    0.065209 0.185174 0.652283 0.002382
H13   H     H_    0.144913 0.739417 0.594383 0.008701
H14   H     H_    0.317686 0.156398 0.489114 0.168590
H15   H     H_    0.391437 0.817388 0.473295 0.153406
H16   H     H_    0.891440 0.682616 0.473286 0.153398
H17   H     H_    0.817455 0.343550 0.489437 0.168974
H18   H     H_    0.795455 0.819555 0.336515 0.099318
H19   H     H_    0.674356 0.261140 0.383419 0.112267
H20   H     H_    0.174339 0.238994 0.383539 0.112209
H21   H     H_    0.330584 0.775684 0.099457 0.085030
H22   H     H_    0.295459 0.680431 0.336530 0.099312
H23   H     H_    0.715890 0.885092 0.483476 0.165042
H24   H     H_    0.591742 0.197826 0.539462 0.170003
H25   H     H_    0.091999 0.302519 0.539380 0.169935
H26   H     H_    0.215907 0.614885 0.483488 0.165032
H27   H     H_    0.802780 0.928150 0.472848 0.195087
H28   H     H_    0.676066 0.130820 0.496512 0.199616
H29   H     H_    0.176526 0.369300 0.496336 0.199560
H30   H     H_    0.302799 0.571839 0.472862 0.195077
H31   H     H_    0.375763 0.226988 0.391217 0.153300
H32   H     H_    0.830584 0.724312 0.099454 0.085023
H33   H     H_    0.456989 0.739649 0.392698 0.159776
H34   H     H_    0.956976 0.760364 0.392688 0.159784
H35   H     H_    0.875669 0.273048 0.391485 0.153130
H36   H     H_    0.393717 0.746764 0.174437 0.111286
H37   H     H_    0.327133 0.214436 0.193650 0.111244
H38   H     H_    0.827157 0.285502 0.193711 0.111191
H39   H     H_    0.893700 0.753230 0.174445 0.111264
H40   H     H_    0.874770 0.855742 0.519886 0.107477
H41   H     H_    0.787919 0.169616 0.498216 0.130768
H42   H     H_    0.288139 0.330336 0.498295 0.130543
H43   H     H_    0.861907 0.252229 0.042320 0.126537
H44   H     H_    0.374781 0.644259 0.519898 0.107473
H45   H     H_    0.212940 0.719307 0.143299 0.127159
H46   H     H_    0.218779 0.274918 0.130781 0.139625
H47   H     H_    0.718762 0.224970 0.130871 0.139680
H48   H     H_    0.712947 0.780688 0.143286 0.127145
H49   H     H_    0.734893 0.298647 0.937464 0.195514
H50   H     H_    0.692854 0.666814 0.005910 0.216799
H51   H     H_    0.192840 0.833195 0.005937 0.216799
H52   H     H_    0.235181 0.201590 0.937038 0.195496
H53   H     H_    0.306242 0.945806 0.917936 0.104044
H54   H     H_    0.136632 0.125681 0.487380 0.138208
H55   H     H_    0.331127 0.071501 0.875466 0.093454
H56   H     H_    0.831057 0.428514 0.875562 0.093491
H57   H     H_    0.806254 0.554215 0.917907 0.104040
H58   H     H_    0.348151 0.044694 0.378863 0.102022
H59   H     H_    0.415343 0.917769 0.357736 0.093180
H60   H     H_    0.915335 0.582227 0.357742 0.093198
H61   H     H_    0.848212 0.455256 0.378880 0.102053
H62   H     H_    0.583333 0.076624 0.645268 0.144275
H63   H     H_    0.651973 0.960837 0.623923 0.157782
H64   H     H_    0.151986 0.539157 0.623942 0.157792
H65   H     H_    0.225065 0.796830 0.432442 0.131115
H66   H     H_    0.083478 0.423384 0.645164 0.144293
H67   H     H_    0.640719 0.923280 0.160162 0.139218
H68   H     H_    0.641996 0.075796 0.158208 0.133756
H69   H     H_    0.142151 0.424242 0.158050 0.133871
H70   H     H_    0.140714 0.576716 0.160167 0.139290
H71   H     H_    0.202249 0.080897 0.515728 0.214602
H72   H     H_    0.264348 0.860893 0.483296 0.215111
H73   H     H_    0.764347 0.639096 0.483306 0.215123
H74   H     H_    0.702244 0.419180 0.515675 0.214572
H75   H     H_    0.822034 0.650837 0.639990 0.137767
H76   H     H_    0.725060 0.703144 0.432441 0.131110
H77   H     H_    0.859962 0.617297 0.757452 0.105253
H78   H     H_    0.898845 0.721937 0.831976 0.133294
H79   H     H_    0.894536 0.861032 0.791869 0.125417
H80   H     H_    0.863381 0.896686 0.666765 0.103902
H81   H     H_    0.780068 0.350012 0.651483 0.162795
H82   H     H_    0.841010 0.343018 0.747536 0.106604
H83   H     H_    0.884317 0.215325 0.776545 0.123687
H84   H     H_    0.867057 0.093072 0.705472 0.114525
H85   H     H_    0.810900 0.098144 0.602002 0.114175
H86   H     H_    0.279971 0.149626 0.651325 0.162803
H87   H     H_    0.636609 0.374368 0.487377 0.138167
H88   H     H_    0.341268 0.156142 0.746979 0.106646
H89   H     H_    0.385168 0.283572 0.775742 0.123576
H90   H     H_    0.368018 0.406061 0.704975 0.114524
H91   H     H_    0.311475 0.401467 0.601931 0.114015
H92   H     H_    0.322030 0.849160 0.640004 0.137763
H93   H     H_    0.359950 0.882707 0.757473 0.105236
H94   H     H_    0.398838 0.778069 0.831996 0.133288
H95   H     H_    0.394535 0.638970 0.791892 0.125407
H96   H     H_    0.363394 0.603314 0.666778 0.103938
H97   H     H_    0.970432 0.887441 0.362275 0.101579
H98   H     H_    0.644905 0.760562 0.594367 0.008695
H99   H     H_    0.096863 0.951926 0.216062 0.124641
H100  H     H_    0.118452 0.979042 0.045408 0.120315
H101  H     H_    0.007982 0.943081 0.025565 0.129293
H102  H     H_    0.875357 0.883853 0.175390 0.089563
H103  H     H_    0.881185 0.172956 0.313814 0.112608
H104  H     H_    0.969184 0.095036 0.153907 0.149327
H105  H     H_    0.913411 0.043347 0.059163 0.118690
H106  H     H_    0.766365 0.067784 0.131806 0.120107
H107  H     H_    0.675741 0.152430 0.290810 0.114645
H108  H     H_    0.381016 0.327531 0.314357 0.112324
N1    N     N_R   0.408680 0.130160 0.995800 -0.047435
N2    N     N_R   0.403730 0.078230 0.935950 -0.040180
N3    N     N_R   0.903730 0.421770 0.935950 -0.040146
N4    N     N_R   0.903730 0.578230 0.935950 -0.044341
N5    N     N_R   0.426630 0.075970 0.212960 -0.043308
N6    N     N_R   0.426630 0.924030 0.212960 -0.038925
N7    N     N_R   0.926630 0.575970 0.212960 -0.038927
N8    N     N_R   0.926630 0.424030 0.212960 -0.043283
N9    N     N_R   0.591320 0.134600 0.004200 -0.120659
N10   N     N_R   0.591320 0.865400 0.004200 -0.126862
N11   N     N_R   0.091320 0.634600 0.004200 -0.126867
N12   N     N_R   0.408680 0.869840 0.995800 -0.046520
N13   N     N_R   0.091320 0.365400 0.004200 -0.120746
N14   N     N_R   0.578320 0.867660 0.846880 -0.118529
N15   N     N_R   0.578320 0.132340 0.846880 -0.125044
N16   N     N_R   0.078320 0.367660 0.846880 -0.125094
N17   N     N_R   0.078320 0.632340 0.846880 -0.118520
N18   N     N_R   0.573370 0.074390 0.787040 -0.067482
N19   N     N_R   0.573370 0.925610 0.787040 -0.070972
N20   N     N_R   0.073370 0.574390 0.787040 -0.070980
N21   N     N_R   0.073370 0.425610 0.787040 -0.067464
N22   N     N_R   0.596270 0.927870 0.064040 -0.072536
N23   N     N_R   0.908680 0.630160 0.995800 -0.046519
N24   N     N_R   0.596270 0.072130 0.064040 -0.071086
N25   N     N_R   0.096270 0.427870 0.064040 -0.071055
N26   N     N_R   0.096270 0.572130 0.064040 -0.072542
N27   N     N_R   0.908680 0.369840 0.995800 -0.047417
N28   N     N_R   0.421680 0.867580 0.153120 -0.046718
N29   N     N_R   0.421680 0.132420 0.153120 -0.041212
N30   N     N_R   0.921680 0.367580 0.153120 -0.041231
N31   N     N_R   0.921680 0.632420 0.153120 -0.046722
N32   N     N_R   0.403730 0.921770 0.935950 -0.044348
Ni1   Ni    Ni4+2 0.500000 0.131190 0.000000 0.290367
Ni2   Ni    Ni4+2 0.500000 0.868810 0.000000 0.275230
Ni3   Ni    Ni4+2 0.000000 0.631190 0.000000 0.275234
Ni4   Ni    Ni4+2 0.000000 0.368810 0.000000 0.290277
Ni5   Ni    Ni4+2 0.488650 0.000000 0.862740 0.180581
Ni6   Ni    Ni4+2 0.988650 0.500000 0.862740 0.180614
Ni7   Ni    Ni4+2 0.511350 0.000000 0.137260 0.184831
Ni8   Ni    Ni4+2 0.011350 0.500000 0.137260 0.184858

loop_
_geom_bond_atom_site_label_1
_geom_bond_atom_site_label_2
_ccdc_geom_bond_type
C63   C65   S    
C19   C20   A    
N10   N22   A    
C31   H108  S    
C68   C81   S    
C90   C107  S    
N25   Ni8   S    
C5    C6    A    
C95   N32   A    
C87   C94   D    
N17   N20   A    
C37   C42   A    
C53   C68   S    
C62   C64   S    
C42   H11   S    
C129  H78   S    
N7    Ni8   S    
C44   C70   S    
C92   H51   S    
C70   C84   S    
C78   N29   A    
C52   H13   S    
C79   N30   A    
C54   F7    S    
N28   Ni2   S    
C21   C22   A    
C63   C85   S    
N9    Ni1   S    
N13   N25   A    
C37   C63   S    
N5    N29   A    
C115  N26   A    
N7    N31   A    
C40   H9    S    
C75   H42   S    
N13   Ni4   S    
C44   C119  A    
C58   H35   S    
C47   C52   S    
C37   C38   A    
C52   C72   S    
C104  N25   A    
N20   Ni6   S    
C69   C74   S    
C13   C115  A    
C45   C120  A    
C101  C111  A    
C97   H56   S    
C116  N13   A    
C73   H40   S    
C34   H5    S    
C6    H88   S    
C50   H74   S    
C35   C122  A    
C4    C5    A    
C116  F11   S    
C6    C7    A    
C8    H90   S    
N27   Ni4   S    
C98   C106  A    
C30   C36   A    
N8    N30   A    
C130  C131  A    
C25   C26   A    
C86   H45   S    
C10   C16   A    
C3    H85   S    
C25   H103  S    
C29   H107  S    
C77   N28   A    
C24   C87   S    
C104  H69   S    
C43   C118  A    
C41   H10   S    
C97   C107  A    
C58   C67   S    
C20   C21   A    
C99   N5    A    
C125  C127  A    
N17   Ni3   S    
C118  F2    S    
N15   Ni1   S    
C62   H20   S    
C57   C66   S    
C128  C129  A    
N24   Ni7   S    
C72   C85   S    
N1    Ni1   S    
C7    C8    A    
C54   H2    S    
C45   C123  A    
C117  F12   S    
C23   C29   A    
N18   Ni5   S    
C22   H102  S    
C38   C39   A    
N29   Ni1   S    
C53   F6    S    
C57   C73   S    
C58   H17   S    
C61   C67   S    
C121  N18   A    
C14   H94   S    
C131  H80   S    
N3    Ni6   S    
C85   H30   S    
C60   N23   A    
C120  F4    S    
C89   C91   D    
C50   C67   S    
C1    C103  A    
C55   C75   S    
C81   H23   S    
C43   C69   S    
C83   H28   S    
C93   H68   S    
C82   N22   A    
C38   H7    S    
C57   H34   S    
C85   H26   S    
C48   C53   S    
C15   H95   S    
C100  C108  A    
C7    H89   S    
C39   C40   A    
N4    N23   A    
C63   H22   S    
C48   H76   S    
N11   N26   A    
C11   H92   S    
C46   C51   S    
C82   H67   S    
C76   H44   S    
C125  C131  A    
C67   C110  S    
C31   C32   A    
C23   C61   S    
C123  H64   S    
C32   H3    S    
C17   C18   A    
N10   Ni2   S    
C121  H62   S    
C26   H104  S    
C16   H96   S    
N4    Ni6   S    
C24   C116  A    
C5    H86   S    
N5    Ni7   S    
C53   H98   S    
C60   C106  A    
C58   C74   S    
C129  C130  A    
C49   N12   A    
C62   C84   S    
C65   C108  S    
C55   H31   S    
N14   N19   A    
C77   C108  A    
C12   C14   A    
N9    N24   A    
C134  C135  A    
C95   H53   S    
C47   H72   S    
C52   F5    S    
N30   Ni4   S    
C71   N27   A    
C122  N19   A    
N2    Ni5   S    
N26   Ni8   S    
C64   C109  S    
C73   C125  S    
C78   C109  A    
N31   Ni3   S    
C134  H82   S    
C84   H29   S    
C10   C11   A    
C96   N2    A    
C70   C75   S    
C14   C15   A    
C48   C66   S    
C4    C9    A    
C112  N9    A    
N12   N32   A    
N15   N18   A    
C79   H38   S    
C71   C107  A    
C41   C42   A    
C36   H6    S    
C135  C136  A    
C90   H49   S    
C26   C27   A    
C50   C54   S    
C81   H27   S    
C28   C29   A    
C30   C31   A    
C56   H33   S    
C99   C109  A    
C51   H12   S    
C18   C19   A    
C113  F9    S    
C113  N10   A    
C4    C75   S    
N19   Ni5   S    
C91   H50   S    
N6    N28   A    
N21   Ni6   S    
C9    H91   S    
C115  H70   S    
C1    H1    S    
C66   C111  S    
C43   C121  A    
C112  C126  A    
C13   C114  A    
C135  H83   S    
C88   H47   S    
C100  H59   S    
C1    N1    A    
C3    C132  A    
C87   H46   S    
C61   C83   S    
C49   C105  A    
C44   C124  A    
C61   H19   S    
C2    C89   S    
C101  H60   S    
C74   H41   S    
C83   H24   S    
C102  H61   S    
C78   H37   S    
N32   Ni5   S    
C51   F1    S    
C88   C90   D    
C130  H79   S    
C30   C62   S    
C133  C134  A    
C2    C82   A    
C127  C128  A    
C3    C136  A    
C79   C110  A    
C59   C81   S    
N14   Ni2   S    
C124  N21   A    
C60   H32   S    
C17   C22   A    
C119  F3    S    
C32   C33   A    
N11   Ni3   S    
C114  N11   A    
C49   H21   S    
C54   C69   S    
N22   Ni7   S    
C47   H65   S    
C80   C111  A    
C94   H52   S    
C133  H81   S    
C92   C105  S    
C46   H54   S    
C12   H93   S    
C96   C103  A    
C122  H63   S    
N8    Ni8   S    
C56   C65   S    
C59   C66   S    
N16   N21   A    
C56   C76   S    
C74   C132  S    
C18   H97   S    
C72   C76   S    
C117  N14   A    
C19   H99   S    
C120  N17   A    
C124  H66   S    
C119  N16   A    
C136  H84   S    
C56   H15   S    
C28   H106  S    
N1    N2    A    
C21   H101  S    
C2    C113  A    
C48   H73   S    
C15   C16   A    
C77   H36   S    
C93   N24   A    
C88   C126  S    
C95   C105  A    
C93   C126  A    
C10   C76   S    
C8    C9    A    
C13   C86   S    
C98   H57   S    
C51   C70   S    
C34   C36   A    
C127  H75   S    
C45   C72   S    
C91   C106  S    
C99   H58   S    
C114  F10   S    
C132  C133  A    
C68   C73   S    
C89   H48   S    
C46   C64   S    
C24   C104  A    
C69   C83   S    
C55   C64   S    
C33   C34   A    
C27   H105  S    
C59   H18   S    
C17   C59   S    
C40   C41   A    
C100  N6    A    
N23   Ni3   S    
C101  N7    A    
C102  N8    A    
C35   C117  A    
N12   Ni2   S    
C123  N20   A    
C97   N3    A    
C96   H55   S    
C118  N15   A    
C98   N4    A    
C80   N31   A    
C46   H71   S    
C128  H77   S    
C55   H14   S    
C33   H4    S    
C94   C103  S    
C11   C12   A    
C39   H8    S    
C71   H43   S    
C112  F8    S    
N3    N27   A    
C86   C92   D    
N16   Ni4   S    
C57   H16   S    
C35   C68   S    
C80   H39   S    
C23   C25   A    
C50   H87   S    
C102  C110  A    
C20   H100  S    
C27   C28   A    
N6    Ni7   S    
C47   C65   S    
C84   H25   S    
