data_mof_unit_21272.cif
_audit_creation_date              2012-10-26T20:03:44-0400
_audit_creation_method            fapswitch 2.2
_symmetry_space_group_name_H-M    P1
_symmetry_Int_Tables_number       1
_space_group_crystal_system       triclinic
_cell_length_a                    12.333132
_cell_length_b                    13.020544
_cell_length_c                    15.856339
_cell_angle_alpha                 77.197029
_cell_angle_beta                  101.501839
_cell_angle_gamma                 116.641813
_cell_volume                      2204.68153636

loop_
_atom_site_label
_atom_site_type_symbol
_atom_type_description
_atom_site_fract_x
_atom_site_fract_y
_atom_site_fract_z
_atom_type_partial_charge
C1    C     C_R   0.854823 0.285023 0.506772 0.526521
C2    C     C_R   0.225297 0.836089 0.462575 -0.031050
C3    C     C_R   0.810999 0.072952 0.559929 0.181890
C4    C     C_R   0.999819 0.499686 0.659943 0.539410
C5    C     C_R   0.720344 0.963426 0.591869 0.160330
C6    C     C_R   0.596878 0.940480 0.569942 -0.053421
C7    C     C_R   0.558342 0.016960 0.507826 0.028979
C8    C     C_R   0.648542 0.123701 0.473514 -0.056606
C9    C     C_R   0.433691 0.984884 0.472619 0.015041
C10   C     C_R   0.406010 0.045761 0.390858 -0.013278
C11   C     C_R   0.493978 0.158399 0.363132 0.235268
C12   C     C_3   0.000752 0.499112 0.916573 0.019825
C13   C     C_R   0.614180 0.193085 0.401845 -0.074391
C14   C     C_R   0.336308 0.889955 0.513293 0.151333
C15   C     C_R   0.204362 0.886324 0.377346 -0.146365
C16   C     C_R   0.144814 0.714167 0.487745 0.537633
C17   C     C_R   0.771897 0.158667 0.510958 -0.031459
C18   C     C_R   0.359322 0.344119 0.647211 -0.143800
C19   C     C_R   0.758063 0.640181 0.378766 0.056387
C20   C     C_R   0.667190 0.680164 0.352556 0.224517
C21   C     C_R   0.571724 0.642752 0.405170 0.222361
C22   C     C_R   0.555716 0.544967 0.473049 -0.038537
C23   C     C_3   0.103013 0.593590 0.027174 -0.129862
C24   C     C_R   0.654681 0.510214 0.496966 0.146825
C25   C     C_R   0.449680 0.481043 0.520344 0.001910
C26   C     C_R   0.454883 0.400114 0.595594 -0.001955
C27   C     C_R   0.554206 0.372857 0.618722 -0.178064
C28   C     C_R   0.000508 0.500740 0.340050 0.552660
C29   C     C_R   0.649682 0.423801 0.568852 -0.075802
C30   C     C_R   0.335621 0.487660 0.494983 0.083110
C31   C     C_R   0.257798 0.368815 0.625892 0.279700
C32   C     C_3   0.002526 0.402115 0.046726 0.159375
C33   C     C_3   0.901770 0.409916 0.974329 0.129902
C34   C     C_3   0.001537 0.501824 0.083791 -0.020251
C35   C     C_1   0.999873 0.499383 0.749462 -0.036693
C36   C     C_1   0.001168 0.501539 0.250595 0.048619
C37   C     C_3   0.101157 0.492244 0.989999 0.125947
C38   C     C_3   0.713426 0.233203 0.003385 -0.227224
C39   C     C_3   0.357525 0.942043 0.655107 -0.327975
C40   C     C_3   0.990826 0.023203 0.624121 -0.280287
C41   C     C_3   0.722590 0.774213 0.611482 -0.286710
C42   C     C_3   0.204229 0.353244 0.768378 -0.281651
C43   C     C_3   0.010595 0.215482 0.054434 -0.239120
C44   C     C_3   0.053137 0.806591 0.938994 -0.273079
C45   C     C_3   0.000207 0.598256 0.954005 0.100766
C46   C     C_3   0.300379 0.493491 0.049704 -0.229981
C47   C     C_3   0.899946 0.509485 0.010802 0.218040
C48   C     C_1   0.000284 0.499111 0.824982 -0.039138
C49   C     C_1   0.001679 0.501952 0.175214 0.027849
C50   C     C_R   0.293843 0.988686 0.339610 0.268732
Cu1   Cu    Cu3+1 0.098270 0.475420 0.519690 1.006508
Cu2   Cu    Cu3+1 0.901730 0.524580 0.480310 0.949578
H1    H     H_    0.532882 0.855869 0.596108 0.200353
H2    H     H_    0.753090 0.336570 0.883158 0.255296
H3    H     H_    0.654419 0.151273 0.976456 0.148628
H4    H     H_    0.653936 0.270728 0.015114 0.230012
H5    H     H_    0.763424 0.211904 0.066004 0.209044
H6    H     H_    0.283791 0.773818 0.628444 0.265994
H7    H     H_    0.274116 0.958353 0.640126 0.140173
H8    H     H_    0.438632 0.024822 0.640078 0.154285
H9    H     H_    0.369184 0.910010 0.725789 0.152499
H10   H     H_    0.978680 0.138068 0.512843 0.270409
H11   H     H_    0.091787 0.066828 0.625603 0.105453
H12   H     H_    0.681252 0.274251 0.372618 0.189906
H13   H     H_    0.959264 0.942067 0.596420 0.178326
H14   H     H_    0.969650 0.005585 0.692123 0.175814
H15   H     H_    0.719486 0.855858 0.708562 0.249443
H16   H     H_    0.771514 0.724168 0.653493 0.136399
H17   H     H_    0.752319 0.798707 0.545342 0.184274
H18   H     H_    0.623205 0.717421 0.608150 0.182687
H19   H     H_    0.120288 0.229846 0.686383 0.243153
H20   H     H_    0.266593 0.314953 0.806822 0.130240
H21   H     H_    0.123108 0.321783 0.803538 0.153166
H22   H     H_    0.251322 0.449495 0.763337 0.172575
H23   H     H_    0.556867 0.308723 0.675006 0.106411
H24   H     H_    0.063144 0.311003 0.156467 0.273931
H25   H     H_    0.994826 0.132505 0.098993 0.194696
H26   H     H_    0.102203 0.250665 0.032342 0.184455
H27   H     H_    0.939771 0.196913 0.997418 0.174500
H28   H     H_    0.341404 0.757749 0.323235 0.380497
H29   H     H_    0.833552 0.794451 0.195132 0.350105
H30   H     H_    0.706627 0.540433 0.888882 0.319785
H31   H     H_    0.914837 0.689059 0.862581 0.254005
H32   H     H_    0.041655 0.879094 0.891956 0.137024
H33   H     H_    0.152445 0.831530 0.957057 0.151609
H34   H     H_    0.364631 0.283239 0.705142 0.098496
H35   H     H_    0.009897 0.793245 0.997884 0.199477
H36   H     H_    0.244536 0.534819 0.919448 0.256140
H37   H     H_    0.373151 0.475116 0.034006 0.211485
H38   H     H_    0.260265 0.430189 0.106961 0.196937
H39   H     H_    0.342066 0.583011 0.066120 0.180305
H40   H     H_    0.310894 0.242610 0.374113 0.323239
H41   H     H_    0.184440 0.905706 0.122338 0.358198
H42   H     H_    0.316563 0.531920 0.432296 0.207593
H43   H     H_    0.835105 0.674632 0.341936 0.157158
H44   H     H_    0.718628 0.392769 0.589618 0.183583
H45   H     H_    0.185268 0.668106 0.050315 0.144127
H46   H     H_    0.121411 0.839103 0.337421 0.173655
N1    N     N_R   0.246280 0.438200 0.549540 -0.224082
N2    N     N_2   0.208501 0.483034 0.975402 -0.542184
N3    N     N_R   0.754330 0.561180 0.450980 -0.265783
N4    N     N_2   0.796699 0.312907 0.941450 -0.532725
N5    N     N_2   0.345791 0.855787 0.605677 -0.530987
N6    N     N_2   0.938879 0.098971 0.569794 -0.490188
N7    N     N_2   0.750825 0.876656 0.648643 -0.539579
N8    N     N_2   0.165292 0.318670 0.682550 -0.450635
N9    N     N_2   0.003725 0.296648 0.100053 -0.506698
N10   N     N_2   0.997859 0.702327 0.899021 -0.509183
O1    O     O_R   0.972510 0.318130 0.524770 -0.466573
O2    O     O_2   0.587714 0.861811 0.376829 -0.213970
O3    O     O_3   0.379902 0.706539 0.319980 -0.490256
O4    O     O_2   0.556163 0.767440 0.209348 -0.157911
O5    O     O_2   0.757634 0.899746 0.269704 -0.265686
O6    O     O_3   0.744916 0.744706 0.184961 -0.462545
O7    O     O_2   0.713921 0.438553 0.105491 -0.203516
O8    O     O_2   0.800396 0.643464 0.041172 -0.245661
O9    O     O_3   0.662521 0.490611 0.939206 -0.516862
O10   O     O_2   0.538316 0.384175 0.331661 -0.300198
O11   O     O_2   0.466839 0.282803 0.206197 -0.131431
O12   O     O_R   0.806530 0.359650 0.491510 -0.523007
O13   O     O_3   0.310051 0.242072 0.311599 -0.485191
O14   O     O_2   0.220669 0.096740 0.189060 -0.224252
O15   O     O_2   0.399950 0.058947 0.191559 -0.219463
O16   O     O_3   0.186314 0.886438 0.186495 -0.560662
O17   O     O_R   0.082970 0.479240 0.637550 -0.463764
O18   O     O_R   0.916990 0.520750 0.604290 -0.524150
O19   O     O_R   0.193470 0.640350 0.508490 -0.455080
O20   O     O_R   0.027490 0.681870 0.475230 -0.518531
O21   O     O_R   0.083010 0.479250 0.395710 -0.508670
O22   O     O_R   0.917030 0.520760 0.362450 -0.483640
O23   O     O_2   0.454977 0.724166 0.483367 -0.366608
S1    S     S_3+6 0.499115 0.737191 0.398396 0.004380
S2    S     S_3+6 0.679522 0.776957 0.252835 0.089263
S3    S     S_3+6 0.767185 0.522208 0.026807 0.031409
S4    S     S_3+6 0.454041 0.270365 0.300588 0.071316
S5    S     S_3+6 0.277621 0.012877 0.223892 0.055444

loop_
_geom_bond_atom_site_label_1
_geom_bond_atom_site_label_2
_ccdc_geom_bond_type
C3    N6    S    
C8    C13   A    
C23   C45   S    
C27   C29   A    
C11   C13   A    
C19   C20   A    
C18   C26   A    
H41   O16   S    
O4    S2    D    
C12   C48   S    
Cu1   O21   S    
C7    C8    A    
C46   H37   S    
C5    N7    S    
C43   H26   S    
C26   C27   A    
C18   H34   S    
C40   H11   S    
C41   N7    S    
C4    O17   A    
C28   O21   A    
C5    C6    A    
O8    S3    D    
O9    S3    S    
C43   H27   S    
H31   N10   S    
C24   N3    A    
C15   C50   A    
C12   C37   S    
C24   C29   A    
C1    O1    A    
C38   H3    S    
C34   C49   S    
C32   N9    S    
H29   O6    S    
O2    S1    D    
C31   N1    A    
C20   S2    S    
C44   H35   S    
C2    C16   S    
C9    C10   A    
C45   N10   S    
C44   N10   S    
C4    C35   S    
Cu1   O1    S    
O5    S2    D    
C21   C22   A    
Cu1   N1    S    
C27   H23   S    
C35   C48   T    
C18   C31   A    
C41   H16   S    
H10   N6    S    
C45   C47   S    
Cu2   O20   S    
C39   H9    S    
Cu2   N3    S    
C42   H22   S    
O16   S5    S    
C33   N4    S    
Cu1   O17   S    
H6    N5    S    
Cu2   O18   S    
H15   N7    S    
C46   H39   S    
C44   H32   S    
C25   C26   A    
C23   C37   S    
C30   N1    A    
C22   C25   A    
O11   S4    D    
Cu1   Cu2   S    
C1    O12   A    
C32   C34   S    
C9    C14   A    
C21   S1    S    
C11   S4    S    
C40   N6    S    
C38   H5    S    
C42   N8    S    
C23   C34   S    
C39   H7    S    
C42   H20   S    
C43   N9    S    
C32   C37   S    
O13   S4    S    
C2    C15   A    
C16   O20   A    
O14   S5    D    
H36   N2    S    
Cu2   O12   S    
C23   H45   S    
H24   N9    S    
C40   H13   S    
C47   S3    S    
C33   C47   S    
C31   N8    S    
C22   C24   A    
C15   H46   S    
C44   H33   S    
C10   C50   A    
C19   H43   S    
C41   H17   S    
C25   C30   A    
C7    C9    A    
C46   N2    S    
C42   H21   S    
H2    N4    S    
C12   C45   S    
C3    C5    A    
C29   H44   S    
C39   N5    S    
C6    C7    A    
C46   H38   S    
O7    S3    D    
C43   H25   S    
C1    C17   S    
C8    C17   A    
C4    O18   A    
O15   S5    D    
Cu2   O22   S    
C32   C33   S    
Cu1   O19   S    
C38   N4    S    
C50   S5    S    
H40   O13   S    
C19   N3    A    
C14   N5    S    
C13   H12   S    
C39   H8    S    
H28   O3    S    
O6    S2    S    
C3    C17   A    
C28   O22   A    
C2    C14   A    
C16   O19   A    
C10   C11   A    
C36   C49   T    
O3    S1    S    
C38   H4    S    
C20   C21   A    
C28   C36   S    
C30   H42   S    
H19   N8    S    
C40   H14   S    
C34   C47   S    
C6    H1    S    
H30   O9    S    
C12   C33   S    
C37   N2    S    
O10   S4    D    
O23   S1    D    
C41   H18   S    
