data_mof_unit_10994.cif
_audit_creation_date              2012-12-10T19:42:53-0500
_audit_creation_method            fapswitch 2.2
_symmetry_space_group_name_H-M    P1
_symmetry_Int_Tables_number       1
_space_group_crystal_system       triclinic
_cell_length_a                    10.931834
_cell_length_b                    13.040291
_cell_length_c                    11.781782
_cell_angle_alpha                 99.121584
_cell_angle_beta                  93.625711
_cell_angle_gamma                 92.96284
_cell_volume                      1651.73625992

loop_
_atom_site_label
_atom_site_type_symbol
_atom_type_description
_atom_site_fract_x
_atom_site_fract_y
_atom_site_fract_z
_atom_type_partial_charge
C1    C     C_R   0.508961 0.300272 0.478917 0.894680
C2    C     C_R   0.491354 0.699748 0.521066 0.891628
C3    C     C_R   0.871758 0.496795 0.502488 -0.020545
C4    C     C_R   0.128141 0.502456 0.497428 -0.007892
C5    C     C_R   0.945417 0.467924 0.595095 0.079179
C6    C     C_R   0.054466 0.531457 0.404940 0.094667
C7    C     C_R   0.478158 0.812549 0.532376 -0.176177
C8    C     C_R   0.522620 0.187471 0.467587 -0.163994
C9    C     C_R   0.579523 0.020283 0.367574 0.082696
C10   C     C_R   0.421619 0.979677 0.632533 0.105401
C11   C     C_R   0.587443 0.130083 0.380172 0.507084
C12   C     C_R   0.413204 0.869904 0.619586 0.510060
C13   C     C_R   0.467270 0.136568 0.548445 -0.253108
C14   C     C_R   0.533988 0.863436 0.451803 -0.282099
C15   C     C_R   0.473068 0.029356 0.546112 0.084470
C16   C     C_R   0.528151 0.970652 0.454061 0.075893
C17   C     C_R   0.459865 0.366377 0.022324 -0.003136
C18   C     C_R   0.540332 0.633617 0.977685 -0.004364
C19   C     C_R   0.436947 0.385046 0.141106 0.622944
C20   C     C_R   0.563179 0.614949 0.858884 0.629048
C21   C     C_R   0.515125 0.560511 0.156595 -0.058609
C22   C     C_R   0.484966 0.439481 0.843422 -0.058878
C23   C     C_R   0.262323 0.501239 0.499424 0.858972
C24   C     C_R   0.737642 0.498491 0.500561 0.853997
C25   C     C_R   0.512916 0.549243 0.033837 -0.051432
C26   C     C_R   0.487236 0.450756 0.966178 -0.051470
C27   C     C_R   0.203449 0.706605 0.218097 -0.229653
C28   C     C_R   0.796600 0.294063 0.783549 -0.224051
C29   C     C_R   0.142387 0.675478 0.308779 0.410383
C30   C     C_R   0.857385 0.324696 0.692513 0.412254
C31   C     C_R   0.104999 0.569123 0.303609 -0.079538
C32   C     C_R   0.894838 0.430957 0.696892 -0.082549
C33   C     C_R   0.106570 0.500088 0.197320 0.166862
C34   C     C_R   0.893557 0.500464 0.802875 0.174101
C35   C     C_R   0.166136 0.534431 0.104867 0.210750
C36   C     C_R   0.834290 0.466626 0.895788 0.210365
C37   C     C_R   0.217736 0.636530 0.118739 -0.238027
C38   C     C_R   0.782603 0.364590 0.882611 -0.243139
C39   C     C_R   0.927651 0.527483 0.408978 -0.152554
C40   C     C_R   0.072216 0.471364 0.590742 -0.141332
Cu1   Cu    Cu3+1 0.509250 0.507730 0.615930 1.052724
Cu2   Cu    Cu3+1 0.490750 0.492270 0.384070 1.051776
H1    H     H_    0.262092 0.664444 0.048877 0.189150
H2    H     H_    0.738421 0.337078 0.952797 0.189902
H3    H     H_    0.453276 0.366864 0.789817 0.165330
H4    H     H_    0.546842 0.633118 0.210209 0.164324
H5    H     H_    0.234414 0.787362 0.221530 0.197408
H6    H     H_    0.765678 0.213382 0.780702 0.201960
H7    H     H_    0.872455 0.551554 0.339180 0.154795
H8    H     H_    0.127441 0.447263 0.660502 0.154915
H9    H     H_    0.583491 0.817638 0.387167 0.176901
H10   H     H_    0.417924 0.182290 0.613275 0.175256
N1    N     N_R   0.523180 0.519350 0.790130 -0.259254
N2    N     N_R   0.476820 0.480650 0.209870 -0.259012
O1    O     O_R   0.506570 0.354460 0.582000 -0.630743
O2    O     O_R   0.493430 0.645540 0.418000 -0.631146
O3    O     O_R   0.490940 0.341410 0.386200 -0.483451
O4    O     O_R   0.509060 0.658590 0.613800 -0.483151
O5    O     O_R   0.327460 0.506540 0.597900 -0.574151
O6    O     O_R   0.672540 0.493460 0.402100 -0.573715
O7    O     O_R   0.311830 0.493480 0.402100 -0.557956
O8    O     O_R   0.688170 0.506520 0.597900 -0.555865
S1    S     S_3+6 0.663511 0.714641 0.815018 -0.003748
O9    O     O_2   0.732102 0.678578 0.712058 -0.309480
O10   O     O_2   0.592093 0.804627 0.790334 -0.288243
O11   O     O_3   0.768245 0.762686 0.923680 -0.591545
H11   H     H_    0.814412 0.820307 0.896321 0.385063
S2    S     S_3+6 0.336461 0.285460 0.184847 0.004721
O12   O     O_2   0.407725 0.195401 0.209569 -0.282948
O13   O     O_2   0.267809 0.321556 0.287750 -0.292928
O14   O     O_3   0.231803 0.237666 0.076022 -0.591993
H12   H     H_    0.185623 0.179923 0.103143 0.388625
C41   C     C_3   0.453903 0.257468 0.954041 -0.738469
H13   H     H_    0.458560 0.195790 0.008214 0.306843
H14   H     H_    0.368287 0.243817 0.896458 0.242758
H15   H     H_    0.534855 0.248464 0.901904 0.196249
C42   C     C_3   0.546452 0.742528 0.045967 -0.738799
H16   H     H_    0.541474 0.804175 0.991767 0.306955
H17   H     H_    0.465740 0.751578 0.098408 0.195920
H18   H     H_    0.632275 0.756171 0.103262 0.242622
S3    S     S_3+6 0.090290 0.775878 0.410580 0.030636
O15   O     O_2   0.191883 0.858880 0.446299 -0.251585
O16   O     O_2   0.986063 0.822620 0.351483 -0.294230
O17   O     O_3   0.039873 0.733526 0.527926 -0.504974
H19   H     H_    0.979429 0.783380 0.557363 0.386059
S4    S     S_3+6 0.909462 0.223951 0.591322 0.031399
O18   O     O_2   0.944051 0.260711 0.482546 -0.237885
O19   O     O_2   0.020842 0.183574 0.646641 -0.276293
O20   O     O_3   0.799765 0.126574 0.560340 -0.542136
H20   H     H_    0.840273 0.067803 0.517299 0.408025
C43   C     C_3   0.031788 0.396703 0.180462 -0.707730
H21   H     H_    0.054177 0.352449 0.250996 0.280792
H22   H     H_    0.932858 0.411145 0.181893 0.211605
H23   H     H_    0.044021 0.346342 0.097791 0.260662
C44   C     C_3   0.968423 0.603762 0.818947 -0.711327
H24   H     H_    0.945865 0.647633 0.748111 0.274900
H25   H     H_    0.956414 0.654514 0.901422 0.260641
H26   H     H_    0.067322 0.589202 0.817382 0.212875
C45   C     C_3   0.170068 0.467095 0.988811 -0.842171
H27   H     H_    0.218702 0.508003 0.927360 0.224922
H28   H     H_    0.218793 0.396849 0.997265 0.284525
H29   H     H_    0.076162 0.442962 0.950566 0.242937
C46   C     C_3   0.830787 0.534404 0.011637 -0.842211
H30   H     H_    0.781796 0.604461 0.003036 0.285128
H31   H     H_    0.782547 0.493769 0.073549 0.224517
H32   H     H_    0.924797 0.558783 0.049447 0.243190
S5    S     S_3+6 0.303900 0.808452 0.698386 0.039376
O21   O     O_2   0.262154 0.702221 0.636584 -0.293733
O22   O     O_2   0.356931 0.800081 0.817008 -0.309157
O23   O     O_3   0.180237 0.879924 0.711885 -0.482114
H33   H     H_    0.126318 0.844337 0.759880 0.373169
S6    S     S_3+6 0.695718 0.191381 0.300182 0.030354
O24   O     O_2   0.642570 0.196643 0.180743 -0.306380
O25   O     O_2   0.735465 0.298869 0.359438 -0.301005
O26   O     O_3   0.820878 0.121565 0.288818 -0.488297
H34   H     H_    0.875773 0.158561 0.242765 0.385938
C47   C     C_3   0.619847 0.955149 0.260087 -0.723653
H35   H     H_    0.635350 0.999311 0.188994 0.290195
H36   H     H_    0.704669 0.916307 0.280462 0.255609
H37   H     H_    0.544469 0.896553 0.225957 0.199370
C48   C     C_3   0.382218 0.044582 0.740539 -0.716054
H38   H     H_    0.367012 0.999953 0.811344 0.285596
H39   H     H_    0.457982 0.102857 0.774562 0.193601
H40   H     H_    0.297482 0.083831 0.720923 0.264423

loop_
_geom_bond_atom_site_label_1
_geom_bond_atom_site_label_2
_ccdc_geom_bond_type
S1    O10   D    
C8    C13   A    
C27   C29   A    
C1    C8    S    
C9    C47   S    
C41   H13   S    
C2    C7    S    
C10   C48   S    
S6    O25   D    
S3    O15   D    
C44   H26   S    
C42   H16   S    
C23   O5    A    
C36   C46   S    
C17   C26   A    
C35   C37   A    
C9    C16   A    
Cu1   O4    S    
C10   C15   A    
C47   H36   S    
C14   H9    S    
C21   N2    A    
C33   C35   A    
S4    O19   D    
C15   C16   A    
Cu1   Cu2   S    
O23   H33   S    
Cu1   O1    S    
C48   H40   S    
Cu2   O2    S    
C7    C14   A    
C4    C40   A    
S2    O12   D    
S5    O21   D    
C31   C33   A    
C30   S4    S    
C18   C20   A    
C5    C32   S    
C6    C31   S    
S1    O11   S    
C3    C39   A    
C17   C41   S    
C41   H14   S    
C3    C24   S    
C18   C25   A    
Cu1   O8    S    
C35   C45   S    
Cu2   O3    S    
S6    O24   D    
S3    O16   D    
C22   N1    A    
C42   H17   S    
C7    C12   A    
C8    C11   A    
C34   C44   S    
Cu1   O5    S    
C4    C6    A    
C47   H37   S    
Cu2   O6    S    
C43   H21   S    
C4    C23   S    
S4    O18   D    
C25   C26   A    
C32   C34   A    
C37   H1    S    
C38   H2    S    
C1    O3    A    
C43   H22   S    
C13   H10   S    
C45   H27   S    
C28   C38   A    
C24   O6    A    
C45   H29   S    
C44   H25   S    
C19   S2    S    
C46   H31   S    
O17   H19   S    
C9    C11   A    
Cu2   O7    S    
Cu1   N1    S    
C48   H38   S    
C10   C12   A    
C19   N2    A    
C39   H7    S    
C29   S3    S    
C13   C15   A    
S5    O23   S    
C14   C16   A    
C46   H30   S    
S3    O17   S    
C21   H4    S    
C42   H18   S    
C27   H5    S    
C21   C25   A    
C28   H6    S    
C24   O8    A    
C45   H28   S    
C11   S6    S    
C20   N1    A    
C3    C5    A    
S4    O20   S    
C12   S5    S    
C2    O4    A    
C20   S1    S    
C28   C30   A    
C1    O1    A    
O14   H12   S    
C29   C31   A    
C2    O2    A    
C47   H35   S    
Cu2   N2    S    
C43   H23   S    
C30   C32   A    
S5    O22   D    
C27   C37   A    
S2    O14   S    
C40   H8    S    
C36   C38   A    
C17   C19   A    
O11   H11   S    
C46   H32   S    
C34   C36   A    
C18   C42   S    
C48   H39   S    
S1    O9    D    
C23   O7    A    
C22   H3    S    
C41   H15   S    
S2    O13   D    
C22   C26   A    
C5    C40   A    
C44   H24   S    
C6    C39   A    
O20   H20   S    
S6    O26   S    
O26   H34   S    
C33   C43   S    
