data_mof_unit_12925.cif
_audit_creation_date              2012-12-11T19:42:17-0500
_audit_creation_method            fapswitch 2.2
_symmetry_space_group_name_H-M    P1
_symmetry_Int_Tables_number       1
_space_group_crystal_system       triclinic
_cell_length_a                    8.205656
_cell_length_b                    15.089751
_cell_length_c                    26.955378
_cell_angle_alpha                 98.695852
_cell_angle_beta                  92.665713
_cell_angle_gamma                 81.239669
_cell_volume                      3259.85199234

loop_
_atom_site_label
_atom_site_type_symbol
_atom_type_description
_atom_site_fract_x
_atom_site_fract_y
_atom_site_fract_z
_atom_type_partial_charge
Ba1   Ba    Ba6+2 0.860050 0.456430 0.522530 1.643086
Ba2   Ba    Ba6+2 0.329780 0.543490 0.477460 1.657669
C1    C     C_3   0.856184 0.187352 0.698796 -0.318899
C2    C     C_R   0.956252 0.600058 0.186190 0.588089
C3    C     C_2   0.768717 0.573354 0.275216 -0.093958
C4    C     C_3   0.264308 0.247595 0.648116 0.278128
C5    C     C_3   0.739044 0.597310 0.330985 -0.099098
C6    C     C_1   0.986047 0.487012 0.343598 0.037139
C7    C     C_2   0.027169 0.479353 0.295645 -0.088266
C8    C     C_2   0.912774 0.523866 0.258373 0.219301
C9    C     C_R   0.038610 0.515483 0.104378 -0.079908
C10   C     C_R   0.048141 0.434583 0.125284 -0.035261
C11   C     C_R   0.096800 0.352006 0.094593 -0.059813
C12   C     C_3   0.781937 0.232070 0.654155 0.475863
C13   C     C_R   0.992108 0.598637 0.135227 -0.028378
C14   C     C_2   0.851544 0.538447 0.362474 -0.257146
C15   C     C_2   0.352882 0.482214 0.641146 -0.272862
C16   C     C_3   0.322320 0.204175 0.694418 -0.338755
C17   C     C_R   0.173207 0.427813 0.971369 0.019548
C18   C     C_R   0.088218 0.593146 0.979631 0.019745
C19   C     C_R   0.148947 0.509578 0.949928 0.050258
C20   C     C_R   0.241604 0.347264 0.940755 -0.099774
C21   C     C_R   0.280865 0.346727 0.890892 -0.063241
C22   C     C_R   0.253037 0.426259 0.868868 -0.032323
C23   C     C_3   0.482003 0.687115 0.632267 0.296209
C24   C     C_R   0.186050 0.507831 0.898242 -0.079095
C25   C     C_R   0.156502 0.587712 0.875953 -0.035146
C26   C     C_R   0.193433 0.584931 0.824806 0.587605
C27   C     C_R   0.291674 0.425836 0.818101 0.591135
C28   C     C_3   0.218684 0.263555 0.409750 0.311935
C29   C     C_2   0.460829 0.486093 0.729295 -0.074455
C30   C     C_3   0.502143 0.491441 0.675293 -0.046563
C31   C     C_1   0.207607 0.520991 0.657870 0.041181
C32   C     C_2   0.168400 0.523201 0.705439 -0.096904
C33   C     C_2   0.301635 0.503317 0.744125 0.216858
C34   C     C_3   0.449136 0.723985 0.687185 -0.368343
C35   C     C_R   0.129672 0.429257 0.022426 0.019557
C36   C     C_R   0.075931 0.513385 0.052671 0.050073
C37   C     C_R   0.059144 0.595561 0.031795 0.019836
C38   C     C_R   0.137028 0.349252 0.044547 -0.099598
C39   C     C_R   0.983072 0.679194 0.114668 -0.064455
C40   C     C_3   0.234807 0.161501 0.393664 -0.385133
C41   C     C_R   0.057339 0.671680 0.955753 -0.100929
C42   C     C_R   0.090483 0.668837 0.905236 -0.061468
C43   C     C_R   0.015203 0.677853 0.064271 -0.101717
C44   C     C_R   0.848166 0.831812 0.466242 -0.021539
C45   C     C_3   0.948485 0.771643 0.347152 0.371319
C46   C     C_R   0.780726 0.924579 0.469363 -0.033283
C47   C     C_R   0.642364 0.110886 0.477772 -0.024762
C48   C     C_R   0.787542 0.076937 0.450943 -0.041437
C49   C     C_R   0.856931 0.985948 0.447601 -0.110192
C50   C     C_R   0.575719 0.204304 0.484861 0.047142
C51   C     C_R   0.429201 0.233525 0.510369 -0.309359
C52   C     C_3   0.977755 0.734428 0.586255 0.303617
C53   C     C_R   0.617028 0.803878 0.511804 0.036585
C54   C     C_R   0.549929 0.896128 0.516745 -0.015076
C55   C     C_R   0.630245 0.956540 0.494622 0.026029
C56   C     C_3   0.911953 0.829017 0.305024 -0.327870
C57   C     C_R   0.404330 0.929536 0.543067 -0.043612
C58   C     C_R   0.333857 0.019250 0.545448 -0.099159
C59   C     C_R   0.410420 0.080445 0.523808 -0.033383
C60   C     C_R   0.561293 0.049375 0.498788 0.020024
C61   C     C_R   0.342135 0.172391 0.527440 -0.004910
C62   C     C_R   0.761087 0.772498 0.485341 -0.302502
C63   C     C_3   0.958259 0.836873 0.601035 -0.380550
C64   C     C_3   0.696406 0.345959 0.372803 0.295791
C65   C     C_3   0.712436 0.323747 0.316132 -0.355036
C66   C     C_3   0.462436 0.773931 0.331366 0.528013
C67   C     C_3   0.375087 0.835628 0.295330 -0.295174
C68   C     C_R   0.006797 0.437861 0.176247 0.593585
H1    H     H_    0.882134 0.258215 0.637494 0.128211
H2    H     H_    0.811272 0.368494 0.389438 0.008771
H3    H     H_    0.592091 0.401357 0.381241 0.094505
H4    H     H_    0.956950 0.131586 0.686269 0.108452
H5    H     H_    0.821901 0.271703 0.306768 0.132763
H6    H     H_    0.726735 0.385439 0.300048 0.079455
H7    H     H_    0.600071 0.297623 0.299061 0.132976
H8    H     H_    0.760301 0.159224 0.716809 0.111495
H9    H     H_    0.365881 0.667112 0.614467 0.029822
H10   H     H_    0.579809 0.627183 0.629810 0.031494
H11   H     H_    0.358278 0.787030 0.690019 0.137748
H12   H     H_    0.314097 0.141211 0.360359 0.127204
H13   H     H_    0.397811 0.673928 0.705700 0.082054
H14   H     H_    0.565581 0.739158 0.707022 0.123749
H15   H     H_    0.907301 0.238249 0.726932 0.104234
H16   H     H_    0.373517 0.131756 0.683257 0.102646
H17   H     H_    0.989474 0.700200 0.330673 0.069693
H18   H     H_    0.831284 0.776076 0.367079 -0.120431
H19   H     H_    0.017175 0.816742 0.279321 0.143988
H20   H     H_    0.801371 0.811002 0.282883 0.114499
H21   H     H_    0.888315 0.902020 0.320872 0.088144
H22   H     H_    0.591465 0.755826 0.318840 -0.092630
H23   H     H_    0.290988 0.124971 0.424350 0.059605
H24   H     H_    0.451100 0.888709 0.290777 0.051074
H25   H     H_    0.254400 0.869808 0.310296 0.133260
H26   H     H_    0.199335 0.317217 0.660083 0.059452
H27   H     H_    0.356141 0.795714 0.257922 0.100627
H28   H     H_    0.146211 0.442798 0.283376 0.116697
H29   H     H_    0.104156 0.288445 0.109236 0.120612
H30   H     H_    0.560165 0.474222 0.756630 0.087594
H31   H     H_    0.333431 0.282966 0.869461 0.117681
H32   H     H_    0.269755 0.283111 0.954458 0.068525
H33   H     H_    0.170499 0.282577 0.023864 0.068292
H34   H     H_    0.111130 0.141489 0.384028 0.118460
H35   H     H_    0.682933 0.606368 0.249442 0.091451
H36   H     H_    0.949912 0.744405 0.137594 0.116873
H37   H     H_    0.003960 0.736806 0.974827 0.068557
H38   H     H_    0.375382 0.251732 0.626947 0.002994
H39   H     H_    0.064257 0.731239 0.889147 0.121201
H40   H     H_    0.040916 0.540413 0.716697 0.112603
H41   H     H_    0.007705 0.743227 0.052219 0.068349
H42   H     H_    0.832915 0.551103 0.402664 0.078956
H43   H     H_    0.364368 0.443494 0.603731 0.073006
H44   H     H_    0.850690 0.119839 0.432369 0.098027
H45   H     H_    0.856981 0.713982 0.574591 0.006205
H46   H     H_    0.970224 0.964373 0.427401 0.100487
H47   H     H_    0.219429 0.039563 0.565091 0.116504
H48   H     H_    0.340316 0.887021 0.561670 0.098623
H49   H     H_    0.378667 0.304757 0.515226 0.070499
H50   H     H_    0.420321 0.239231 0.714719 0.172384
H51   H     H_    0.811020 0.701302 0.482173 0.060564
H52   H     H_    0.217984 0.208812 0.719882 0.126614
H53   H     H_    0.342727 0.282596 0.418113 0.005768
H54   H     H_    0.141863 0.281846 0.443661 0.056090
H55   H     H_    0.622695 0.140266 0.630922 0.161842
H56   H     H_    0.063591 0.714953 0.554604 0.071036
H57   H     H_    0.673278 0.196550 0.586039 0.174048
H58   H     H_    0.517198 0.880378 0.383073 0.122324
H59   H     H_    0.528390 0.783247 0.405969 0.154635
H60   H     H_    0.866347 0.858684 0.631078 0.133978
H61   H     H_    0.916049 0.871583 0.568369 0.063580
H62   H     H_    0.078511 0.857478 0.614914 0.116303
N1    N     N_R   0.959772 0.520182 0.206173 -0.421915
N2    N     N_R   0.261235 0.504583 0.796470 -0.424573
N3    N     N_3   0.720650 0.164258 0.616338 -0.491944
N4    N     N_3   0.457571 0.823645 0.382438 -0.429231
O1    O     O_2   0.906480 0.548660 0.619050 -0.469237
O2    O     O_2   0.191981 0.823205 0.470066 -0.465563
O3    O     O_3   0.075915 0.803102 0.378395 -0.566381
O4    O     O_3   0.138490 0.548590 0.558870 -0.493937
O5    O     O_3   0.572560 0.389960 0.472890 -0.490802
O6    O     O_2   0.345660 0.723580 0.528500 -0.471250
O7    O     O_3   0.535055 0.754856 0.609590 -0.646492
O8    O     O_2   0.447348 0.520577 0.325811 -0.489447
O9    O     O_3   0.382235 0.696707 0.328702 -0.553310
O10   O     O_2   0.010737 0.367337 0.193656 -0.597047
O11   O     O_2   0.351701 0.355090 0.793089 -0.615450
O12   O     O_3   0.668436 0.268207 0.391569 -0.641422
O13   O     O_2   0.922862 0.672913 0.212951 -0.628360
O14   O     O_2   0.167035 0.654377 0.805698 -0.595872
O15   O     O_3   0.686300 0.382310 0.585700 -0.476569
O16   O     O_2   0.845994 0.424251 0.672785 -0.515050
O17   O     O_3   0.037671 0.693932 0.628022 -0.628501
O18   O     O_3   0.651561 0.300710 0.671030 -0.634955
O19   O     O_2   0.844040 0.276390 0.471470 -0.471304
O20   O     O_3   0.101510 0.335500 0.560330 -0.482534
O21   O     O_2   0.997502 0.175768 0.533119 -0.478554
O22   O     O_3   0.155547 0.195151 0.619770 -0.623205
O23   O     O_2   0.283210 0.451310 0.380920 -0.455318
O24   O     O_3   0.051220 0.451340 0.441120 -0.499851
O25   O     O_3   0.503410 0.617620 0.414290 -0.459648
O26   O     O_3   0.146257 0.306430 0.370104 -0.629112
O27   O     O_3   0.617150 0.609960 0.527100 -0.476773
O28   O     O_3   0.088210 0.664420 0.439670 -0.474023
P1    P     P_3+3 0.071950 0.575820 0.612140 0.991215
P2    P     P_3+3 0.664370 0.290050 0.457240 0.974138
P3    P     P_3+3 0.146037 0.218809 0.558152 0.938797
P4    P     P_3+3 0.117760 0.424110 0.387850 0.989838
P5    P     P_3+3 0.051120 0.781799 0.439397 0.992359
P6    P     P_3+3 0.675091 0.403519 0.651219 0.947243
P7    P     P_3+3 0.531992 0.723592 0.544431 0.942887
P8    P     P_3+3 0.518720 0.607055 0.348962 0.970946

loop_
_geom_bond_atom_site_label_1
_geom_bond_atom_site_label_2
_ccdc_geom_bond_type
C53   C54   A    
C26   O14   D    
C7    H28   S    
Ba2   P4    S    
C1    H15   S    
C40   H23   S    
O12   P2    S    
C12   H1    S    
C40   H12   S    
C8    N1    S    
C19   C24   A    
O21   P3    D    
C52   O17   S    
O1    P1    D    
C63   H60   S    
C63   H61   S    
C15   H43   S    
C46   C55   A    
C52   C63   S    
C3    H35   S    
C54   C55   A    
C2    O13   D    
C52   H56   S    
C24   C25   A    
C16   H16   S    
O15   P6    S    
C26   N2    Am   
C17   C19   A    
H57   N3    S    
C32   C33   S    
C35   C38   A    
H58   N4    S    
C36   C37   A    
Ba1   O1    S    
C12   N3    S    
C34   H13   S    
C62   H51   S    
C23   H10   S    
O23   P4    D    
O18   P6    S    
C59   C61   A    
Ba1   Ba2   S    
Ba1   O19   S    
C1    H4    S    
C22   C27   A    
C11   C38   A    
C30   P6    S    
C6    P4    S    
C50   P2    S    
O25   P8    S    
C9    C13   A    
C25   C42   A    
C46   C49   A    
C64   H2    S    
C66   C67   S    
C65   H7    S    
C68   N1    Am   
C21   C22   A    
Ba1   O15   S    
C68   O10   D    
Ba1   P1    S    
C17   C35   A    
C56   H21   S    
C64   O12   S    
C37   C43   A    
C42   H39   S    
H55   N3    S    
C61   P3    S    
C64   C65   S    
O9    P8    S    
C57   C58   A    
C6    C14   D    
C5    P8    S    
C12   O18   S    
O2    P5    D    
O28   P5    S    
C23   O7    S    
C15   C31   D    
Ba2   O25   S    
C53   P7    S    
C4    O22   S    
O22   P3    S    
C31   C32   D    
C4    C16   S    
C44   C46   A    
C39   H36   S    
C55   C60   A    
C17   C20   A    
C13   C39   A    
C67   H24   S    
Ba2   O28   S    
C3    C5    S    
C18   C37   A    
C6    C7    D    
O20   P3    S    
C64   H3    S    
C52   H45   S    
C44   C62   A    
C58   C59   A    
C48   H44   S    
C45   H17   S    
C11   H29   S    
Ba1   O20   S    
C41   C42   A    
C35   C36   A    
H59   N4    S    
O16   P6    D    
C29   C30   S    
C54   C57   A    
C33   N2    S    
C34   H11   S    
C47   C50   A    
C53   C62   A    
C43   H41   S    
C48   C49   A    
O5    P2    S    
C58   H47   S    
C41   H37   S    
C29   H30   S    
C28   H53   S    
C66   N4    S    
C56   H20   S    
Ba1   O4    S    
C16   H52   S    
O26   P4    S    
C5    C14   S    
C28   H54   S    
C57   H48   S    
C4    H26   S    
Ba2   O6    S    
C29   C33   D    
C65   H5    S    
Ba2   O23   S    
C16   H50   S    
C63   H62   S    
O27   P7    S    
C50   C51   A    
C14   H42   S    
C7    C8    S    
O4    P1    S    
C15   C30   S    
C10   C68   A    
C4    H38   S    
C47   C60   A    
O6    P7    D    
O17   P1    S    
C23   H9    S    
Ba1   O24   S    
C31   P1    S    
C22   C24   A    
C67   H25   S    
C40   H34   S    
Ba2   O27   S    
C27   O11   D    
C9    C10   A    
C51   H49   S    
C1    C12   S    
O8    P8    D    
C49   H46   S    
C20   H32   S    
C44   P5    S    
Ba2   O4    S    
C45   H18   S    
C2    C13   A    
O7    P7    S    
C3    C8    D    
C39   C43   A    
C45   C56   S    
C27   N2    Am   
C51   C61   A    
C21   H31   S    
Ba1   P2    S    
C34   H14   S    
C32   H40   S    
C66   H22   S    
O3    P5    S    
O24   P4    S    
C59   C60   A    
C56   H19   S    
C18   C41   A    
Ba1   O5    S    
C23   C34   S    
C18   C19   A    
Ba1   O27   S    
Ba2   O24   S    
C47   C48   A    
C45   O3    S    
C25   C26   A    
Ba2   O5    S    
C28   O26   S    
C20   C21   A    
C28   C40   S    
C9    C36   A    
C65   H6    S    
O19   P2    D    
C10   C11   A    
C1    H8    S    
C66   O9    S    
C2    N1    Am   
C38   H33   S    
C67   H27   S    
