data_mof_unit_5624.cif
_audit_creation_date              2012-10-26T21:07:18-0400
_audit_creation_method            fapswitch 2.2
_symmetry_space_group_name_H-M    P1
_symmetry_Int_Tables_number       1
_space_group_crystal_system       triclinic
_cell_length_a                    9.724064
_cell_length_b                    10.922808
_cell_length_c                    17.349765
_cell_angle_alpha                 90.183445
_cell_angle_beta                  86.864754
_cell_angle_gamma                 90.399243
_cell_volume                      1839.97912489

loop_
_atom_site_label
_atom_site_type_symbol
_atom_type_description
_atom_site_fract_x
_atom_site_fract_y
_atom_site_fract_z
_atom_type_partial_charge
C1    C     C_R   0.500733 0.734316 0.498650 0.592099
C2    C     C_R   0.520912 0.485775 0.265013 -0.007431
C3    C     C_2   0.604162 0.063719 0.531061 -0.027357
C4    C     C_R   0.482997 0.502822 0.650002 0.545358
C5    C     C_2   0.494014 0.134611 0.519742 -0.102290
C6    C     C_2   0.583558 0.930404 0.540870 0.231356
C7    C     C_2   0.504919 0.866937 0.492805 0.250097
C8    C     C_2   0.075126 0.595575 0.514723 0.090150
C9    C     C_2   0.923422 0.598634 0.501238 0.042057
C10   C     C_R   0.499211 0.265672 0.505141 0.545265
C11   C     C_R   0.516921 0.497871 0.349894 0.537556
C12   C     C_R   0.344153 0.485537 0.772910 -0.082391
C13   C     C_R   0.473111 0.508493 0.734949 -0.042660
C14   C     C_R   0.586612 0.538883 0.779250 -0.039832
C15   C     C_R   0.569183 0.541323 0.859399 -0.154352
C16   C     C_R   0.441014 0.516300 0.896608 0.012314
C17   C     C_R   0.325848 0.490622 0.852896 0.254523
C18   C     C_R   0.723885 0.573231 0.745556 0.064730
C19   C     C_R   0.759670 0.697240 0.736703 -0.054323
C20   C     C_R   0.894113 0.730712 0.712410 -0.103678
C21   C     C_R   0.993405 0.640610 0.697466 -0.102291
C22   C     C_R   0.957631 0.516911 0.705043 -0.090145
C23   C     C_R   0.391195 0.444601 0.151222 0.003592
C24   C     C_R   0.823491 0.483085 0.729661 -0.064609
C25   C     C_R   0.746722 0.111042 0.535642 0.062251
C26   C     C_R   0.787160 0.169422 0.603082 -0.095041
C27   C     C_R   0.925401 0.200689 0.610822 -0.128883
C28   C     C_R   0.023436 0.175718 0.551056 -0.083778
C29   C     C_R   0.983506 0.119024 0.483415 -0.103592
C30   C     C_R   0.845757 0.085622 0.475936 -0.071259
C31   C     C_R   0.778935 0.519216 0.248866 0.049155
C32   C     C_R   0.813856 0.640393 0.267072 -0.079193
C33   C     C_R   0.941421 0.666735 0.296880 -0.126800
C34   C     C_R   0.396003 0.461852 0.230486 -0.147227
C35   C     C_R   0.034289 0.572412 0.308537 -0.082112
C36   C     C_R   0.999594 0.451493 0.290587 -0.059484
C37   C     C_R   0.872423 0.424842 0.260586 -0.063204
C38   C     C_R   0.256719 0.417628 0.119049 0.021276
C39   C     C_R   0.230590 0.302739 0.086280 -0.088893
C40   C     C_R   0.103920 0.279009 0.054564 -0.105697
C41   C     C_R   0.003802 0.370254 0.054475 -0.101294
C42   C     C_R   0.030067 0.485194 0.086461 -0.117549
C43   C     C_R   0.155291 0.508374 0.119573 -0.117096
C44   C     C_R   0.644244 0.491033 0.217940 -0.026741
C45   C     C_R   0.639292 0.472213 0.138489 -0.133457
C46   C     C_R   0.514169 0.451947 0.104673 0.017324
C47   C     C_2   0.431743 0.516513 0.980923 -0.136928
C48   C     C_2   0.515897 0.446673 0.020226 -0.139068
Cu1   Cu    Cu3+1 0.361370 0.499980 0.499980 0.931559
Cu2   Cu    Cu3+1 0.638630 0.500020 0.500020 0.995641
H1    H     H_    0.732769 0.478451 0.102090 0.101113
H2    H     H_    0.656405 0.564170 0.893316 0.124238
H3    H     H_    0.684196 0.767706 0.750069 0.121122
H4    H     H_    0.921717 0.826461 0.706098 0.108613
H5    H     H_    0.098003 0.666577 0.679822 0.114709
H6    H     H_    0.034131 0.447373 0.692430 0.110078
H7    H     H_    0.797458 0.387215 0.737393 0.094937
H8    H     H_    0.712396 0.187404 0.650266 0.094609
H9    H     H_    0.956948 0.242647 0.663556 0.099106
H10   H     H_    0.130378 0.199906 0.557298 0.138925
H11   H     H_    0.059642 0.099377 0.437271 0.113790
H12   H     H_    0.391561 0.093835 0.523328 0.133816
H13   H     H_    0.816454 0.038745 0.424162 0.109438
H14   H     H_    0.693279 0.928937 0.631479 0.311794
H15   H     H_    0.392745 0.861728 0.403471 0.318277
H16   H     H_    0.178492 0.365116 0.436188 0.365723
H17   H     H_    0.742229 0.713942 0.258406 0.103114
H18   H     H_    0.968171 0.760143 0.311119 0.097616
H19   H     H_    0.132872 0.593152 0.331705 0.138437
H20   H     H_    0.071276 0.378269 0.299509 0.118396
H21   H     H_    0.846621 0.331004 0.246685 0.104382
H22   H     H_    0.194525 0.474715 0.941527 0.340273
H23   H     H_    0.121624 0.679143 0.535216 0.084146
H24   H     H_    0.308125 0.231975 0.085338 0.111843
H25   H     H_    0.083872 0.190327 0.029389 0.111824
H26   H     H_    0.906650 0.352203 0.028901 0.107558
H27   H     H_    0.954078 0.556866 0.085438 0.111541
H28   H     H_    0.174525 0.597769 0.144112 0.110341
H29   H     H_    0.876630 0.687430 0.494651 0.137612
H30   H     H_    0.888485 0.421419 0.519779 0.277173
H31   H     H_    0.300899 0.454016 0.265387 0.127362
H32   H     H_    0.595130 0.392623 0.989674 0.119749
H33   H     H_    0.255891 0.462466 0.740339 0.147450
H34   H     H_    0.357109 0.575935 0.010590 0.131132
N1    N     N_2   0.152990 0.501340 0.500850 -0.087295
N2    N     N_2   0.846850 0.501370 0.500880 -0.316360
O1    O     O_R   0.382960 0.678040 0.499990 -0.536170
O2    O     O_3   0.439740 0.924687 0.434102 -0.770145
O3    O     O_3   0.099949 0.415372 0.455425 -0.660900
O4    O     O_3   0.195301 0.466512 0.884890 -0.712249
O5    O     O_R   0.617100 0.678080 0.500010 -0.473280
O6    O     O_R   0.369350 0.500000 0.613580 -0.520195
O7    O     O_R   0.603500 0.500040 0.613610 -0.484460
O8    O     O_R   0.382900 0.321920 0.499990 -0.527578
O9    O     O_R   0.617040 0.321960 0.500010 -0.486679
O10   O     O_R   0.396500 0.499960 0.386390 -0.526201
O11   O     O_R   0.630650 0.500000 0.386420 -0.476681
O12   O     O_3   0.649419 0.868445 0.597741 -0.729693

loop_
_geom_bond_atom_site_label_1
_geom_bond_atom_site_label_2
_ccdc_geom_bond_type
C11   O10   A    
C1    O1    A    
C41   C42   A    
Cu1   O1    S    
C19   C20   A    
C3    C6    S    
C45   C46   A    
C43   H28   S    
C26   C27   A    
C18   C24   A    
C6    O12   S    
C21   C22   A    
C28   C29   A    
C18   C19   A    
C38   C39   A    
Cu2   O9    S    
C10   O8    A    
C15   C16   A    
C8    N1    D    
C9    H29   S    
C39   H24   S    
C4    C13   S    
C7    O2    S    
C14   C18   S    
H30   N2    S    
C31   C32   A    
C2    C44   A    
C24   H7    S    
C12   C17   A    
C34   H31   S    
Cu1   O8    S    
C19   H3    S    
H14   O12   S    
C1    O5    A    
C23   C46   A    
C13   C14   A    
C2    C11   S    
C16   C47   S    
C36   H20   S    
H16   O3    S    
C29   H11   S    
C28   H10   S    
C46   C48   S    
C31   C44   S    
Cu1   N1    S    
C3    C25   S    
C20   H4    S    
C39   C40   A    
C21   H5    S    
N1    O3    S    
C8    C9    S    
C22   H6    S    
C25   C26   A    
C47   H34   S    
C31   C37   A    
C12   H33   S    
C35   C36   A    
C29   C30   A    
C9    N2    D    
H22   O4    S    
C47   C48   D    
C23   C34   A    
C15   H2    S    
C12   C13   A    
C26   H8    S    
C32   H17   S    
C40   C41   A    
C37   H21   S    
C22   C24   A    
C42   C43   A    
Cu1   O6    S    
C44   C45   A    
H15   O2    S    
C25   C30   A    
C36   C37   A    
Cu2   O11   S    
C1    C7    S    
C17   O4    S    
C3    C5    D    
Cu2   O7    S    
C6    C7    D    
C23   C38   S    
C40   H25   S    
C11   O11   A    
C32   C33   A    
C38   C43   A    
C27   H9    S    
C41   H26   S    
C2    C34   A    
C16   C17   A    
C10   O9    A    
C8    H23   S    
C33   C35   A    
C48   H32   S    
C5    H12   S    
Cu1   O10   S    
Cu2   N2    S    
C4    O7    A    
Cu2   O5    S    
C5    C10   S    
C20   C21   A    
C35   H19   S    
C42   H27   S    
Cu1   Cu2   S    
C27   C28   A    
C45   H1    S    
C14   C15   A    
C30   H13   S    
C33   H18   S    
C4    O6    A    
