data_mof_unit_58268.cif
_audit_creation_date              2012-10-26T18:33:37-0400
_audit_creation_method            fapswitch 2.2
_symmetry_space_group_name_H-M    P1
_symmetry_Int_Tables_number       1
_space_group_crystal_system       triclinic
_cell_length_a                    15.062004
_cell_length_b                    13.699552
_cell_length_c                    10.731912
_cell_angle_alpha                 90.05252
_cell_angle_beta                  89.84921
_cell_angle_gamma                 90.271161
_cell_volume                      2214.41839991

loop_
_atom_site_label
_atom_site_type_symbol
_atom_type_description
_atom_site_fract_x
_atom_site_fract_y
_atom_site_fract_z
_atom_type_partial_charge
C1    C     C_R   0.328695 0.499801 0.503775 0.550056
C2    C     C_R   0.042958 0.362346 0.655227 -0.131255
C3    C     C_R   0.091898 0.430962 0.585168 -0.012450
C4    C     C_R   0.499966 0.499819 0.259640 0.543331
C5    C     C_R   0.046117 0.499350 0.510821 0.044420
C6    C     C_R   0.093500 0.568481 0.438852 0.013742
C7    C     C_R   0.047933 0.637550 0.367528 -0.126650
C8    C     C_R   0.955543 0.638744 0.367315 -0.128423
C9    C     C_R   0.185489 0.433076 0.587653 -0.021608
C10   C     C_R   0.231880 0.499393 0.510355 -0.021504
C11   C     C_R   0.185828 0.567268 0.438360 -0.150449
C12   C     C_3   0.583418 0.553229 0.927867 -0.232439
C13   C     C_R   0.449170 0.793146 0.584807 0.037131
C14   C     C_R   0.450253 0.206331 0.585816 0.038558
C15   C     C_R   0.550807 0.793505 0.415153 0.036479
C16   C     C_R   0.550269 0.206881 0.414509 0.038987
C17   C     C_R   0.551838 0.896565 0.412849 -0.015148
C18   C     C_R   0.551611 0.103798 0.412547 -0.013862
C19   C     C_R   0.671227 0.500199 0.499990 0.544431
C20   C     C_R   0.500042 0.948154 0.499943 0.055264
C21   C     C_R   0.500091 0.051771 0.499951 0.055546
C22   C     C_R   0.448256 0.896185 0.587114 -0.015408
C23   C     C_R   0.815116 0.570925 0.436208 -0.135262
C24   C     C_R   0.448771 0.103331 0.587569 -0.015371
C25   C     C_R   0.603231 0.949056 0.325974 -0.141941
C26   C     C_R   0.603038 0.051710 0.325730 -0.139721
C27   C     C_R   0.397450 0.050910 0.674566 -0.138755
C28   C     C_R   0.397071 0.948281 0.674196 -0.143655
C29   C     C_R   0.499951 0.499866 0.740373 0.548619
C30   C     C_3   0.415817 0.551067 0.072261 -0.233930
C31   C     C_3   0.500599 0.392900 0.071192 -0.231587
C32   C     C_3   0.415765 0.551011 0.928427 -0.235982
C33   C     C_3   0.500639 0.392929 0.928530 -0.231716
C34   C     C_R   0.767539 0.500383 0.502733 -0.013545
C35   C     C_3   0.583461 0.553145 0.071679 -0.236408
C36   C     C_3   0.499957 0.499248 0.121758 0.047174
C37   C     C_3   0.499941 0.499303 0.878236 0.045007
C38   C     C_1   0.233427 0.372883 0.675730 0.190915
C39   C     C_1   0.904493 0.287320 0.724874 0.180287
C40   C     C_R   0.811639 0.429708 0.572649 -0.134560
C41   C     C_R   0.904519 0.429099 0.578374 -0.000973
C42   C     C_R   0.952757 0.499402 0.508892 0.050370
C43   C     C_R   0.907607 0.570108 0.437201 0.018897
C44   C     C_R   0.950402 0.360457 0.651629 -0.016207
Cu1   Cu    Cu3+1 0.499990 0.597420 0.500010 0.923540
Cu2   Cu    Cu3+1 0.499990 0.402580 0.500010 0.943004
H1    H     H_    0.413614 0.627709 0.106617 0.129443
H2    H     H_    0.589586 0.247918 0.347973 0.120459
H3    H     H_    0.643522 0.910744 0.258143 0.104431
H4    H     H_    0.643166 0.090331 0.257701 0.109995
H5    H     H_    0.357490 0.089266 0.742752 0.124319
H6    H     H_    0.356838 0.909682 0.742124 0.106422
H7    H     H_    0.355129 0.513282 0.107328 0.116590
H8    H     H_    0.441142 0.352291 0.105414 0.136966
H9    H     H_    0.355127 0.513058 0.893816 0.129753
H10   H     H_    0.441269 0.352228 0.894549 0.148013
H11   H     H_    0.413417 0.627614 0.894131 0.120765
H12   H     H_    0.560477 0.353729 0.105102 0.123731
H13   H     H_    0.560583 0.353850 0.894155 0.133433
H14   H     H_    0.584827 0.629802 0.106148 0.121263
H15   H     H_    0.644585 0.516794 0.106186 0.111692
H16   H     H_    0.584668 0.629927 0.893742 0.132851
H17   H     H_    0.644562 0.516989 0.892694 0.116380
H18   H     H_    0.780006 0.625064 0.381755 0.110125
H19   H     H_    0.772771 0.376584 0.624262 0.140204
H20   H     H_    0.076432 0.308747 0.712299 0.138823
H21   H     H_    0.222263 0.618826 0.380735 0.121462
H22   H     H_    0.083821 0.690880 0.312142 0.111067
H23   H     H_    0.921533 0.693006 0.311906 0.109048
H24   H     H_    0.409443 0.752137 0.650901 0.119780
H25   H     H_    0.412107 0.246874 0.653339 0.154225
H26   H     H_    0.590597 0.752767 0.349177 0.114679
N1    N     N_R   0.499930 0.743810 0.499950 -0.238457
N2    N     N_R   0.499930 0.256190 0.499950 -0.242058
N3    N     N_1   0.270881 0.325309 0.747233 -0.358573
N4    N     N_1   0.867777 0.228792 0.783496 -0.305774
O1    O     O_R   0.370250 0.582280 0.500040 -0.507583
O2    O     O_R   0.370250 0.417720 0.500040 -0.485345
O3    O     O_R   0.499970 0.582270 0.317700 -0.514257
O4    O     O_R   0.499970 0.417730 0.317700 -0.513376
O5    O     O_R   0.629730 0.582260 0.499980 -0.501975
O6    O     O_R   0.629730 0.417740 0.499980 -0.504067
O7    O     O_R   0.500000 0.582270 0.682320 -0.512423
O8    O     O_R   0.500000 0.417730 0.682320 -0.508989

loop_
_geom_bond_atom_site_label_1
_geom_bond_atom_site_label_2
_ccdc_geom_bond_type
Cu2   O4    S    
C5    C42   A    
C4    C36   S    
C18   C21   A    
C1    O1    A    
C41   C42   A    
C35   C36   S    
C18   C26   A    
C8    C43   A    
C16   H2    S    
C7    C8    A    
Cu1   Cu2   S    
C15   H26   S    
C8    H23   S    
C16   N2    A    
C14   N2    A    
C31   H12   S    
C29   O7    A    
C26   H4    S    
C5    C6    A    
C13   H24   S    
C17   C20   A    
C23   C43   A    
C11   H21   S    
Cu1   N1    S    
C14   H25   S    
C14   C24   A    
C12   C37   S    
C7    H22   S    
Cu2   O6    S    
C2    C44   A    
C24   C27   A    
C19   O6    A    
C9    C10   A    
C32   H9    S    
C33   H10   S    
C33   H13   S    
C22   C28   A    
C1    O2    A    
Cu1   O7    S    
C32   H11   S    
C27   H5    S    
C38   N3    T    
C30   H7    S    
C30   H1    S    
C4    O3    A    
C35   H15   S    
C6    C11   A    
Cu2   O2    S    
C12   H17   S    
C3    C5    A    
C25   C26   A    
C39   N4    T    
C33   C37   S    
C35   H14   S    
C3    C9    A    
C12   H16   S    
C23   C34   A    
C31   C33   S    
Cu1   O3    S    
C32   C37   S    
C12   C35   S    
C6    C7    A    
C29   O8    A    
Cu2   O8    S    
C23   H18   S    
C15   N1    A    
C13   N1    A    
C40   H19   S    
C41   C44   A    
C34   C40   A    
C42   C43   A    
Cu2   N2    S    
C15   C17   A    
C40   C41   A    
Cu1   O5    S    
C1    C10   S    
C20   C22   A    
C2    H20   S    
C19   C34   S    
C4    O4    A    
C39   C44   S    
C30   C36   S    
C17   C25   A    
C2    C3    A    
C30   C32   S    
C28   H6    S    
C9    C38   S    
C13   C22   A    
C31   H8    S    
C25   H3    S    
C10   C11   A    
C20   C21   A    
C16   C18   A    
C21   C24   A    
C29   C37   S    
C27   C28   A    
C31   C36   S    
Cu1   O1    S    
C19   O5    A    
