data_mof_unit_28381.cif
_audit_creation_date              2013-03-05T16:30:42-0500
_audit_creation_method            fapswitch 2.2
_symmetry_space_group_name_H-M    P1
_symmetry_Int_Tables_number       1
_space_group_crystal_system       triclinic
_cell_length_a                    10.926156
_cell_length_b                    10.878201
_cell_length_c                    9.567597
_cell_angle_alpha                 90.888641
_cell_angle_beta                  90.103522
_cell_angle_gamma                 90.3726
_cell_volume                      1137.01223813

loop_
_atom_site_label
_atom_site_type_symbol
_atom_site_description
_atom_site_fract_x
_atom_site_fract_y
_atom_site_fract_z
_atom_type_partial_charge
O1    O     O_R   0.500000 0.319640 0.618810 -0.575448
O2    O     O_R   0.500010 0.319680 0.381230 -0.524405
C1    C     C_R   0.494976 0.262572 0.498586 0.860401
O3    O     O_R   0.321940 0.499980 0.618760 -0.598119
O4    O     O_R   0.321950 0.500020 0.381180 -0.569964
C2    C     C_R   0.265322 0.500353 0.499751 0.908936
Cu1   Cu    Cu3+1 0.499990 0.499980 0.640670 1.009031
Cu2   Cu    Cu3+1 0.500010 0.500020 0.359330 1.023862
O5    O     O_R   0.499990 0.680320 0.618770 -0.596585
O6    O     O_R   0.500000 0.680360 0.381190 -0.583618
O7    O     O_R   0.678050 0.499980 0.618820 -0.574192
O8    O     O_R   0.678060 0.500020 0.381240 -0.578337
C3    C     C_R   0.501004 0.737478 0.500698 0.835363
C4    C     C_R   0.734403 0.498412 0.499919 0.940570
C5    C     C_2   0.935634 0.463390 0.395316 -0.089167
C6    C     C_2   0.865882 0.510271 0.498447 -0.377758
H1    H     H_    0.905691 0.572849 0.575969 0.185349
C7    C     C_2   0.062028 0.508152 0.389188 -0.040234
C8    C     C_2   0.133925 0.483313 0.499322 -0.360085
H2    H     H_    0.095763 0.435686 0.588671 0.162612
C9    C     C_R   0.544644 0.066809 0.607406 0.002738
C10   C     C_R   0.495589 0.129218 0.494473 -0.152673
C11   C     C_R   0.457048 0.059503 0.375934 0.283972
C12   C     C_R   0.462139 0.931269 0.379094 -0.171255
H3    H     H_    0.426809 0.879127 0.290243 0.197333
C13   C     C_R   0.504194 0.870613 0.498711 -0.119208
C14   C     C_R   0.554270 0.940972 0.608083 0.077984
C15   C     C_3   0.541586 0.936593 0.764592 -0.300010
C16   C     C_3   0.524134 0.077535 0.762323 -0.191410
H4    H     H_    0.459979 0.882726 0.797577 0.180912
C17   C     C_R   0.606880 0.492941 0.074298 0.247921
N1    N     N_R   0.500780 0.500930 0.147930 -0.194877
C18   C     C_R   0.393535 0.498718 0.073690 0.017002
H5    H     H_    0.306908 0.498407 0.127325 0.167584
C19   C     C_R   0.393475 0.499797 0.925675 0.004892
H6    H     H_    0.306700 0.501164 0.871728 0.169511
N2    N     N_R   0.500780 0.500890 0.852020 -0.218586
C20   C     C_R   0.607549 0.489834 0.926560 0.252733
C21   C     C_3   0.712965 0.578994 0.924949 -0.285108
C22   C     C_3   0.708716 0.583831 0.083315 -0.517131
H7    H     H_    0.686863 0.664958 0.873795 0.177591
H8    H     H_    0.790523 0.545754 0.135767 0.229336
H9    H     H_    0.678314 0.673927 0.126605 0.223625
C23   C     C_2   0.895712 0.361267 0.299203 0.901666
O9    O     O_2   0.952389 0.340744 0.191298 -0.547195
O10   O     O_R   0.797887 0.284432 0.335217 -0.740880
H10   H     H_    0.781542 0.217455 0.262607 0.344252
C24   C     C_2   0.622464 0.154116 0.836255 0.938402
O11   O     O_2   0.704741 0.202015 0.769405 -0.529988
O12   O     O_R   0.619599 0.167869 0.981707 -0.689803
H11   H     H_    0.689566 0.220617 0.018916 0.339788
C25   C     C_2   0.832549 0.527907 0.872653 0.952749
O13   O     O_2   0.920299 0.597148 0.860398 -0.547574
O14   O     O_R   0.844603 0.402805 0.841311 -0.701142
H12   H     H_    0.929809 0.381010 0.807701 0.344704
C26   C     C_2   0.097626 0.591882 0.274010 0.892016
O15   O     O_2   0.047343 0.582287 0.160057 -0.559994
O16   O     O_R   0.183226 0.686182 0.297862 -0.754392
H13   H     H_    0.198609 0.737202 0.211778 0.338524
Br1   Br    Br    0.380918 0.129364 0.214465 -0.382794
C27   C     C_2   0.657472 0.896911 0.837037 0.859101
O17   O     O_2   0.748839 0.869768 0.769702 -0.560086
O18   O     O_R   0.660175 0.894795 0.982989 -0.737769
H14   H     H_    0.743486 0.871553 0.020753 0.345461
C28   C     C_2   0.394160 0.116297 0.797292 0.886188
O19   O     O_2   0.375467 0.204318 0.875256 -0.537527
O20   O     O_R   0.295085 0.052171 0.737775 -0.750371
H15   H     H_    0.213256 0.087085 0.767734 0.355577

loop_
_geom_bond_atom_site_label_1
_geom_bond_atom_site_label_2
_geom_bond_distance
_ccdc_geom_bond_type
C5    C6    1.344129 D    
C5    C7    1.462920 S    
C11   C12   1.397223 A    
C12   H3    1.083695 S    
N2    C20   1.373112 A    
C26   O16   1.399500 S    
O4    Cu2   1.957086 S    
C17   N1    1.360189 A    
C8    H2    1.088707 S    
C17   C20   1.413414 A    
C7    C26   1.491079 S    
Cu2   O8    1.956287 S    
C15   C27   1.511038 S    
C27   O17   1.224355 D    
C24   O12   1.397764 S    
C18   H5    1.077484 S    
C9    C14   1.373704 A    
Cu1   Cu2   2.691755 S    
C21   H7    1.101135 S    
O1    C1    1.299484 A    
O1    Cu1   1.969666 S    
C9    C10   1.393217 A    
C23   O9    1.223160 D    
Cu1   O7    1.957085 S    
C2    C8    1.446380 S    
C13   C14   1.395646 A    
O4    C2    1.293141 A    
O3    Cu1   1.956287 S    
C16   C28   1.520389 S    
C17   C22   1.485178 S    
C15   H4    1.112637 S    
C24   O11   1.222721 D    
C18   C19   1.416374 A    
O8    C4    1.291047 A    
C5    C23   1.493512 S    
O12   H11   1.013601 S    
O2    C1    1.292706 A    
C10   C11   1.416386 A    
Cu1   N2    2.021985 S    
C11   Br1   1.922519 S    
Cu2   O6    1.969665 S    
O7    C4    1.294448 A    
C4    C6    1.441622 S    
C3    C13   1.448878 S    
C6    H1    1.087212 S    
C26   O15   1.222680 D    
C16   C24   1.521820 S    
O20   H15   1.013781 S    
Cu2   N1    2.022801 S    
Cu1   O5    1.976160 S    
C21   C22   1.516086 S    
C20   C21   1.501188 S    
C25   O13   1.222326 D    
O3    C2    1.294918 A    
C28   O19   1.223073 D    
O10   H10   1.013664 S    
C14   C15   1.505525 S    
C27   O18   1.397219 S    
C7    C8    1.345000 D    
O5    C3    1.297930 A    
O14   H12   1.013866 S    
C15   C16   1.546720 S    
C1    C10   1.450631 S    
C23   O10   1.399433 S    
C21   C25   1.506504 S    
C19   N2    1.369094 A    
O16   H13   1.013946 S    
O18   H14   1.013751 S    
C9    C16   1.502294 S    
O6    C3    1.292824 A    
C22   H9    1.111127 S    
O2    Cu2   1.976160 S    
C12   C13   1.407747 A    
N1    C18   1.369034 A    
C25   O14   1.396103 S    
C22   H8    1.109946 S    
C28   O20   1.399400 S    
C19   H6    1.078984 S    
