data_mof_unit_17502.cif
_audit_creation_date              2012-12-10T17:48:52-0500
_audit_creation_method            fapswitch 2.2
_symmetry_space_group_name_H-M    P1
_symmetry_Int_Tables_number       1
_space_group_crystal_system       triclinic
_cell_length_a                    10.717229
_cell_length_b                    14.749264
_cell_length_c                    14.688014
_cell_angle_alpha                 64.949738
_cell_angle_beta                  104.378551
_cell_angle_gamma                 103.091505
_cell_volume                      2017.89773227

loop_
_atom_site_label
_atom_site_type_symbol
_atom_type_description
_atom_site_fract_x
_atom_site_fract_y
_atom_site_fract_z
_atom_type_partial_charge
C1    C     C_R   0.484637 0.119014 0.311493 0.796371
C2    C     C_3   0.877726 0.006170 0.492409 0.035387
C3    C     C_3   0.952913 0.966329 0.603486 -0.354194
C4    C     C_3   0.942086 0.115102 0.428579 -0.148431
C5    C     C_R   0.481022 0.183948 0.201190 -0.149586
C6    C     C_R   0.537197 0.812950 0.798072 -0.150152
C7    C     C_R   0.398671 0.217399 0.021759 -0.179168
C8    C     C_R   0.427535 0.147823 0.121955 -0.007393
C9    C     C_R   0.526554 0.287031 0.174381 -0.251991
C10   C     C_R   0.501776 0.357606 0.073068 0.086896
C11   C     C_R   0.429341 0.321304 0.998044 0.108147
C12   C     C_R   0.259715 0.001859 0.496953 0.771687
C13   C     C_R   0.538304 0.463437 0.045943 0.049982
C14   C     C_R   0.486720 0.531994 0.947463 0.015148
C15   C     C_R   0.396808 0.491650 0.879264 -0.028090
C16   C     C_R   0.380408 0.388321 0.901756 -0.209230
C17   C     C_R   0.623448 0.502850 0.114967 -0.119959
C18   C     C_R   0.642956 0.605249 0.094719 -0.127443
C19   C     C_R   0.594207 0.673243 0.999141 0.122621
C20   C     C_R   0.526870 0.637740 0.922290 0.108752
C21   C     C_R   0.618174 0.776960 0.977937 -0.198168
C22   C     C_R   0.583146 0.847406 0.878960 -0.023316
C23   C     C_R   0.521262 0.880494 0.688526 0.812416
C24   C     C_R   0.512422 0.708730 0.821619 -0.179937
C25   C     C_R   0.740838 0.288176 0.657750 -0.104778
C26   C     C_R   0.697563 0.207215 0.627051 0.073109
C27   C     C_R   0.512374 0.281395 0.520853 0.104093
C28   C     C_R   0.557611 0.371865 0.539023 -0.010478
C29   C     C_R   0.663447 0.368045 0.619770 0.013120
C30   C     C_R   0.499652 0.463717 0.481018 0.005237
C31   C     C_R   0.529754 0.543419 0.518359 -0.000753
C32   C     C_R   0.630921 0.532771 0.606254 -0.082019
C33   C     C_R   0.688388 0.442914 0.660253 -0.061447
C34   C     C_R   0.739331 0.003075 0.495259 0.748797
C35   C     C_R   0.422236 0.481808 0.381936 -0.094343
C36   C     C_R   0.354126 0.565766 0.330726 -0.069933
C37   C     C_R   0.371312 0.639280 0.371655 0.061596
C38   C     C_R   0.459095 0.630306 0.464540 -0.002635
C39   C     C_R   0.306063 0.725322 0.317609 -0.252762
C40   C     C_R   0.330953 0.802883 0.351760 0.120979
C41   C     C_R   0.469556 0.709598 0.498732 0.069658
C42   C     C_3   0.031622 0.930566 0.446602 -0.364792
C43   C     C_3   0.888652 0.935919 0.440981 -0.368390
C44   C     C_3   0.098058 0.971930 0.603669 -0.326928
C45   C     C_3   0.085711 0.112065 0.427863 -0.402091
C46   C     C_3   0.121576 0.004035 0.493700 0.089298
Cu1   Cu    Cu3+1 0.465900 0.918260 0.475680 0.978839
Cu2   Cu    Cu3+1 0.534100 0.081740 0.524320 1.003045
H1    H     H_    0.051996 0.851632 0.493957 0.211575
H2    H     H_    0.156239 0.027163 0.636552 0.216468
H3    H     H_    0.941208 0.009610 0.646311 0.211420
H4    H     H_    0.677094 0.456050 0.185575 0.197874
H5    H     H_    0.839360 0.964139 0.359827 0.186510
H6    H     H_    0.238964 0.735720 0.246665 0.157409
H7    H     H_    0.099273 0.134569 0.348014 0.159794
N1    N     N_R   0.585360 0.204570 0.560800 -0.185757
N2    N     N_R   0.414550 0.795430 0.439160 -0.190998
O1    O     O_R   0.455060 0.022100 0.338110 -0.567964
O2    O     O_R   0.512640 0.160150 0.379180 -0.558636
O3    O     O_R   0.288900 0.930980 0.479450 -0.591351
O4    O     O_R   0.346480 0.069030 0.520520 -0.580830
O5    O     O_R   0.487360 0.839850 0.620820 -0.591375
O6    O     O_R   0.544940 0.977900 0.661890 -0.555090
O7    O     O_R   0.653520 0.930970 0.479480 -0.562721
O8    O     O_R   0.711100 0.069020 0.520550 -0.588302
C47   C     C_2   0.934540 0.196909 0.463188 0.891382
O9    O     O_2   0.869138 0.264478 0.407266 -0.568899
O10   O     O_R   0.003716 0.196522 0.557537 -0.766993
H8    H     H_    0.991470 0.255732 0.570842 0.345526
H9    H     H_    0.316695 0.358572 0.847724 0.178205
H10   H     H_    0.487606 0.682894 0.760072 0.179378
C48   C     C_2   0.597733 0.954542 0.864912 0.869173
O11   O     O_2   0.507336 0.003467 0.818616 -0.564836
O12   O     O_R   0.712539 0.997873 0.909773 -0.735812
H11   H     H_    0.710201 0.070867 0.896309 0.364441
H12   H     H_    0.702443 0.631769 0.152352 0.164415
H13   H     H_    0.350359 0.190337 0.961893 0.181899
C49   C     C_2   0.402692 0.039725 0.138109 0.849965
O13   O     O_2   0.488243 0.986159 0.185716 -0.574475
O14   O     O_R   0.284420 0.000849 0.092718 -0.755440
H14   H     H_    0.280270 0.926918 0.106465 0.332357
H15   H     H_    0.574889 0.310929 0.235353 0.219476
H16   H     H_    0.049893 0.950229 0.368583 0.175630
C50   C     C_2   0.302623 0.549572 0.792386 0.831270
O15   O     O_2   0.247698 0.608932 0.801164 -0.560018
O16   O     O_R   0.273844 0.533804 0.701520 -0.765556
H17   H     H_    0.208146 0.577357 0.648082 0.354373
H18   H     H_    0.662830 0.802944 0.039083 0.174861
C51   C     C_2   0.761204 0.421240 0.766433 0.908565
O17   O     O_2   0.856404 0.478999 0.784170 -0.520580
O18   O     O_R   0.720971 0.332661 0.845748 -0.758347
H19   H     H_    0.777564 0.325330 0.914307 0.345778
H20   H     H_    0.517788 0.705201 0.572817 0.144704
H21   H     H_    0.284692 0.870155 0.307700 0.135902
C52   C     C_2   0.272269 0.580720 0.228816 0.891894
O19   O     O_2   0.153767 0.568480 0.219504 -0.557924
O20   O     O_R   0.331537 0.608144 0.144381 -0.748105
H22   H     H_    0.266101 0.615371 0.079483 0.352585
C53   C     C_2   0.874962 0.292701 0.716426 0.821461
O21   O     O_2   0.912303 0.216490 0.786031 -0.566742
O22   O     O_R   0.960606 0.383037 0.688789 -0.726206
H23   H     H_    0.049550 0.376282 0.733622 0.357359
H24   H     H_    0.754855 0.146048 0.654978 0.158318
H25   H     H_    0.418851 0.270842 0.475203 0.123143
C54   C     C_2   0.697460 0.618564 0.634737 0.845461
O23   O     O_2   0.766151 0.686419 0.578912 -0.607362
O24   O     O_R   0.684689 0.620426 0.726390 -0.765498
H26   H     H_    0.735764 0.682927 0.737309 0.333779
C55   C     C_2   0.430391 0.424796 0.321757 0.833699
O25   O     O_2   0.537134 0.414699 0.315020 -0.612533
O26   O     O_R   0.317282 0.381611 0.274826 -0.750939
H27   H     H_    0.336241 0.344137 0.236859 0.334197
H28   H     H_    0.839949 0.858624 0.478995 0.253011
H29   H     H_    0.130059 0.896857 0.653396 0.176720
H30   H     H_    0.912244 0.886389 0.644728 0.175732
H31   H     H_    0.153334 0.167491 0.456424 0.203317
H32   H     H_    0.889055 0.136658 0.348379 0.123500

loop_
_geom_bond_atom_site_label_1
_geom_bond_atom_site_label_2
_ccdc_geom_bond_type
C47   O10   S    
O22   H23   S    
C52   O19   D    
C45   H31   S    
C27   N1    A    
Cu1   O5    S    
O20   H22   S    
C7    C8    A    
C45   C46   S    
C7    C11   A    
C54   O24   S    
C30   C35   A    
C1    C5    S    
C28   C29   A    
C19   C21   A    
C50   O16   S    
C1    O2    A    
C30   C31   A    
C49   O14   S    
C39   H6    S    
C15   C16   A    
C6    C22   A    
C29   C33   A    
C27   H25   S    
C34   O8    A    
C18   C19   A    
C42   C46   S    
Cu1   O3    S    
C25   C53   S    
C23   O5    A    
C41   H20   S    
C20   C24   A    
C44   C46   S    
O10   H8    S    
O24   H26   S    
Cu2   O8    S    
C51   O18   S    
C9    C10   A    
C35   C55   S    
C9    H15   S    
C7    H13   S    
C2    C34   S    
C23   O6    A    
C47   O9    D    
C21   H18   S    
C44   H29   S    
C21   C22   A    
C8    C49   S    
C1    O1    A    
C17   H4    S    
C22   C48   S    
C43   H5    S    
C4    C45   S    
C25   C29   A    
C3    C44   S    
O12   H11   S    
C14   C20   A    
C16   H9    S    
C50   O15   D    
C38   C41   A    
C12   C46   S    
Cu1   O7    S    
C3    H3    S    
C49   O13   D    
O14   H14   S    
Cu2   O6    S    
C25   C26   A    
C35   C36   A    
C2    C4    S    
C5    C9    A    
C37   C38   A    
C33   C51   S    
C26   H24   S    
Cu1   N2    S    
C11   C16   A    
Cu1   Cu2   S    
C2    C43   S    
C6    C24   A    
C34   O7    A    
C17   C18   A    
C48   O12   S    
C53   O22   S    
C32   C54   S    
C4    H32   S    
C42   C43   S    
C39   C40   A    
Cu2   O2    S    
C44   H2    S    
Cu2   N1    S    
C36   C37   A    
C18   H12   S    
C40   N2    A    
O26   H27   S    
O16   H17   S    
C31   C32   A    
C42   H16   S    
C40   H21   S    
C48   O11   D    
C10   C13   A    
C26   N1    A    
C5    C8    A    
C52   O20   S    
C15   C50   S    
C54   O23   D    
C31   C38   A    
C13   C17   A    
C32   C33   A    
C19   C20   A    
C55   O26   S    
C2    C3    S    
C41   N2    A    
C37   C39   A    
C3    H30   S    
C53   O21   D    
C43   H28   S    
Cu1   O1    S    
C4    C47   S    
C12   O4    A    
C36   C52   S    
Cu2   O4    S    
C6    C23   S    
C28   C30   A    
C10   C11   A    
C42   H1    S    
C12   O3    A    
C45   H7    S    
C55   O25   D    
C27   C28   A    
C14   C15   A    
C51   O17   D    
C13   C14   A    
O18   H19   S    
C24   H10   S    
