data_mof_unit_10326.cif
_audit_creation_date              2012-12-10T17:28:36-0500
_audit_creation_method            fapswitch 2.2
_symmetry_space_group_name_H-M    P1
_symmetry_Int_Tables_number       1
_space_group_crystal_system       triclinic
_cell_length_a                    10.626227
_cell_length_b                    12.077871
_cell_length_c                    12.815394
_cell_angle_alpha                 94.113553
_cell_angle_beta                  90.897464
_cell_angle_gamma                 87.174906
_cell_volume                      1638.40346921

loop_
_atom_site_label
_atom_site_type_symbol
_atom_type_description
_atom_site_fract_x
_atom_site_fract_y
_atom_site_fract_z
_atom_type_partial_charge
C1    C     C_R   0.499700 0.522569 0.700283 0.845180
C2    C     C_R   0.451243 0.549562 0.131958 -0.279520
C3    C     C_R   0.532751 0.453655 0.974492 0.177093
C4    C     C_R   0.467249 0.546345 0.025508 0.177093
C5    C     C_R   0.399050 0.947967 0.389443 -0.270626
C6    C     C_R   0.600950 0.052033 0.610557 -0.270626
C7    C     C_R   0.407357 0.833825 0.401513 0.000445
C8    C     C_R   0.592643 0.166175 0.598487 0.000445
C9    C     C_R   0.538566 0.861337 0.552158 0.071786
C10   C     C_R   0.461434 0.138662 0.447842 0.071786
C11   C     C_R   0.534997 0.978144 0.541709 0.054615
C12   C     C_R   0.500300 0.477431 0.299716 0.845180
C13   C     C_R   0.465003 0.021856 0.458291 0.054615
C14   C     C_R   0.738801 0.500884 0.499820 0.869388
C15   C     C_R   0.261199 0.499116 0.500180 0.869388
C16   C     C_R   0.871388 0.520136 0.693602 -0.159955
C17   C     C_R   0.128612 0.479864 0.306398 -0.159955
C18   C     C_R   0.938060 0.526950 0.788194 -0.130732
C19   C     C_R   0.061940 0.473049 0.211806 -0.130732
C20   C     C_R   0.069006 0.523932 0.788364 -0.138184
C21   C     C_R   0.930994 0.476067 0.211636 -0.138185
C22   C     C_R   0.133317 0.514073 0.693935 -0.139373
C23   C     C_R   0.502646 0.463153 0.188051 -0.056425
C24   C     C_R   0.866683 0.485926 0.306065 -0.139373
C25   C     C_R   0.066935 0.506922 0.596992 0.073710
C26   C     C_R   0.933064 0.493077 0.403008 0.073710
C27   C     C_R   0.935445 0.509897 0.596829 0.062777
C28   C     C_R   0.064555 0.490103 0.403171 0.062777
C29   C     C_R   0.128846 0.497299 0.500154 -0.183725
C30   C     C_R   0.871154 0.502701 0.499846 -0.183725
C31   C     C_2   0.392669 0.187226 0.359755 0.409049
C32   C     C_2   0.607332 0.812773 0.640244 0.409050
C33   C     C_R   0.497354 0.536847 0.811949 -0.056425
C34   C     C_R   0.420096 0.634887 0.969544 -0.218967
C35   C     C_R   0.579903 0.365113 0.030456 -0.218967
C36   C     C_R   0.435247 0.630143 0.862220 -0.159734
C37   C     C_R   0.564752 0.369857 0.137779 -0.159734
C38   C     C_R   0.548756 0.450438 0.868042 -0.279520
H1    H     H_    0.879022 0.470717 0.138237 0.140444
H2    H     H_    0.764974 0.488031 0.302267 0.128803
H3    H     H_    0.401433 0.620767 0.171591 0.153532
H4    H     H_    0.598567 0.379233 0.828409 0.153532
H5    H     H_    0.605260 0.303175 0.181681 0.189850
H6    H     H_    0.394740 0.696825 0.818319 0.189850
H7    H     H_    0.370254 0.706361 0.008376 0.152053
H8    H     H_    0.629745 0.293639 0.991624 0.152053
H9    H     H_    0.642233 0.221999 0.652646 0.140073
H10   H     H_    0.357767 0.778001 0.347354 0.140073
H11   H     H_    0.322865 0.254478 0.373855 0.102911
H12   H     H_    0.120978 0.529281 0.861763 0.140443
H13   H     H_    0.677136 0.745523 0.626145 0.102911
H14   H     H_    0.340504 0.976894 0.326277 0.188646
H15   H     H_    0.659496 0.023106 0.673723 0.188645
H16   H     H_    0.769689 0.523236 0.697145 0.121260
H17   H     H_    0.230311 0.476764 0.302855 0.121260
H18   H     H_    0.887930 0.534658 0.861463 0.140981
H19   H     H_    0.112070 0.465341 0.138537 0.140980
H20   H     H_    0.235026 0.511967 0.697733 0.128803
N1    N     N_R   0.523130 0.207800 0.519340 -0.136684
N2    N     N_R   0.476870 0.792200 0.480660 -0.136684
O1    O     O_R   0.506170 0.421700 0.658830 -0.624937
O2    O     O_2   0.584292 0.846332 0.730387 -0.590256
O3    O     O_R   0.493830 0.578300 0.341170 -0.624937
O4    O     O_R   0.491330 0.609310 0.646410 -0.622383
O5    O     O_R   0.508670 0.390690 0.353590 -0.622383
O6    O     O_R   0.690650 0.406190 0.506220 -0.609609
O7    O     O_R   0.309350 0.593810 0.493780 -0.609609
O8    O     O_R   0.675800 0.593810 0.493800 -0.643065
O9    O     O_R   0.324200 0.406190 0.506200 -0.643065
O10   O     O_2   0.415709 0.153667 0.269612 -0.590256
Zn1   Zn    Zn3+2 0.509910 0.374730 0.508290 0.941579
Zn2   Zn    Zn3+2 0.490090 0.625270 0.491710 0.941580

loop_
_geom_bond_atom_site_label_1
_geom_bond_atom_site_label_2
_ccdc_geom_bond_type
C22   H20   S    
C2    C4    A    
C1    O4    A    
C32   H13   S    
C37   H5    S    
C18   H18   S    
C25   C27   A    
C4    C34   A    
C11   C13   A    
C12   O5    A    
C17   H17   S    
C5    C13   A    
C33   C38   A    
C21   H1    S    
C3    C35   A    
O8    Zn2   S    
C9    N2    A    
C15   O7    A    
C7    H10   S    
O1    Zn1   S    
C16   C27   A    
C10   N1    A    
C14   O6    A    
C8    H9    S    
C1    C33   S    
C10   C13   A    
C5    H14   S    
C34   H7    S    
C23   C37   A    
C19   H19   S    
C27   C30   A    
C9    C11   A    
C12   C23   S    
C31   H11   S    
C6    C8    A    
C28   C29   A    
C17   C19   A    
C24   C26   A    
C15   C29   S    
C34   C36   A    
O4    Zn2   S    
C8    N1    A    
C25   C29   A    
C15   O9    A    
C16   H16   S    
C36   H6    S    
N2    Zn2   S    
C6    H15   S    
C32   O2    D    
C3    C4    A    
C38   H4    S    
C7    N2    A    
C6    C11   A    
C33   C36   A    
C1    O1    A    
O3    Zn2   S    
C35   C37   A    
C18   C20   A    
C16   C18   A    
O7    Zn2   S    
C21   C24   A    
N1    Zn1   S    
C2    C23   A    
O9    Zn1   S    
C12   O3    A    
C14   O8    A    
C5    C7    A    
C20   H12   S    
C2    H3    S    
C9    C32   S    
C24   H2    S    
O5    Zn1   S    
C17   C28   A    
C26   C28   A    
C10   C31   S    
C22   C25   A    
C31   O10   D    
C14   C30   S    
O6    Zn1   S    
C3    C38   A    
C20   C22   A    
C19   C21   A    
C26   C30   A    
C35   H8    S    
