data_mof_unit_18960.cif
_audit_creation_date              2013-03-05T16:37:43-0500
_audit_creation_method            fapswitch 2.2
_symmetry_space_group_name_H-M    P1
_symmetry_Int_Tables_number       1
_space_group_crystal_system       triclinic
_cell_length_a                    18.573296
_cell_length_b                    18.74608
_cell_length_c                    19.189402
_cell_angle_alpha                 110.333745
_cell_angle_beta                  109.778545
_cell_angle_gamma                 109.188919
_cell_volume                      5085.77006852

loop_
_atom_site_label
_atom_site_type_symbol
_atom_site_description
_atom_site_fract_x
_atom_site_fract_y
_atom_site_fract_z
_atom_type_partial_charge
O1    O     O_R   0.408360 0.551710 0.460090 -0.647940
O2    O     O_R   0.408390 0.448280 0.356670 -0.574243
C1    C     C_R   0.381419 0.502560 0.380769 0.904987
O3    O     O_R   0.591600 0.643340 0.551710 -0.604017
O4    O     O_R   0.591630 0.539900 0.448290 -0.572944
C2    C     C_R   0.622479 0.621541 0.503238 0.869204
Zn1   Zn    Zn3+2 0.499980 0.569070 0.569050 1.112229
Zn2   Zn    Zn3+2 0.500020 0.430930 0.430950 1.129298
O5    O     O_R   0.591610 0.551720 0.643330 -0.590678
O6    O     O_R   0.591640 0.448290 0.539910 -0.613155
O7    O     O_R   0.408370 0.460100 0.551710 -0.579691
O8    O     O_R   0.408400 0.356660 0.448290 -0.626251
C3    C     C_R   0.620151 0.499834 0.619352 0.914935
C4    C     C_R   0.378122 0.379486 0.497733 0.889307
C5    C     C_R   0.755509 0.836640 0.790999 -0.221369
C6    C     C_R   0.728353 0.811858 0.704654 0.363268
C7    C     C_R   0.780098 0.791075 0.669901 -0.194261
C8    C     C_R   0.865192 0.808830 0.727066 0.167901
C9    C     C_R   0.894921 0.842481 0.816193 0.224054
C10   C     C_R   0.837486 0.851906 0.845879 -0.290281
C11   C     C_R   0.815604 0.832053 0.573554 -0.085983
C12   C     C_R   0.807876 0.814434 0.494536 -0.069459
C13   C     C_R   0.731409 0.741393 0.416734 0.030318
C14   C     C_R   0.667641 0.680838 0.420943 0.309923
C15   C     C_R   0.683766 0.691617 0.502135 -0.164485
C16   C     C_R   0.756834 0.770207 0.579885 0.104387
C17   C     C_R   0.677084 0.763581 0.291411 0.228274
C18   C     C_R   0.665188 0.748941 0.209869 0.223560
C19   C     C_R   0.688718 0.692038 0.166485 -0.165965
C20   C     C_R   0.724039 0.650326 0.202812 -0.182160
H1    H     H_    0.738970 0.604719 0.166290 0.253406
C21   C     C_R   0.739721 0.666157 0.284883 0.284979
C22   C     C_R   0.718810 0.725817 0.331085 -0.156409
H2    H     H_    0.493764 0.902643 0.611545 0.192741
C23   C     C_R   0.402349 0.765267 0.551141 -0.087400
C24   C     C_R   0.357657 0.681386 0.478314 -0.033092
C25   C     C_R   0.371874 0.668878 0.408804 0.036290
C26   C     C_R   0.430162 0.742344 0.412401 -0.145748
C27   C     C_R   0.474884 0.827479 0.485338 0.405828
C28   C     C_R   0.460685 0.838001 0.554837 -0.082175
C29   C     C_R   0.251378 0.577571 0.257629 -0.135814
C30   C     C_R   0.187717 0.496693 0.181612 -0.040606
C31   C     C_R   0.186522 0.418162 0.172573 0.063512
C32   C     C_R   0.250771 0.423327 0.240319 -0.176577
H3    H     H_    0.250356 0.363265 0.233816 0.162674
C33   C     C_R   0.314691 0.503985 0.316260 -0.062143
C34   C     C_R   0.313881 0.582292 0.326844 0.043459
C35   C     C_R   0.035266 0.288150 0.083018 -0.189618
C36   C     C_R   0.974400 0.199625 0.019977 -0.043317
C37   C     C_R   0.997302 0.150551 0.967696 -0.046250
C38   C     C_R   0.081906 0.189378 0.979448 -0.186350
C39   C     C_R   0.145391 0.278164 0.044069 0.327965
C40   C     C_R   0.120399 0.329140 0.095045 -0.022245
C41   C     C_R   0.221078 0.522146 0.540530 -0.287724
C42   C     C_R   0.245888 0.462370 0.552680 0.309382
C43   C     C_R   0.214879 0.381380 0.479295 -0.026765
C44   C     C_R   0.160431 0.362445 0.396303 -0.276792
C45   C     C_R   0.134546 0.421571 0.385539 -0.185909
C46   C     C_R   0.163611 0.501218 0.457653 0.308898
C47   C     C_R   0.171889 0.247236 0.487322 -0.146458
C48   C     C_R   0.188872 0.184051 0.499871 -0.075140
C49   C     C_R   0.268273 0.184872 0.510998 0.044152
C50   C     C_R   0.327747 0.247922 0.505978 -0.110546
C51   C     C_R   0.311547 0.312348 0.496104 -0.053453
C52   C     C_R   0.233824 0.313129 0.487617 0.054938
C53   C     C_R   0.353125 0.153031 0.615631 -0.168353
C54   C     C_R   0.387336 0.101230 0.634641 0.272404
C55   C     C_R   0.361366 0.019812 0.566569 -0.290442
C56   C     C_R   0.301794 0.989780 0.480536 0.285016
C57   C     C_R   0.267742 0.042283 0.462875 -0.191650
H4    H     H_    0.223366 0.021107 0.396845 0.232989
C58   C     C_R   0.293537 0.123928 0.530128 -0.007796
C59   C     C_R   0.787124 0.547643 0.631035 -0.134389
C60   C     C_R   0.862602 0.560026 0.626735 -0.074706
H5    H     H_    0.873267 0.577601 0.581597 0.222797
C61   C     C_R   0.923345 0.547468 0.678401 -0.057218
H6    H     H_    0.980964 0.555109 0.672370 0.216219
C62   C     C_R   0.909994 0.521896 0.735337 0.354126
C63   C     C_R   0.831903 0.508856 0.742129 -0.054037
C64   C     C_R   0.768839 0.518720 0.685396 0.016149
C65   C     C_R   0.688033 0.499828 0.683391 -0.240065
C66   C     C_R   0.668458 0.474670 0.737948 0.181801
C67   C     C_R   0.729468 0.467045 0.795979 0.174122
C68   C     C_R   0.812502 0.487056 0.801327 -0.279610
O9    O     O_R   0.051730 0.908360 0.460070 -0.642393
O10   O     O_R   0.948280 0.908380 0.356650 -0.578314
C69   C     C_R   0.002104 0.880855 0.380624 0.906224
O11   O     O_R   0.960110 0.908350 0.551690 -0.587740
O12   O     O_R   0.856660 0.908370 0.448270 -0.603926
C70   C     C_R   0.878499 0.877489 0.496130 0.881076
Zn3   Zn    Zn3+2 0.069080 0.999960 0.569030 1.024090
Zn4   Zn    Zn3+2 0.930920 0.999990 0.430930 1.135601
O13   O     O_R   0.051720 0.091580 0.643310 -0.628294
O14   O     O_R   0.948270 0.091600 0.539890 -0.587928
O15   O     O_R   0.143340 0.091590 0.551680 -0.636424
O16   O     O_R   0.039890 0.091610 0.448270 -0.587225
C71   C     C_R   0.001099 0.121223 0.620040 0.887656
C72   C     C_R   0.121167 0.118365 0.499224 0.893135
O17   O     O_R   0.051710 0.460040 0.908380 -0.515528
O18   O     O_R   0.948270 0.356620 0.908410 -0.646530
C73   C     C_R   0.995954 0.379103 0.876749 0.919320
O19   O     O_R   0.143330 0.551680 0.091590 -0.568465
O20   O     O_R   0.039890 0.448260 0.091620 -0.625132
C74   C     C_R   0.120635 0.496615 0.116225 0.922829
Zn5   Zn    Zn3+2 0.069060 0.569020 0.999970 1.217669
Zn6   Zn    Zn3+2 0.930920 0.430910 0.000010 1.131125
O21   O     O_R   0.051700 0.643310 0.091570 -0.619476
O22   O     O_R   0.948260 0.539890 0.091600 -0.549669
O23   O     O_R   0.960080 0.551670 0.908360 -0.612303
O24   O     O_R   0.856640 0.448250 0.908390 -0.586922
C75   C     C_R   0.999006 0.620651 0.118289 0.914320
C76   C     C_R   0.879428 0.493509 0.874081 0.884510
C77   C     C_R   0.156511 0.817277 0.563852 -0.191462
H7    H     H_    0.220983 0.867645 0.620653 0.190870
C78   C     C_R   0.135811 0.816990 0.486662 -0.052333
C79   C     C_R   0.051991 0.754763 0.412282 0.129715
C80   C     C_R   0.991857 0.688362 0.414615 -0.093733
C81   C     C_R   0.012333 0.687887 0.491577 -0.063948
H8    H     H_    0.964029 0.636293 0.491640 0.206591
C82   C     C_R   0.094493 0.753278 0.567466 0.377354
C83   C     C_R   0.023989 0.690288 0.263290 0.296890
C84   C     C_R   0.002746 0.689108 0.185570 -0.176144
C85   C     C_R   0.991810 0.756147 0.174569 -0.009585
C86   C     C_R   0.995932 0.822095 0.241153 0.344502
C87   C     C_R   0.009781 0.819158 0.317041 -0.259931
C88   C     C_R   0.028959 0.755950 0.330426 -0.107494
C89   C     C_R   0.047952 0.790662 0.081758 0.217006
C90   C     C_R   0.033548 0.770879 0.998632 0.299911
C91   C     C_R   0.946602 0.722896 0.928644 -0.251719
C92   C     C_R   0.874819 0.697607 0.940988 -0.290228
C93   C     C_R   0.887452 0.711906 0.022000 0.362469
C94   C     C_R   0.975103 0.755695 0.092567 -0.143546
C95   C     C_R   0.260943 0.200868 0.843019 0.300081
C96   C     C_R   0.181154 0.201785 0.819251 -0.125342
C97   C     C_R   0.166815 0.256308 0.788095 0.023888
C98   C     C_R   0.234573 0.313419 0.784289 -0.138327
C99   C     C_R   0.316859 0.317156 0.812646 0.262838
C100  C     C_R   0.328741 0.259428 0.840185 -0.232301
C101  C     C_R   0.078639 0.320230 0.825629 0.264444
C102  C     C_R   0.995818 0.311848 0.811182 -0.136698
C103  C     C_R   0.915584 0.241553 0.733877 0.095377
C104  C     C_R   0.920325 0.179942 0.672713 -0.049065
C105  C     C_R   0.001850 0.187680 0.686710 -0.143413
C106  C     C_R   0.081720 0.256080 0.764557 -0.079944
C107  C     C_R   0.787156 0.190526 0.757958 0.339127
C108  C     C_R   0.706448 0.184051 0.748337 -0.101181
C109  C     C_R   0.661732 0.209168 0.696493 -0.133843
C110  C     C_R   0.695691 0.239826 0.651981 -0.196032
C111  C     C_R   0.775967 0.247104 0.659010 0.316110
C112  C     C_R   0.825555 0.226845 0.716786 -0.160078
H9    H     H_    0.857760 0.874877 0.913171 0.233667
H10   H     H_    0.678936 0.679226 0.103541 0.270097
N1    N     N_R   0.769884 0.615840 0.316497 0.210622
O25   O     O_R   0.756670 0.541034 0.262342 -0.318163
O26   O     O_R   0.809486 0.642765 0.398489 -0.420855
H11   H     H_    0.390817 0.774111 0.604402 0.190676
H12   H     H_    0.310656 0.626206 0.475300 0.155630
H13   H     H_    0.438875 0.733188 0.357511 0.223496
N2    N     N_R   0.532378 0.903072 0.487941 0.243582
O27   O     O_R   0.581123 0.980116 0.558674 -0.364246
O28   O     O_R   0.534038 0.896291 0.418768 -0.253311
H14   H     H_    0.249493 0.636828 0.264529 0.195536
H15   H     H_    0.715580 0.850199 0.817875 0.224276
H16   H     H_    0.017183 0.323840 0.125295 0.181774
H17   H     H_    0.909760 0.168601 0.012729 0.193578
H18   H     H_    0.949858 0.081742 0.918847 0.192090
H19   H     H_    0.098441 0.149183 0.939022 0.204874
N3    N     N_R   0.234568 0.313150 0.058916 0.220285
O29   O     O_R   0.288931 0.397586 0.099281 -0.266877
O30   O     O_R   0.261736 0.259838 0.030262 -0.325657
N4    N     N_R   0.132956 0.559706 0.447059 0.222777
O31   O     O_R   0.177759 0.642865 0.506469 -0.405616
O32   O     O_R   0.056256 0.528622 0.381245 -0.305369
H20   H     H_    0.243278 0.583549 0.596237 0.228016
N5    N     N_R   0.300739 0.484365 0.639342 0.243661
O33   O     O_R   0.292071 0.423324 0.658756 -0.339827
O34   O     O_R   0.354128 0.566529 0.701241 -0.295767
H21   H     H_    0.136416 0.300739 0.339824 0.188798
H22   H     H_    0.091353 0.404940 0.320892 0.191367
N6    N     N_R   0.652329 0.815117 0.656077 0.230919
O35   O     O_R   0.650551 0.841531 0.601468 -0.369050
O36   O     O_R   0.589262 0.801969 0.674007 -0.400937
H23   H     H_    0.111319 0.247129 0.480183 0.174716
H24   H     H_    0.388519 0.248728 0.512888 0.183751
H25   H     H_    0.373970 0.216944 0.666969 0.220161
N7    N     N_R   0.449433 0.131742 0.722345 0.221965
O37   O     O_R   0.477143 0.209002 0.785152 -0.300728
O38   O     O_R   0.480022 0.083141 0.740119 -0.361287
H26   H     H_    0.387529 0.979553 0.580552 0.213100
N8    N     N_R   0.275692 0.905968 0.411691 0.232085
O39   O     O_R   0.313216 0.861169 0.426820 -0.385569
O40   O     O_R   0.210033 0.870819 0.334473 -0.340662
N9    N     N_R   0.586365 0.458255 0.735864 0.254585
O41   O     O_R   0.586758 0.505665 0.804282 -0.202261
O42   O     O_R   0.511577 0.392441 0.667505 -0.400607
H27   H     H_    0.742981 0.560609 0.590432 0.150422
N10   N     N_R   0.924616 0.801994 0.696127 0.244624
O43   O     O_R   0.897758 0.730445 0.626782 -0.394754
O44   O     O_R   0.998050 0.872645 0.726290 -0.287620
N11   N     N_R   0.973182 0.501476 0.776765 0.196141
O45   O     O_R   0.055993 0.563882 0.827658 -0.283928
O46   O     O_R   0.955988 0.420819 0.739189 -0.403542
N12   N     N_R   0.705516 0.438593 0.849389 0.257058
O47   O     O_R   0.740686 0.494933 0.930721 -0.285033
O48   O     O_R   0.637988 0.360820 0.813807 -0.298901
N13   N     N_R   0.115414 0.753861 0.647118 0.251694
O49   O     O_R   0.191055 0.815037 0.717536 -0.269384
O50   O     O_R   0.058846 0.693549 0.650166 -0.347747
H28   H     H_    0.183985 0.867130 0.485633 0.161673
H29   H     H_    0.929451 0.636631 0.356407 0.222052
N14   N     N_R   0.045003 0.626835 0.275453 0.205018
O51   O     O_R   0.981743 0.547554 0.243079 -0.314360
O52   O     O_R   0.127020 0.650039 0.323192 -0.346369
N15   N     N_R   0.990208 0.893975 0.233452 0.231508
O53   O     O_R   0.921361 0.879034 0.169183 -0.333809
O54   O     O_R   0.053770 0.974868 0.291398 -0.380861
N16   N     N_R   0.983890 0.870636 0.877892 0.221182
O55   O     O_R   0.018680 0.926208 0.959521 -0.345381
O56   O     O_R   0.030304 0.840050 0.854083 -0.244236
N17   N     N_R   0.136416 0.842623 0.154637 0.254559
O57   O     O_R   0.162837 0.921288 0.213959 -0.291508
O58   O     O_R   0.193713 0.816884 0.156060 -0.270373
N18   N     N_R   0.106525 0.798584 0.984548 0.260018
O59   O     O_R   0.175533 0.877516 0.038024 -0.214099
O60   O     O_R   0.101138 0.747493 0.914311 -0.270748
H30   H     H_    0.934164 0.706703 0.864295 0.207408
H31   H     H_    0.808595 0.663544 0.885977 0.204630
N19   N     N_R   0.810959 0.682378 0.031125 0.255862
O61   O     O_R   0.811030 0.657366 0.086369 -0.407118
O62   O     O_R   0.738054 0.674445 0.979530 -0.292734
H32   H     H_    0.391680 0.261608 0.861430 0.253215
N20   N     N_R   0.273330 0.141360 0.870599 0.247388
O63   O     O_R   0.347995 0.141751 0.894550 -0.272313
O64   O     O_R   0.209363 0.084810 0.870163 -0.289841
H33   H     H_    0.128901 0.158705 0.823046 0.176471
H34   H     H_    0.223816 0.356195 0.761137 0.220891
N21   N     N_R   0.389140 0.381358 0.816439 0.242883
O65   O     O_R   0.390648 0.452757 0.821017 -0.216968
O66   O     O_R   0.458281 0.373707 0.824773 -0.261753
H35   H     H_    0.870855 0.893449 0.631746 0.170935
N22   N     N_R   0.159589 0.392356 0.903972 0.225139
O67   O     O_R   0.218493 0.450288 0.900754 -0.282176
O68   O     O_R   0.168363 0.407743 0.978634 -0.390234
H36   H     H_    0.859475 0.124308 0.614164 0.195064
N23   N     N_R   0.827659 0.158163 0.808158 0.222531
O69   O     O_R   0.807288 0.150542 0.864735 -0.404625
O70   O     O_R   0.872911 0.122977 0.788352 -0.413170
H37   H     H_    0.676638 0.157425 0.779735 0.220480
H38   H     H_    0.599002 0.202575 0.688870 0.217444
H39   H     H_    0.657640 0.256162 0.609938 0.202855
N24   N     N_R   0.803481 0.273488 0.605787 0.256549
O71   O     O_R   0.849598 0.246357 0.577817 -0.328580
O72   O     O_R   0.773745 0.317174 0.576636 -0.363432
N25   N     N_R   0.585048 0.610682 0.343430 0.216207
O73   O     O_R   0.511439 0.608881 0.333074 -0.378490
O74   O     O_R   0.582734 0.547158 0.284690 -0.282199
N26   N     N_R   0.638408 0.808452 0.328992 0.251056
O75   O     O_R   0.555615 0.783982 0.282653 -0.257890
O76   O     O_R   0.683886 0.871167 0.409726 -0.318887
N27   N     N_R   0.630402 0.792287 0.171063 0.252074
O77   O     O_R   0.647313 0.871349 0.219116 -0.275350
O78   O     O_R   0.590583 0.757398 0.087557 -0.261836

loop_
_geom_bond_atom_site_label_1
_geom_bond_atom_site_label_2
_geom_bond_distance
_ccdc_geom_bond_type
C111  N24   1.444642 S    
C42   C43   1.417849 A    
N8    O39   1.300978 A    
C95   C96   1.403295 A    
C3    C65   1.432255 S    
C85   C94   1.493671 S    
C59   C60   1.379729 A    
C38   H19   1.082128 S    
C48   C72   1.434779 S    
C11   C16   1.380630 A    
C90   C91   1.399432 A    
N19   O62   1.301487 A    
C65   C66   1.392348 A    
O9    Zn3   2.027128 S    
O15   C72   1.281111 A    
C97   C98   1.402202 A    
N5    O34   1.301501 A    
C86   N15   1.439013 S    
C17   C22   1.420309 A    
Zn1   O7    2.009549 S    
N12   O48   1.300543 A    
C49   C50   1.385411 A    
C60   C61   1.375142 A    
C109  H38   1.082403 S    
H2    C28   1.082473 S    
C7    C16   1.495869 S    
C5    H15   1.082710 S    
C24   C25   1.401983 A    
C25   C26   1.405959 A    
C61   C62   1.397920 A    
C77   H7    1.082436 S    
O2    C1    1.290358 A    
C56   C57   1.406953 A    
N2    O27   1.301651 A    
O4    C2    1.294428 A    
O7    C4    1.277665 A    
N15   O54   1.300992 A    
N24   O72   1.302020 A    
C2    C15   1.440307 S    
C6    C7    1.421100 A    
C6    N6    1.439427 S    
C43   C52   1.478587 S    
C108  H37   1.082516 S    
Zn4   O16   2.004701 S    
C79   C80   1.399124 A    
O19   Zn5   2.037192 S    
N22   O67   1.300562 A    
C29   C30   1.393502 A    
N10   O44   1.301871 A    
O5    C3    1.277407 A    
C81   H8    1.082365 S    
N17   O57   1.300333 A    
C66   N9    1.436266 S    
N25   O74   1.300456 A    
O20   C74   1.274141 A    
O24   C76   1.293506 A    
C89   C94   1.415907 A    
C103  C104  1.383485 A    
C93   N19   1.440240 S    
C31   C40   1.482333 S    
C53   C58   1.402368 A    
C109  C110  1.387515 A    
C32   C33   1.391785 A    
C55   C56   1.405374 A    
N9    O42   1.299195 A    
O16   C72   1.284120 A    
C91   H30   1.081959 S    
C89   N17   1.431909 S    
C96   H33   1.083004 S    
N2    O28   1.300812 A    
C57   H4    1.082115 S    
C9    N16   1.441956 S    
N13   O49   1.301527 A    
N1    O26   1.300821 A    
C80   H29   1.078724 S    
N16   O56   1.300040 A    
C107  C112  1.425599 A    
C25   C34   1.482715 S    
C54   N7    1.439969 S    
C47   H23   1.085537 S    
O18   Zn6   2.027337 S    
C53   C54   1.405248 A    
C95   C100  1.404569 A    
N1    O25   1.301933 A    
C79   C88   1.492181 S    
C11   C12   1.379255 A    
C75   C84   1.431007 S    
C63   C68   1.445728 A    
N10   O43   1.299647 A    
C62   N11   1.425223 S    
C8    N10   1.438971 S    
O3    Zn1   2.023016 S    
C46   N4    1.433387 S    
C90   N18   1.436201 S    
N20   O64   1.301754 A    
N19   O61   1.299439 A    
C73   C102  1.437322 S    
N6    O36   1.301192 A    
C103  C112  1.497507 S    
C107  C108  1.404773 A    
C81   C82   1.406326 A    
C41   C46   1.401678 A    
O9    C69   1.276664 A    
C12   C70   1.430811 S    
C5    C10   1.388575 A    
C17   N26   1.438693 S    
C104  C105  1.392557 A    
C60   H5    1.081469 S    
C78   H28   1.075380 S    
C54   C55   1.404472 A    
N3    O29   1.301101 A    
C85   C86   1.393032 A    
C26   C27   1.409014 A    
C14   C15   1.408396 A    
C26   H13   1.083088 S    
N18   O59   1.301206 A    
N27   O78   1.301588 A    
O23   C76   1.275312 A    
N22   O68   1.298564 A    
C27   C28   1.405860 A    
N23   O69   1.300975 A    
N15   O53   1.300681 A    
C8    C9    1.417755 A    
O14   C71   1.289805 A    
C13   C22   1.484115 S    
C15   C16   1.423374 A    
C50   C51   1.394420 A    
C66   C67   1.381170 A    
C38   C39   1.408610 A    
C47   C48   1.397450 A    
O1    C1    1.273956 A    
C23   C24   1.394393 A    
O19   C74   1.286331 A    
C31   C32   1.382061 A    
N14   O51   1.300657 A    
C37   H18   1.082816 S    
C19   C20   1.390795 A    
Zn3   O13   2.014759 S    
C77   C82   1.405138 A    
Zn5   O21   2.027463 S    
C101  C106  1.390695 A    
C67   C68   1.419688 A    
O11   Zn3   2.004614 S    
C29   H14   1.085898 S    
C20   H1    1.081661 S    
Zn2   O8    2.023016 S    
C4    C51   1.427393 S    
C11   H35   1.086065 S    
N26   O75   1.301222 A    
Zn4   O14   2.027209 S    
C7    C8    1.427986 A    
C29   C34   1.388110 A    
C44   C45   1.394459 A    
C49   C58   1.478994 S    
C37   C38   1.394308 A    
O22   C75   1.280287 A    
C68   C76   1.455395 S    
C39   C40   1.426446 A    
C102  C103  1.418537 A    
O12   Zn4   2.028169 S    
C14   N25   1.437126 S    
N4    O31   1.300926 A    
C42   N5    1.440207 S    
C83   C84   1.397675 A    
C45   H22   1.083049 S    
C108  C109  1.387296 A    
C53   H25   1.082835 S    
C24   H12   1.079845 S    
C67   N12   1.437119 S    
C97   C106  1.487647 S    
N14   O52   1.300767 A    
O8    C4    1.279327 A    
C47   C52   1.380504 A    
C36   C37   1.392245 A    
N23   O70   1.300889 A    
C87   C88   1.422635 A    
C63   C64   1.417969 A    
C45   C46   1.401537 A    
O3    C2    1.269664 A    
C18   N27   1.439521 S    
C43   C44   1.402192 A    
N7    O38   1.301644 A    
C93   C94   1.419459 A    
O12   C70   1.270760 A    
O13   C71   1.274334 A    
C69   C87   1.446411 S    
N6    O35   1.300896 A    
O10   C69   1.292319 A    
C91   C92   1.390917 A    
Zn6   O24   2.037272 S    
Zn1   O5    2.019457 S    
Zn5   O23   2.013685 S    
C41   C42   1.403791 A    
C18   C19   1.399081 A    
N8    O40   1.298956 A    
C50   H24   1.085328 S    
C1    C33   1.440667 S    
C27   N2    1.439056 S    
O1    Zn1   2.031874 S    
O21   C75   1.272344 A    
C36   H17   1.082008 S    
O2    Zn2   2.019458 S    
C32   H3    1.085979 S    
O11   C70   1.292350 A    
C64   C65   1.407637 A    
O6    C3    1.277349 A    
C30   C74   1.437436 S    
C56   N8    1.439496 S    
C92   H31   1.082358 S    
O4    Zn2   2.009549 S    
C101  C102  1.410681 A    
N18   O60   1.300959 A    
C71   C105  1.434503 S    
C89   C90   1.410119 A    
C35   H16   1.083284 S    
N24   O71   1.299309 A    
N4    O32   1.299707 A    
C99   C100  1.405210 A    
C9    C10   1.399621 A    
C96   C97   1.403174 A    
C110  H39   1.082705 S    
C10   H9    1.082832 S    
C107  N23   1.441430 S    
N17   O58   1.301200 A    
C82   N13   1.439103 S    
C21   C22   1.420277 A    
C41   H20   1.082709 S    
N25   O73   1.300340 A    
N21   O66   1.301263 A    
C23   C28   1.395588 A    
N16   O55   1.301856 A    
C95   N20   1.440157 S    
C83   C88   1.387855 A    
N5    O33   1.299939 A    
O10   Zn4   2.014632 S    
C111  C112  1.432887 A    
N27   O77   1.301433 A    
C19   H10   1.082030 S    
C20   C21   1.400390 A    
C61   H6    1.083391 S    
C62   C63   1.448266 A    
C78   C79   1.402452 A    
C44   H21   1.083531 S    
Zn6   O22   2.013798 S    
C55   H26   1.082242 S    
N11   O45   1.301783 A    
C35   C36   1.393339 A    
C5    C6    1.400350 A    
C98   H34   1.083121 S    
C51   C52   1.402507 A    
N3    O30   1.301205 A    
O18   C73   1.275881 A    
C35   C40   1.405349 A    
C59   C64   1.417498 A    
C92   C93   1.402080 A    
O20   Zn6   2.013563 S    
N13   O50   1.300874 A    
C110  C111  1.406146 A    
C83   N14   1.434636 S    
C99   N21   1.437675 S    
C48   C49   1.410805 A    
C101  N22   1.438764 S    
O17   Zn5   2.013713 S    
N21   O65   1.300753 A    
C33   C34   1.416257 A    
C13   C14   1.393756 A    
Zn3   O15   2.028426 S    
C21   N1    1.444512 S    
C104  H36   1.085711 S    
C23   H11   1.082437 S    
Zn2   O6    2.031874 S    
N9    O41   1.300753 A    
C30   C31   1.412882 A    
C59   H27   1.081030 S    
C17   C18   1.414329 A    
C84   C85   1.410091 A    
C12   C13   1.409539 A    
C98   C99   1.406085 A    
C57   C58   1.401551 A    
N12   O47   1.299600 A    
N26   O76   1.300590 A    
N7    O37   1.300832 A    
C80   C81   1.398938 A    
O17   C73   1.282415 A    
N11   O46   1.295032 A    
C39   N3    1.446148 S    
C105  C106  1.412439 A    
N20   O63   1.301574 A    
C86   C87   1.414696 A    
C77   C78   1.396271 A    
C100  H32   1.081156 S    
