data_mof_unit_12384.cif
_audit_creation_date              2012-12-10T18:05:58-0500
_audit_creation_method            fapswitch 2.2
_symmetry_space_group_name_H-M    P1
_symmetry_Int_Tables_number       1
_space_group_crystal_system       triclinic
_cell_length_a                    12.683853
_cell_length_b                    13.027163
_cell_length_c                    14.94219
_cell_angle_alpha                 92.230395
_cell_angle_beta                  102.64808
_cell_angle_gamma                 80.894797
_cell_volume                      2378.67480491

loop_
_atom_site_label
_atom_site_type_symbol
_atom_type_description
_atom_site_fract_x
_atom_site_fract_y
_atom_site_fract_z
_atom_type_partial_charge
C1    C     C_R   0.438140 0.691468 0.485208 0.847164
C2    C     C_R   0.433835 0.576378 0.803002 -0.248033
C3    C     C_R   0.503227 0.500569 0.767822 -0.025805
C4    C     C_R   0.501002 0.500627 0.672343 0.842487
C5    C     C_R   0.569470 0.421069 0.821881 -0.184236
C6    C     C_R   0.711270 0.050821 0.457070 -0.206082
C7    C     C_R   0.601532 0.195297 0.516107 -0.221371
C8    C     C_R   0.292127 0.843890 0.480983 -0.201448
C9    C     C_R   0.259343 0.950899 0.478896 -0.166742
C10   C     C_R   0.334057 0.016629 0.472966 -0.073214
C11   C     C_R   0.441990 0.975220 0.465629 0.102686
C12   C     C_R   0.556655 0.410297 0.100323 -0.064409
C13   C     C_R   0.465343 0.868548 0.447361 -0.004452
C14   C     C_R   0.527570 0.035216 0.475175 -0.101070
C15   C     C_R   0.624033 0.994039 0.444021 -0.065584
C16   C     C_R   0.562289 0.307901 0.513138 0.940931
C17   C     C_R   0.634928 0.893782 0.405845 0.535313
C18   C     C_R   0.555671 0.831534 0.408267 -0.238442
C19   C     C_R   0.523764 0.131586 0.520825 0.448053
C20   C     C_R   0.702792 0.150328 0.496111 -0.063752
C21   C     C_R   0.396895 0.802039 0.468354 -0.097460
C22   C     C_R   0.096860 0.332833 0.382467 -0.296213
C23   C     C_R   0.346817 0.644026 0.018741 -0.018774
C24   C     C_R   0.800948 0.619344 0.620326 0.552762
C25   C     C_R   0.910160 0.623597 0.661954 0.392009
C26   C     C_R   0.991042 0.569519 0.619825 -0.351242
C27   C     C_R   0.964285 0.519602 0.534693 -0.017137
C28   C     C_R   0.498852 0.498934 0.327338 0.918495
C29   C     C_R   0.855109 0.503180 0.505244 0.061573
C30   C     C_R   0.043961 0.471250 0.486375 -0.051040
C31   C     C_R   0.017311 0.390061 0.423605 0.103287
C32   C     C_R   0.910755 0.368200 0.401498 -0.179637
C33   C     C_R   0.830036 0.426702 0.439405 -0.117231
C34   C     C_R   0.354991 0.646399 0.927727 -0.261681
C35   C     C_R   0.146781 0.503762 0.493578 0.604095
C36   C     C_R   0.200872 0.359628 0.400512 -0.035493
C37   C     C_R   0.545456 0.405944 0.191551 -0.089733
C38   C     C_R   0.495002 0.495511 0.230303 -0.227728
C39   C     C_R   0.435742 0.579897 0.175817 -0.048177
C40   C     C_R   0.422850 0.572308 0.079921 0.020261
C41   C     C_R   0.491712 0.491768 0.043841 -0.022654
C42   C     C_2   0.574120 0.305366 0.242064 0.972670
C43   C     C_3   0.793753 0.779817 0.416765 -0.290548
C44   C     C_3   0.491164 0.158931 0.664378 -0.204213
C45   C     C_R   0.429163 0.573120 0.894301 0.143110
C46   C     C_2   0.395727 0.678259 0.219908 0.870033
C47   C     C_3   0.213969 0.622543 0.603648 -0.277934
C48   C     C_3   0.704219 0.772849 0.655442 -0.240427
C49   C     C_3   0.018784 0.724650 0.761231 -0.287370
C50   C     C_2   0.249401 0.708547 0.042572 0.938898
C51   C     C_2   0.696655 0.245047 0.932407 0.995260
C52   C     C_3   0.798405 0.315002 0.160690 -0.204937
C53   C     C_2   0.803713 0.198292 0.524264 0.952026
C54   C     C_R   0.495531 0.493008 0.950991 0.077129
C55   C     C_R   0.565096 0.414546 0.914073 -0.039268
C56   C     C_R   0.630621 0.333926 0.970347 -0.148267
C57   C     C_R   0.631698 0.336067 0.064382 0.467108
H1    H     H_    0.787834 0.015973 0.439953 0.221795
H2    H     H_    0.750312 0.405606 0.421669 0.243040
H3    H     H_    0.299220 0.702572 0.881242 0.164486
H4    H     H_    0.383610 0.637890 0.759184 0.111182
H5    H     H_    0.623352 0.364985 0.790747 0.158664
H6    H     H_    0.564134 0.152183 0.239038 0.361199
H7    H     H_    0.755791 0.708799 0.417739 0.164339
H8    H     H_    0.824308 0.807351 0.487783 0.125975
H9    H     H_    0.865743 0.757962 0.385346 0.223582
H10   H     H_    0.548612 0.216162 0.684643 0.172283
H11   H     H_    0.533402 0.078868 0.684308 0.168061
H12   H     H_    0.235679 0.794358 0.492565 0.200601
H13   H     H_    0.425326 0.178478 0.703118 0.202225
H14   H     H_    0.290971 0.752175 0.293444 0.351837
H15   H     H_    0.288016 0.656748 0.603989 0.190391
H16   H     H_    0.236669 0.551528 0.646955 0.151997
H17   H     H_    0.163434 0.682901 0.636759 0.143154
H18   H     H_    0.694474 0.797666 0.583502 0.117057
H19   H     H_    0.772652 0.805892 0.700538 0.188158
H20   H     H_    0.628097 0.806185 0.677867 0.187598
H21   H     H_    0.010807 0.774904 0.700696 0.139690
H22   H     H_    0.099700 0.674250 0.776923 0.160285
H23   H     H_    0.304779 0.099158 0.470768 0.189016
H24   H     H_    0.014455 0.777011 0.821092 0.215538
H25   H     H_    0.148016 0.845574 0.028824 0.353772
H26   H     H_    0.843378 0.155696 0.939328 0.351387
H27   H     H_    0.776384 0.375976 0.210411 0.137685
H28   H     H_    0.832057 0.349939 0.108205 0.186954
H29   H     H_    0.864319 0.255882 0.198049 0.195811
H30   H     H_    0.890750 0.289118 0.614555 0.344808
H31   H     H_    0.177278 0.983104 0.485430 0.169803
H32   H     H_    0.564654 0.754471 0.378482 0.189754
H33   H     H_    0.264182 0.314756 0.370839 0.164752
H34   H     H_    0.889608 0.305654 0.354646 0.181418
H35   H     H_    0.078705 0.268174 0.336865 0.168132
H36   H     H_    0.072022 0.553365 0.660495 0.175986
N1    N     N_R   0.222190 0.444670 0.452360 -0.133077
N2    N     N_R   0.776970 0.554790 0.547140 -0.201834
O1    O     O_R   0.366740 0.627160 0.477250 -0.563499
O2    O     O_R   0.540132 0.215713 0.198178 -0.738373
O3    O     O_3   0.720824 0.858734 0.363319 -0.579598
O4    O     O_3   0.443510 0.164992 0.569806 -0.636993
O5    O     O_2   0.426783 0.758953 0.205194 -0.606481
O6    O     O_R   0.318905 0.679289 0.274254 -0.744467
O7    O     O_3   0.156567 0.607488 0.513028 -0.604737
O8    O     O_3   0.718394 0.663677 0.663073 -0.538228
O9    O     O_3   0.933748 0.664244 0.750243 -0.566302
O10   O     O_2   0.194914 0.671389 0.087447 -0.585907
O11   O     O_R   0.216624 0.810097 0.009408 -0.786714
O12   O     O_R   0.544830 0.662520 0.507680 -0.603687
O13   O     O_2   0.652736 0.194211 0.868519 -0.665863
O14   O     O_R   0.808037 0.217947 0.970837 -0.771538
O15   O     O_3   0.707964 0.265431 0.120824 -0.564104
O16   O     O_2   0.878732 0.174535 0.484455 -0.649947
O17   O     O_R   0.817463 0.263407 0.601245 -0.785429
O18   O     O_R   0.410940 0.482340 0.616930 -0.642603
O19   O     O_R   0.589030 0.517700 0.647360 -0.538989
O20   O     O_R   0.455170 0.337480 0.492320 -0.584704
O21   O     O_R   0.633260 0.372840 0.522750 -0.590046
O22   O     O_R   0.410970 0.482300 0.352640 -0.569201
O23   O     O_R   0.589060 0.517660 0.383070 -0.646720
O24   O     O_2   0.626765 0.300490 0.320977 -0.699240
Zn1   Zn    Zn3+2 0.381090 0.476390 0.479680 1.017962
Zn2   Zn    Zn3+2 0.618910 0.523610 0.520320 0.994359

loop_
_geom_bond_atom_site_label_1
_geom_bond_atom_site_label_2
_ccdc_geom_bond_type
C55   C56   A    
C1    C21   S    
C27   C29   A    
C48   H19   S    
C43   O3    S    
C35   O7    S    
C49   O9    S    
C49   H21   S    
C26   C27   A    
C37   C38   A    
C13   C18   A    
C4    O19   A    
C52   H28   S    
C28   O22   A    
C1    O1    A    
C9    H31   S    
C30   C31   A    
C44   O4    S    
C42   O24   D    
C32   H34   S    
C23   C40   A    
C29   C33   A    
C37   C42   S    
C56   C57   A    
C51   C56   S    
C49   H24   S    
C12   C37   A    
C52   H27   S    
C6    H1    S    
C6    C15   A    
O19   Zn2   S    
N1    Zn1   S    
C57   O15   S    
C8    C9    A    
C50   O10   D    
H26   O14   S    
C44   H13   S    
C52   O15   S    
C17   O3    S    
C2    H4    S    
N2    Zn2   S    
C26   H36   S    
H14   O6    S    
C33   H2    S    
C47   O7    S    
C27   C30   A    
C34   H3    S    
C48   H18   S    
C16   O21   A    
C5    C55   A    
C43   H7    S    
C8    C21   A    
C2    C45   A    
C41   C54   A    
C46   O6    S    
C22   C31   A    
C4    O18   A    
C24   C25   A    
C47   H16   S    
O21   Zn2   S    
O22   Zn1   S    
C39   C40   A    
C29   N2    A    
C19   O4    S    
C51   O13   D    
C23   C50   S    
H30   O17   S    
C25   C26   A    
C48   O8    S    
C49   H22   S    
O23   Zn2   S    
C48   H20   S    
C12   C41   A    
O18   Zn1   S    
C31   C32   A    
C28   C38   S    
C43   H8    S    
C23   C34   A    
C17   C18   A    
C8    H12   S    
C13   C21   A    
C34   C45   A    
C1    O12   A    
C39   C46   S    
C12   C57   A    
C30   C35   A    
C53   O17   S    
C40   C41   A    
C45   C54   A    
C7    C20   A    
C7    C19   A    
C42   O2    S    
O12   Zn2   S    
C3    C4    S    
C16   O20   A    
C6    C20   A    
C9    C10   A    
C35   N1    A    
C36   H33   S    
C15   C17   A    
C46   O5    D    
C54   C55   A    
C7    C16   S    
C10   H23   S    
C18   H32   S    
C14   C19   A    
O1    Zn1   S    
C47   H17   S    
C20   C53   S    
C3    C5    A    
C25   O9    S    
C22   C36   A    
C24   O8    S    
C32   C33   A    
C52   H29   S    
C2    C3    A    
H6    O2    S    
C28   O23   A    
C24   N2    A    
C11   C13   A    
C53   O16   D    
C38   C39   A    
C43   H9    S    
C11   C14   A    
C5    H5    S    
H25   O11   S    
C47   H15   S    
C44   H11   S    
C10   C11   A    
C36   N1    A    
C51   O14   S    
O20   Zn1   S    
C50   O11   S    
C22   H35   S    
C14   C15   A    
C44   H10   S    
