data_mof_unit_25294.cif
_audit_creation_date              2013-03-05T16:05:19-0500
_audit_creation_method            fapswitch 2.2
_symmetry_space_group_name_H-M    P1
_symmetry_Int_Tables_number       1
_space_group_crystal_system       triclinic
_cell_length_a                    10.91103
_cell_length_b                    9.541571
_cell_length_c                    16.0
_cell_angle_alpha                 91.046201
_cell_angle_beta                  92.573475
_cell_angle_gamma                 90.954418
_cell_volume                      1663.52181482

loop_
_atom_site_label
_atom_site_type_symbol
_atom_site_description
_atom_site_fract_x
_atom_site_fract_y
_atom_site_fract_z
_atom_type_partial_charge
O1    O     O_R   0.319660 0.618740 0.500000 -0.600989
O2    O     O_R   0.319660 0.381260 0.500000 -0.599990
C1    C     C_R   0.262051 0.498857 0.504772 0.757146
O3    O     O_R   0.500020 0.618840 0.379440 -0.556866
O4    O     O_R   0.500020 0.381160 0.379440 -0.576864
C2    C     C_R   0.497209 0.498888 0.340457 0.800207
Cu1   Cu    Cu3+1 0.500020 0.640660 0.500000 1.016745
Cu2   Cu    Cu3+1 0.500020 0.359340 0.500000 1.021015
O5    O     O_R   0.680370 0.618830 0.500010 -0.561227
O6    O     O_R   0.680370 0.381170 0.500010 -0.554651
O7    O     O_R   0.500010 0.618730 0.620560 -0.552913
O8    O     O_R   0.500010 0.381270 0.620560 -0.538868
C3    C     C_R   0.737417 0.500957 0.500241 0.861768
C4    C     C_R   0.500013 0.501320 0.659656 0.817371
C5    C     C_3   0.421940 0.645532 0.051132 0.154333
C6    C     C_3   0.426289 0.355459 0.046051 0.100232
C7    C     C_3   0.413611 0.370042 0.943263 0.324791
C8    C     C_3   0.442783 0.654249 0.949621 0.377567
C9    C     C_1   0.499358 0.504777 0.748857 0.059039
C10   C     C_3   0.492278 0.502235 0.084002 -0.263514
C11   C     C_3   0.498876 0.504685 0.916902 -0.395913
C12   C     C_3   0.641022 0.487381 0.954693 0.258759
C13   C     C_3   0.638613 0.509787 0.058379 0.340037
C14   C     C_1   0.499049 0.506247 0.824173 0.323484
C15   C     C_1   0.489541 0.497958 0.176160 0.230920
C16   C     C_1   0.492174 0.496995 0.251403 -0.060025
C17   C     C_R   0.057168 0.368838 0.502230 0.078277
C18   C     C_R   0.064478 0.624729 0.529061 0.086480
C19   C     C_R   0.930277 0.375663 0.495555 -0.135432
C20   C     C_R   0.936980 0.624789 0.520003 -0.153796
H1    H     H_    0.877349 0.280099 0.482217 0.195397
H2    H     H_    0.888879 0.721823 0.526847 0.203871
C21   C     C_R   0.870448 0.501559 0.503697 -0.084075
C22   C     C_R   0.127666 0.496665 0.513328 -0.071310
C23   C     C_R   0.435274 0.071196 0.439593 -0.082675
C24   C     C_R   0.435257 0.922608 0.439573 -0.089005
H3    H     H_    0.384236 0.124469 0.390679 0.167766
H4    H     H_    0.383185 0.864293 0.391031 0.169641
N1    N     N_R   0.500030 0.852070 0.500020 -0.243793
N2    N     N_R   0.500030 0.147930 0.500020 -0.244095
C25   C     C_R   0.568453 0.928758 0.559042 0.329560
C26   C     C_R   0.569464 0.077353 0.558549 0.349378
N3    N     N_R   0.326627 0.695975 0.904504 0.164277
O9    O     O_R   0.291027 0.639035 0.832745 -0.336820
O10   O     O_R   0.290814 0.824039 0.916342 -0.290800
N4    N     N_R   0.285007 0.388834 0.907501 0.135956
O11   O     O_R   0.206391 0.474448 0.937501 -0.346162
O12   O     O_R   0.248886 0.321961 0.838714 -0.242112
N5    N     N_R   0.640705 0.860105 0.622028 0.165719
O13   O     O_R   0.596769 0.847683 0.695706 -0.235778
O14   O     O_R   0.758980 0.857766 0.615843 -0.337633
N6    N     N_R   0.646720 0.152373 0.618966 0.167318
O15   O     O_R   0.761406 0.173343 0.603417 -0.334884
O16   O     O_R   0.615794 0.155262 0.696405 -0.203401
C27   C     C_3   0.284760 0.639680 0.082549 -0.368058
C28   C     C_3   0.190572 0.756095 0.064422 -0.224271
C29   C     C_3   0.091478 0.758344 0.129196 -0.760620
H5    H     H_    0.044695 0.654201 0.131362 0.297593
H6    H     H_    0.132493 0.786296 0.192242 0.229320
H7    H     H_    0.022173 0.838043 0.112053 0.295217
H8    H     H_    0.233167 0.861963 0.064997 0.276693
H9    H     H_    0.141413 0.734104 0.003282 0.304310
H10   H     H_    0.236408 0.543010 0.069059 0.228741
H11   H     H_    0.294650 0.639988 0.151764 0.192125
C30   C     C_3   0.296012 0.299095 0.078065 -0.286017
C31   C     C_3   0.259925 0.316589 0.170264 -0.445171
C32   C     C_3   0.130244 0.258018 0.180847 -0.742638
H12   H     H_    0.064511 0.299415 0.132776 0.308200
H13   H     H_    0.129411 0.141672 0.176390 0.261705
H14   H     H_    0.098012 0.291847 0.242325 0.232959
H15   H     H_    0.322547 0.261537 0.214421 0.269150
H16   H     H_    0.258688 0.427182 0.190484 0.196901
H17   H     H_    0.215062 0.326530 0.040293 0.237874
H18   H     H_    0.292410 0.183854 0.065705 0.258050
N7    N     N_R   0.508423 0.238976 0.075168 0.185128
O17   O     O_R   0.501454 0.192767 0.150965 -0.286631
O18   O     O_R   0.581003 0.170704 0.027827 -0.169915
N8    N     N_R   0.469261 0.776893 0.094903 0.196785
O19   O     O_R   0.446547 0.897138 0.060742 -0.220676
O20   O     O_R   0.481639 0.781507 0.176229 -0.319790
N9    N     N_R   0.448108 0.233824 0.904287 0.203960
O21   O     O_R   0.394584 0.120932 0.930821 -0.222035
O22   O     O_R   0.476946 0.227432 0.826473 -0.238942
N10   N     N_R   0.530463 0.767910 0.926601 0.185973
O23   O     O_R   0.517295 0.824191 0.853217 -0.182460
O24   O     O_R   0.618368 0.818951 0.975778 -0.185179
N11   N     N_R   0.693141 0.646177 0.091390 0.173575
O25   O     O_R   0.689524 0.670564 0.171513 -0.280254
O26   O     O_R   0.787897 0.703408 0.058352 -0.229114
N12   N     N_R   0.720495 0.407347 0.101573 0.196096
O27   O     O_R   0.692303 0.350037 0.171316 -0.289111
O28   O     O_R   0.837923 0.420908 0.091075 -0.270262
N13   N     N_R   0.732037 0.584967 0.918460 0.199629
O29   O     O_R   0.708397 0.649931 0.849005 -0.253069
O30   O     O_R   0.847914 0.562439 0.935793 -0.189911
N14   N     N_R   0.685633 0.347935 0.925244 0.181501
O31   O     O_R   0.691016 0.328647 0.844763 -0.222382
O32   O     O_R   0.766528 0.277560 0.968264 -0.170932
C33   C     C_3   0.105541 0.220818 0.492947 -0.360125
C34   C     C_3   0.109855 0.180123 0.399983 -0.368831
C35   C     C_3   0.114119 0.022019 0.386082 -0.843013
H19   H     H_    0.192301 0.979121 0.422662 0.235240
H20   H     H_    0.027916 0.971348 0.405735 0.268109
H21   H     H_    0.125173 0.997637 0.318750 0.255095
H22   H     H_    0.026025 0.217154 0.365705 0.238059
H23   H     H_    0.191191 0.231081 0.373419 0.222421
H24   H     H_    0.193147 0.201952 0.527885 0.225177
H25   H     H_    0.041699 0.147018 0.523185 0.216136
C36   C     C_3   0.125350 0.763259 0.558407 -0.437434
C37   C     C_3   0.185631 0.753663 0.646639 -0.269713
C38   C     C_3   0.251367 0.891144 0.672860 -0.617412
H26   H     H_    0.323672 0.916456 0.628625 0.221259
H27   H     H_    0.185073 0.978197 0.673967 0.250859
H28   H     H_    0.295218 0.881521 0.736382 0.316041
H29   H     H_    0.113946 0.730482 0.691903 0.274069
H30   H     H_    0.252883 0.667821 0.649647 0.231643
H31   H     H_    0.190651 0.801234 0.512922 0.216392
H32   H     H_    0.056675 0.848016 0.560810 0.208522

loop_
_geom_bond_atom_site_label_1
_geom_bond_atom_site_label_2
_geom_bond_distance
_ccdc_geom_bond_type
C5    C8    1.653488 S    
N11   O25   1.301196 A    
N13   O29   1.300161 A    
C17   C19   1.386538 A    
C6    N7    1.506657 S    
C25   C26   1.417864 A    
C23   C24   1.417754 A    
N3    O9    1.301699 A    
N9    O21   1.303680 A    
C29   H5    1.111367 S    
C36   H31   1.102793 S    
Cu1   Cu2   2.684235 S    
N1    C25   1.370341 A    
Cu1   O7    1.944074 S    
C33   H25   1.114235 S    
C17   C33   1.523007 S    
C34   H22   1.111341 S    
C35   H19   1.101499 S    
C23   H3    1.079727 S    
N10   O24   1.295724 A    
O4    C2    1.294916 A    
O7    C4    1.293023 A    
N8    O20   1.302040 A    
C29   H6    1.111142 S    
C5    N8    1.497308 S    
C10   C15   1.477450 S    
C8    C11   1.647964 S    
C19   C21   1.383529 A    
C30   H17   1.086020 S    
C28   C29   1.531064 S    
O5    C3    1.294468 A    
C37   C38   1.527343 S    
C31   H16   1.098528 S    
C38   H26   1.109816 S    
C6    C7    1.652824 S    
N5    O14   1.299247 A    
N14   O32   1.298390 A    
C8    N10   1.496238 S    
C6    C10   1.656672 S    
N2    C26   1.371392 A    
C31   C32   1.530269 S    
C18   C22   1.436746 A    
N13   O30   1.304379 A    
C13   N11   1.499136 S    
C11   C12   1.651149 S    
N14   O31   1.301538 A    
O3    Cu1   1.936380 S    
C25   N5    1.426942 S    
N9    O22   1.298416 A    
N6    O16   1.298622 A    
C36   H32   1.112930 S    
C12   C13   1.670258 S    
C17   C22   1.435053 A    
C5    C10   1.661338 S    
N4    O12   1.304143 A    
C23   N2    1.365879 A    
C32   H12   1.110391 S    
N10   O23   1.303097 A    
O3    C2    1.292662 A    
N8    O19   1.302587 A    
C29   H7    1.110628 S    
C1    C22   1.478598 S    
C15   C16   1.203158 T    
C7    C11   1.645932 S    
C30   H18   1.113398 S    
C27   H10   1.068651 S    
C32   H13   1.110967 S    
C5    C27   1.600606 S    
N7    O17   1.302932 A    
C3    C21   1.449990 S    
N7    O18   1.295476 A    
N12   O28   1.304295 A    
C31   H15   1.106394 S    
C10   C13   1.666917 S    
Cu2   O8    1.936477 S    
C27   H11   1.107799 S    
C27   C28   1.548266 S    
C13   N12   1.493166 S    
C38   H27   1.110896 S    
C7    N4    1.506175 S    
N3    O10   1.302224 A    
O8    C4    1.295072 A    
N5    O13   1.299026 A    
C35   H21   1.110287 S    
N11   O26   1.298984 A    
C12   N13   1.493274 S    
C28   H9    1.109200 S    
C37   H30   1.109018 S    
N6    O15   1.299701 A    
C35   H20   1.110964 S    
Cu1   O5    1.982239 S    
N4    O11   1.295954 A    
C20   C21   1.385974 A    
O1    Cu1   1.975529 S    
C12   N14   1.499510 S    
C4    C9    1.427341 S    
C24   N1    1.366042 A    
O2    Cu2   1.982458 S    
O6    C3    1.292179 A    
O4    Cu2   1.943939 S    
C18   C36   1.526049 S    
C33   H24   1.104529 S    
C34   H23   1.109812 S    
C33   C34   1.533372 S    
C32   H14   1.103953 S    
C24   H4    1.081530 S    
O2    C1    1.297931 A    
C19   H1    1.083868 S    
C36   C37   1.535351 S    
C20   H2    1.078100 S    
N12   O27   1.298596 A    
C2    C16   1.423227 S    
C18   C20   1.392186 A    
C34   C35   1.522635 S    
C9    C14   1.205038 T    
C38   H28   1.109752 S    
C7    N9    1.492533 S    
Cu2   O6    1.975338 S    
C30   C31   1.550620 S    
C11   C14   1.484085 S    
Cu1   N1    2.017176 S    
C28   H8    1.104588 S    
C6    C30   1.619294 S    
Cu2   N2    2.017192 S    
O1    C1    1.301130 A    
C8    N3    1.493661 S    
C37   H29   1.111819 S    
C26   N6    1.427879 S    
