data_mof_unit_47087.cif
_audit_creation_date              2012-12-10T17:10:58-0500
_audit_creation_method            fapswitch 2.2
_symmetry_space_group_name_H-M    P1
_symmetry_Int_Tables_number       1
_space_group_crystal_system       triclinic
_cell_length_a                    11.662397
_cell_length_b                    13.006914
_cell_length_c                    13.388836
_cell_angle_alpha                 91.985907
_cell_angle_beta                  76.607578
_cell_angle_gamma                 99.962142
_cell_volume                      1945.92638457

loop_
_atom_site_label
_atom_site_type_symbol
_atom_type_description
_atom_site_fract_x
_atom_site_fract_y
_atom_site_fract_z
_atom_type_partial_charge
C1    C     C_R   0.520922 0.700909 0.501882 0.836473
C2    C     C_R   0.437692 0.467659 0.978504 0.040735
C3    C     C_R   0.467596 0.451760 0.870835 0.057047
C4    C     C_R   0.525941 0.460999 0.034936 0.044956
C5    C     C_R   0.629484 0.417614 0.988782 0.128801
C6    C     C_R   0.643695 0.382738 0.887414 -0.210901
C7    C     C_R   0.565378 0.400989 0.828945 -0.195179
C8    C     C_R   0.518149 0.502766 0.133545 -0.193155
C9    C     C_R   0.697087 0.440697 0.148247 -0.253233
C10   C     C_R   0.396166 0.483621 0.808874 -0.103746
C11   C     C_R   0.466979 0.185700 0.499135 -0.053454
C12   C     C_R   0.435897 0.491203 0.696172 0.804373
C13   C     C_R   0.533441 0.814408 0.503981 -0.113819
C14   C     C_R   0.655097 0.985151 0.514986 0.252389
C15   C     C_R   0.641943 0.875876 0.512760 -0.213516
C16   C     C_R   0.436255 0.861235 0.498077 -0.244225
C17   C     C_R   0.446735 0.969068 0.499711 0.131867
C18   C     C_R   0.556386 0.031840 0.507653 0.097736
C19   C     C_R   0.565136 0.140196 0.506306 -0.255395
C20   C     C_R   0.358640 0.122717 0.492697 -0.183497
C21   C     C_R   0.348666 0.014852 0.492784 -0.165049
C22   C     C_R   0.948952 0.606590 0.587365 0.121127
C23   C     C_R   0.478992 0.299101 0.498784 0.799780
C24   C     C_R   0.829165 0.594293 0.579521 0.054066
C25   C     C_R   0.854820 0.452702 0.465202 0.012655
C26   C     C_R   0.975644 0.461135 0.470829 0.017563
C27   C     C_R   0.024110 0.539570 0.532014 0.004553
C28   C     C_R   0.146029 0.547675 0.535557 0.056987
C29   C     C_R   0.168644 0.403974 0.423376 0.145705
C30   C     C_R   0.048753 0.392912 0.416828 -0.260478
C31   C     C_R   0.563399 0.502112 0.303792 0.827645
C32   C     C_R   0.716370 0.409574 0.045328 0.257183
C33   C     C_R   0.597192 0.486083 0.192684 -0.102288
C34   C     C_R   0.287536 0.515165 0.855770 -0.243538
C35   C     C_R   0.248361 0.513089 0.961697 -0.147787
C36   C     C_R   0.320211 0.487408 0.023681 0.247244
Cu1   Cu    Cu3+1 0.386470 0.492430 0.492410 0.962031
Cu2   Cu    Cu3+1 0.613530 0.507570 0.507590 0.940374
H1    H     H_    0.759510 0.428478 0.193553 0.159550
H2    H     H_    0.281806 0.156680 0.487188 0.154338
H3    H     H_    0.264433 0.967224 0.487113 0.153581
H4    H     H_    0.715396 0.837956 0.519306 0.174267
H5    H     H_    0.352052 0.813798 0.491827 0.176205
H6    H     H_    0.185790 0.606390 0.582224 0.167059
H7    H     H_    0.224220 0.350730 0.381911 0.147413
H8    H     H_    0.013598 0.331437 0.369875 0.156920
H9    H     H_    0.771777 0.645795 0.621776 0.160324
H10   H     H_    0.717476 0.343670 0.851497 0.180518
H11   H     H_    0.817253 0.393488 0.417478 0.131158
H12   H     H_    0.451369 0.549993 0.165741 0.198949
H13   H     H_    0.230886 0.539075 0.810311 0.180557
H14   H     H_    0.160082 0.529920 0.995964 0.173814
H15   H     H_    0.580819 0.371505 0.751427 0.171219
H16   H     H_    0.648683 0.189861 0.509917 0.166186
N1    N     N_R   0.215880 0.481050 0.481000 -0.195874
N2    N     N_R   0.784100 0.518950 0.519000 -0.204627
O1    O     O_R   0.419710 0.645650 0.494620 -0.586383
O2    O     O_R   0.611450 0.658430 0.507430 -0.591006
O3    O     O_R   0.357340 0.490460 0.641450 -0.582543
O4    O     O_R   0.549080 0.503250 0.654260 -0.586576
O5    O     O_R   0.388550 0.341570 0.492570 -0.595870
O6    O     O_R   0.580290 0.354350 0.505380 -0.600849
O7    O     O_R   0.450920 0.496750 0.345740 -0.558653
O8    O     O_R   0.642660 0.509540 0.358550 -0.580318
N3    N     N_2   0.764352 0.048838 0.526839 -0.445645
H17   H     H_    0.755167 0.098016 0.589234 0.248744
C37   C     C_3   0.874311 0.006303 0.504510 -0.662099
H18   H     H_    0.951146 0.070720 0.501660 0.226159
H19   H     H_    0.886737 0.967201 0.428584 0.239309
H20   H     H_    0.873580 0.950541 0.565743 0.240837
Br1   Br    Br    0.003853 0.715711 0.673985 -0.594250
N4    N     N_2   0.822044 0.368664 0.999982 -0.445139
H21   H     H_    0.852391 0.328507 0.050975 0.263142
C38   C     C_3   0.916763 0.444449 0.940628 -0.660730
H22   H     H_    0.946268 0.508292 0.991120 0.232111
H23   H     H_    0.886137 0.478239 0.878344 0.248584
H24   H     H_    0.994107 0.405904 0.904990 0.232619
Br2   Br    Br    0.236698 0.454295 0.163336 -0.595032

loop_
_geom_bond_atom_site_label_1
_geom_bond_atom_site_label_2
_ccdc_geom_bond_type
C14   C18   A    
C35   C36   A    
C25   N2    A    
C4    C8    A    
C32   N4    S    
C11   C19   A    
C26   C27   A    
C29   C30   A    
C6    H10   S    
C18   C19   A    
C3    C7    A    
C5    C6    A    
C20   H2    S    
C9    H1    S    
C34   C35   A    
C9    C32   A    
Cu2   O2    S    
C12   O3    A    
C23   O6    A    
C16   C17   A    
N3    C37   S    
C38   H24   S    
C31   C33   S    
C5    C32   A    
Cu2   O4    S    
C9    C33   A    
Cu1   O7    S    
C28   N1    A    
Cu2   O8    S    
C11   C20   A    
C38   H22   S    
C37   H18   S    
C31   O7    A    
N4    C38   S    
N4    H21   S    
C29   N1    A    
C25   C26   A    
C28   H6    S    
C17   C21   A    
C29   H7    S    
C37   H19   S    
Cu1   N1    S    
C2    C4    A    
Cu1   Cu2   S    
C1    O1    A    
C17   C18   A    
C34   H13   S    
C10   C34   A    
C16   H5    S    
Cu1   O3    S    
C10   C12   S    
C21   H3    S    
C19   H16   S    
C26   C30   A    
C22   C27   A    
C13   C15   A    
C22   C24   A    
C1    C13   S    
C38   H23   S    
C8    H12   S    
C22   Br1   S    
C35   H14   S    
C2    C36   A    
C24   H9    S    
C31   O8    A    
C30   H8    S    
C15   H4    S    
C4    C5    A    
Cu1   O5    S    
C6    C7    A    
C24   N2    A    
C37   H20   S    
C2    C3    A    
C3    C10   A    
C36   Br2   S    
C1    O2    A    
C11   C23   S    
C14   N3    S    
C8    C33   A    
C25   H11   S    
C12   O4    A    
C23   O5    A    
Cu2   N2    S    
C20   C21   A    
N3    H17   S    
C13   C16   A    
C27   C28   A    
C7    H15   S    
C14   C15   A    
Cu1   O1    S    
Cu2   O6    S    
