data_mof_unit_26986.cif
_audit_creation_date              2012-12-10T16:56:31-0500
_audit_creation_method            fapswitch 2.2
_symmetry_space_group_name_H-M    P1
_symmetry_Int_Tables_number       1
_space_group_crystal_system       triclinic
_cell_length_a                    10.753469
_cell_length_b                    10.905826
_cell_length_c                    9.687532
_cell_angle_alpha                 89.501298
_cell_angle_beta                  90.125248
_cell_angle_gamma                 90.005855
_cell_volume                      1136.06403553

loop_
_atom_site_label
_atom_site_type_symbol
_atom_type_description
_atom_site_fract_x
_atom_site_fract_y
_atom_site_fract_z
_atom_type_partial_charge
C1    C     C_R   0.506213 0.265416 0.500910 0.759514
C2    C     C_3   0.877834 0.502502 0.499409 -0.185736
C3    C     C_3   0.930249 0.598422 0.603915 0.453058
C4    C     C_3   0.930452 0.521193 0.347986 0.291548
C5    C     C_2   0.538119 0.932429 0.402835 -0.175414
C6    C     C_2   0.471632 0.867550 0.495412 0.438981
C7    C     C_2   0.527079 0.065934 0.392547 -0.225410
C8    C     C_2   0.524565 0.134035 0.506823 0.506902
C9    C     C_2   0.424616 0.433250 0.922539 -0.151606
C10   C     C_2   0.426765 0.430450 0.078405 0.669373
C11   C     C_R   0.259933 0.501846 0.499598 0.893327
C12   C     C_R   0.491490 0.734605 0.499370 0.681221
C13   C     C_R   0.740023 0.502010 0.499869 0.880120
C14   C     C_3   0.072041 0.376880 0.551509 0.387960
C15   C     C_3   0.927099 0.374125 0.549245 0.085167
C16   C     C_3   0.072779 0.606341 0.592086 -0.578557
C17   C     C_3   0.073064 0.527534 0.349193 -0.409528
C18   C     C_3   0.122111 0.502719 0.498037 -0.136937
Cu1   Cu    Cu3+1 0.500030 0.500020 0.638630 0.999196
Cu2   Cu    Cu3+1 0.499970 0.499980 0.361370 1.019923
H1    H     H_    0.105976 0.361448 0.658935 0.137671
H2    H     H_    0.100435 0.697275 0.549392 0.216992
H3    H     H_    0.602384 0.887523 0.333129 0.105227
H4    H     H_    0.523410 0.107903 0.290530 0.153025
H5    H     H_    0.356864 0.375563 0.871291 0.195098
H6    H     H_    0.565408 0.551175 0.893579 0.197275
H7    H     H_    0.556489 0.560530 0.105510 0.150647
H8    H     H_    0.895199 0.304803 0.472347 0.126281
H9    H     H_    0.114044 0.598720 0.697290 0.171660
H10   H     H_    0.907824 0.567924 0.710881 0.177546
H11   H     H_    0.107355 0.617486 0.310384 0.181270
H12   H     H_    0.110142 0.457492 0.277017 0.239583
H13   H     H_    0.909184 0.433815 0.294069 0.132802
N1    N     N_2   0.498630 0.498660 0.846910 -0.314184
N2    N     N_2   0.498590 0.498630 0.153040 -0.321988
O1    O     O_R   0.500020 0.321960 0.617040 -0.527454
O2    O     O_R   0.499980 0.321920 0.382900 -0.563043
O3    O     O_R   0.317710 0.500000 0.617070 -0.610360
O4    O     O_R   0.317670 0.499960 0.382930 -0.523376
O5    O     O_R   0.500020 0.678080 0.617100 -0.577719
O6    O     O_R   0.499980 0.678040 0.382960 -0.602174
O7    O     O_R   0.682330 0.500040 0.617070 -0.531719
O8    O     O_R   0.682290 0.500000 0.382930 -0.571571
O9    O     O_3   0.873035 0.609828 0.259454 -0.568355
C19   C     C_3   0.877643 0.731423 0.306746 -0.133530
H14   H     H_    0.963795 0.754380 0.363728 0.184175
H15   H     H_    0.793304 0.751159 0.368281 0.204082
H16   H     H_    0.874362 0.793520 0.215549 0.149889
F1    F     F_    0.876441 0.713007 0.590958 -0.694074
O10   O     O_3   0.373367 0.925965 0.563326 -0.546192
C20   C     C_3   0.334127 0.864274 0.683896 -0.169807
H17   H     H_    0.412353 0.852371 0.758112 0.188667
H18   H     H_    0.289293 0.775484 0.658925 0.122948
H19   H     H_    0.262928 0.921428 0.735337 0.187654
F2    F     F_    0.545939 0.082393 0.633366 -0.643650
F3    F     F_    0.347364 0.352011 0.142878 -0.628331
F4    F     F_    0.118061 0.282465 0.471297 -0.659321
O11   O     O_3   0.880989 0.345723 0.683230 -0.601980
C21   C     C_3   0.869024 0.217745 0.701444 -0.196382
H20   H     H_    0.958399 0.169630 0.681778 0.182833
H21   H     H_    0.794355 0.180982 0.633835 0.179138
H22   H     H_    0.842106 0.198724 0.809995 0.197643

loop_
_geom_bond_atom_site_label_1
_geom_bond_atom_site_label_2
_ccdc_geom_bond_type
C12   O5    A    
C11   O3    A    
C2    C4    S    
C11   C18   S    
C10   N2    D    
C2    C15   S    
Cu1   O3    S    
C3    H10   S    
C1    C8    S    
C10   F3    S    
C9    C10   S    
C14   C18   S    
Cu1   Cu2   S    
C5    H3    S    
Cu1   O7    S    
C1    O2    A    
C20   H19   S    
C13   O8    A    
C17   C18   S    
C3    F1    S    
C9    H5    S    
C21   H20   S    
C19   H14   S    
C6    O10   S    
C11   O4    A    
Cu2   O2    S    
C2    C13   S    
C15   H8    S    
C12   O6    A    
Cu2   O6    S    
C4    C17   S    
C8    F2    S    
C13   O7    A    
H6    N1    S    
C9    N1    D    
O10   C20   S    
C2    C3    S    
Cu1   O1    S    
C19   H15   S    
C6    C12   S    
C5    C6    D    
C17   H11   S    
C15   O11   S    
Cu2   O4    S    
C21   H21   S    
Cu1   O5    S    
C7    H4    S    
C7    C8    D    
Cu2   O8    S    
O9    C19   S    
C14   H1    S    
C16   C18   S    
C19   H16   S    
C17   H12   S    
C5    C7    S    
C14   F4    S    
C4    H13   S    
C21   H22   S    
C16   H2    S    
C4    O9    S    
H7    N2    S    
C16   H9    S    
C14   C15   S    
O11   C21   S    
Cu2   N2    S    
C3    C16   S    
C20   H17   S    
C1    O1    A    
C20   H18   S    
Cu1   N1    S    
