data_mof_unit_5091.cif
_audit_creation_date              2012-12-10T18:05:42-0500
_audit_creation_method            fapswitch 2.2
_symmetry_space_group_name_H-M    P1
_symmetry_Int_Tables_number       1
_space_group_crystal_system       triclinic
_cell_length_a                    10.884696
_cell_length_b                    10.830239
_cell_length_c                    9.545581
_cell_angle_alpha                 89.640915
_cell_angle_beta                  91.091492
_cell_angle_gamma                 90.060539
_cell_volume                      1125.04315822

loop_
_atom_site_label
_atom_site_type_symbol
_atom_type_description
_atom_site_fract_x
_atom_site_fract_y
_atom_site_fract_z
_atom_type_partial_charge
C1    C     C_R   0.501799 0.262302 0.500600 0.822900
C2    C     C_R   0.498208 0.737697 0.499401 0.822948
C3    C     C_R   0.871747 0.499201 0.504488 -0.098607
C4    C     C_R   0.128252 0.500774 0.495511 -0.098615
C5    C     C_R   0.941954 0.475168 0.627574 0.026359
C6    C     C_R   0.058044 0.524797 0.372422 0.026362
C7    C     C_R   0.452168 0.066683 0.385759 -0.302435
C8    C     C_R   0.547834 0.933312 0.614249 -0.302475
C9    C     C_R   0.448763 0.938547 0.383176 0.163354
C10   C     C_R   0.551199 0.061449 0.616858 0.163397
C11   C     C_R   0.497550 0.871572 0.498249 -0.045125
C12   C     C_R   0.502471 0.128425 0.501751 -0.045152
C13   C     C_R   0.462864 0.398299 0.074014 -0.028653
C14   C     C_R   0.537136 0.601701 0.925986 -0.028646
C15   C     C_R   0.463090 0.398270 0.925655 -0.015299
C16   C     C_R   0.536909 0.601731 0.074345 -0.015326
C17   C     C_R   0.262206 0.500789 0.498328 0.787041
C18   C     C_R   0.737794 0.499203 0.501672 0.787025
C19   C     C_R   0.186607 0.695454 0.062153 -0.128636
C20   C     C_R   0.813332 0.304506 0.937809 -0.128628
C21   C     C_R   0.140213 0.670577 0.194797 -0.175099
C22   C     C_R   0.859735 0.329385 0.805169 -0.175094
C23   C     C_R   0.111763 0.549006 0.234107 0.123886
C24   C     C_R   0.888228 0.450952 0.765885 0.123864
C25   C     C_R   0.129303 0.451644 0.139225 0.221331
C26   C     C_R   0.870709 0.548306 0.860783 0.221331
C27   C     C_R   0.176022 0.478012 0.006298 -0.168849
C28   C     C_R   0.823973 0.521936 0.993701 -0.168834
C29   C     C_R   0.204450 0.599342 0.968044 -0.105344
C30   C     C_R   0.795512 0.400610 0.031933 -0.105355
C31   C     C_R   0.931111 0.524227 0.378989 -0.216354
C32   C     C_R   0.068888 0.475744 0.621009 -0.216341
Cu1   Cu    Cu3+1 0.500000 0.500020 0.640660 0.945457
Cu2   Cu    Cu3+1 0.500000 0.499980 0.359340 0.945457
H1    H     H_    0.240823 0.618882 0.865557 0.159381
H2    H     H_    0.759129 0.381069 0.134414 0.159376
H3    H     H_    0.431825 0.316926 0.870533 0.124771
H4    H     H_    0.568170 0.683075 0.129467 0.124776
H5    H     H_    0.208537 0.789327 0.032133 0.126508
H6    H     H_    0.791375 0.210638 0.967813 0.126492
H7    H     H_    0.125790 0.745881 0.266756 0.126263
H8    H     H_    0.874129 0.254087 0.733195 0.126298
H9    H     H_    0.191959 0.404017 0.933385 0.107698
H10   H     H_    0.808047 0.595927 0.066622 0.107705
H11   H     H_    0.878478 0.544557 0.284798 0.153276
H12   H     H_    0.121522 0.455417 0.715202 0.153275
H13   H     H_    0.413117 0.117832 0.297655 0.144910
H14   H     H_    0.586840 0.882163 0.702376 0.144918
H15   H     H_    0.431257 0.316986 0.128691 0.111778
H16   H     H_    0.568743 0.683014 0.871309 0.111777
N1    N     N_R   0.500030 0.500030 0.852070 -0.154369
N2    N     N_R   0.499970 0.499970 0.147930 -0.154375
O1    O     O_R   0.499990 0.319660 0.618740 -0.557278
O2    O     O_R   0.500010 0.680340 0.381260 -0.557295
O3    O     O_R   0.499990 0.319630 0.381170 -0.608869
O4    O     O_R   0.500010 0.680370 0.618830 -0.608872
O5    O     O_R   0.319650 0.500020 0.618780 -0.597767
O6    O     O_R   0.680350 0.499980 0.381220 -0.597767
O7    O     O_R   0.319640 0.500000 0.381210 -0.570606
O8    O     O_R   0.680360 0.500000 0.618790 -0.570615
N3    N     N_3   0.099234 0.327116 0.178584 -0.602714
H17   H     H_    0.162933 0.299265 0.255798 0.208628
H18   H     H_    0.110107 0.267731 0.093767 0.200638
N4    N     N_3   0.900812 0.672831 0.821447 -0.602716
H19   H     H_    0.837122 0.700708 0.744237 0.208632
H20   H     H_    0.889954 0.732207 0.906274 0.200648
N5    N     N_3   0.392590 0.877365 0.265608 -0.580151
H21   H     H_    0.302119 0.908878 0.254956 0.200942
H22   H     H_    0.439427 0.903632 0.175533 0.201034
N6    N     N_3   0.607115 0.122632 0.734588 -0.580050
H23   H     H_    0.697544 0.091029 0.745621 0.200889
H24   H     H_    0.559983 0.096429 0.824503 0.200988

loop_
_geom_bond_atom_site_label_1
_geom_bond_atom_site_label_2
_ccdc_geom_bond_type
C17   O5    A    
C25   N3    S    
Cu1   O5    S    
C8    H14   S    
C26   N4    S    
C7    C9    A    
N6    H23   S    
C15   N1    A    
Cu1   N1    S    
C13   N2    A    
C29   H1    S    
Cu2   N2    S    
C14   N1    A    
C30   H2    S    
C5    C32   A    
C32   H12   S    
N4    H19   S    
N3    H17   S    
Cu1   O4    S    
C9    N5    S    
Cu1   Cu2   S    
C1    O3    A    
Cu2   O3    S    
C4    C32   A    
C20   C30   A    
C3    C31   A    
C9    C11   A    
N4    H20   S    
C22   H8    S    
C1    C12   S    
C19   H5    S    
C17   O7    A    
C8    C11   A    
C21   H7    S    
C2    C11   S    
C10   C12   A    
C8    C10   A    
C19   C21   A    
C20   C22   A    
Cu2   O2    S    
Cu1   O8    S    
C22   C24   A    
C13   C15   A    
C21   C23   A    
Cu1   O1    S    
Cu2   O7    S    
C20   H6    S    
C14   C16   A    
C7    C12   A    
C2    O2    A    
C4    C6    A    
C27   C29   A    
C14   H16   S    
N5    H22   S    
N5    H21   S    
C19   C29   A    
C10   N6    S    
C23   C25   A    
C4    C17   S    
C28   C30   A    
C3    C18   S    
Cu2   O6    S    
C31   H11   S    
C18   O8    A    
N3    H18   S    
C6    C31   A    
C1    O1    A    
C5    C24   S    
N6    H24   S    
C13   H15   S    
C16   H4    S    
C27   H9    S    
C6    C23   S    
C26   C28   A    
C28   H10   S    
C2    O4    A    
C15   H3    S    
C16   N2    A    
C24   C26   A    
C18   O6    A    
C3    C5    A    
C25   C27   A    
C7    H13   S    
