data_mof_unit_20142.cif
_audit_creation_date              2013-03-05T15:42:28-0500
_audit_creation_method            fapswitch 2.2
_symmetry_space_group_name_H-M    P1
_symmetry_Int_Tables_number       1
_space_group_crystal_system       triclinic
_cell_length_a                    7.74522
_cell_length_b                    8.570458
_cell_length_c                    23.414175
_cell_angle_alpha                 91.169655
_cell_angle_beta                  86.034022
_cell_angle_gamma                 93.715869
_cell_volume                      1547.05518741

loop_
_atom_site_label
_atom_site_type_symbol
_atom_site_description
_atom_site_fract_x
_atom_site_fract_y
_atom_site_fract_z
_atom_type_partial_charge
O1    O     O_R   0.389250 0.738570 0.503790 -0.611390
O2    O     O_R   0.610750 0.261430 0.496210 -0.611393
O3    O     O_R   0.678390 0.711620 0.493890 -0.627968
O4    O     O_R   0.321610 0.288380 0.506110 -0.627971
C1    C     C_R   0.545892 0.794832 0.498517 0.975308
C2    C     C_R   0.454108 0.205168 0.501482 0.975301
O5    O     O_R   0.355400 0.513520 0.588790 -0.620338
O6    O     O_R   0.644600 0.486480 0.411210 -0.620330
O7    O     O_R   0.644550 0.486570 0.578900 -0.629890
O8    O     O_R   0.355450 0.513430 0.421100 -0.629891
C3    C     C_R   0.502635 0.500554 0.610636 0.876741
C4    C     C_R   0.497364 0.499439 0.389364 0.876716
Zn1   Zn    Zn3+2 0.306930 0.518000 0.506610 0.951602
Zn2   Zn    Zn3+2 0.693070 0.482000 0.493390 0.951606
C5    C     C_R   0.404274 0.378759 0.120112 0.570828
C6    C     C_R   0.595720 0.621027 0.879895 0.570823
N1    N     N_R   0.478346 0.503906 0.148228 -0.369576
N2    N     N_R   0.521663 0.495874 0.851776 -0.369547
C7    C     C_R   0.557486 0.630032 0.120114 0.551212
C8    C     C_R   0.442571 0.369726 0.879891 0.551167
C9    C     C_R   0.561980 0.635696 0.060032 -0.129068
C10   C     C_R   0.438071 0.364066 0.939974 -0.129049
C11   C     C_R   0.493629 0.502588 0.030136 -0.047797
C12   C     C_R   0.506411 0.497177 0.969870 -0.047801
C13   C     C_R   0.412497 0.374458 0.060439 -0.052822
C14   C     C_R   0.587528 0.625313 0.939567 -0.052811
C15   C     C_R   0.637634 0.765897 0.028753 0.315736
C16   C     C_R   0.362418 0.233865 0.971254 0.315737
C17   C     C_R   0.653576 0.757122 0.969136 -0.137157
C18   C     C_R   0.346458 0.242645 0.030871 -0.137168
O9    O     O_2   0.326744 0.257389 0.150017 -0.506614
O10   O     O_2   0.673197 0.742426 0.849992 -0.506616
O11   O     O_2   0.634909 0.746582 0.150588 -0.477276
O12   O     O_2   0.365205 0.253143 0.849418 -0.477300
H1    H     H_    0.712497 0.857254 0.945907 0.240211
H2    H     H_    0.287532 0.142517 0.054100 0.240201
C19   C     C_R   0.669949 0.478676 0.756688 -0.084986
C20   C     C_R   0.330151 0.521664 0.243309 -0.085096
C21   C     C_R   0.665276 0.479394 0.697521 -0.209156
C22   C     C_R   0.334827 0.521017 0.302477 -0.209142
H3    H     H_    0.783474 0.461712 0.671337 0.163278
H4    H     H_    0.216730 0.539142 0.328659 0.163339
C23   C     C_R   0.508738 0.501499 0.672733 -0.043390
C24   C     C_R   0.491253 0.498440 0.327268 -0.043400
C25   C     C_R   0.357694 0.524410 0.707771 -0.201913
C26   C     C_R   0.642175 0.474982 0.292233 -0.201902
H5    H     H_    0.235636 0.542306 0.689682 0.164357
H6    H     H_    0.764137 0.456696 0.310325 0.164394
C27   C     C_R   0.362958 0.524023 0.766823 -0.074360
C28   C     C_R   0.636906 0.475303 0.233180 -0.074429
H7    H     H_    0.246138 0.541196 0.793794 0.152664
H8    H     H_    0.753632 0.457717 0.206210 0.152695
C29   C     C_R   0.518638 0.500298 0.791183 0.297203
C30   C     C_R   0.481345 0.499498 0.208819 0.297290
C31   C     C_2   0.570114 0.958286 0.497653 -0.370071
C32   C     C_2   0.429886 0.041714 0.502347 -0.370068
H9    H     H_    0.702513 0.009430 0.493167 0.181226
H10   H     H_    0.297487 0.990570 0.506833 0.181227
N3    N     N_2   0.950330 0.457950 0.484560 -0.175353
N4    N     N_2   0.049670 0.542050 0.515440 -0.175359
H11   H     H_    0.013907 0.382759 0.456819 0.192421
H12   H     H_    0.986093 0.617241 0.543181 0.192407
N5    N     N_R   0.690752 0.910890 0.056046 0.244292
O13   O     O_R   0.576887 0.987780 0.086609 -0.326150
O14   O     O_R   0.839851 0.981532 0.040545 -0.329626
N6    N     N_R   0.309298 0.088870 0.943962 0.244298
O15   O     O_R   0.423167 0.011964 0.913408 -0.326089
O16   O     O_R   0.160189 0.018243 0.959457 -0.329626
H13   H     H_    0.790268 0.460213 0.775797 0.147792
H14   H     H_    0.209931 0.540505 0.224196 0.147815

loop_
_geom_bond_atom_site_label_1
_geom_bond_atom_site_label_2
_geom_bond_distance
_ccdc_geom_bond_type
C19   C21   1.388474 A    
O5    Zn1   1.987376 S    
C16   N6    1.435097 S    
O7    Zn2   2.011463 S    
C20   H14   1.083247 S    
C5    O9    1.350375 S    
C19   H13   1.083200 S    
O6    C4    1.293776 A    
C15   C17   1.393729 A    
C23   C25   1.403796 A    
C17   H1    1.083738 S    
N6    O16   1.300832 A    
C27   C29   1.397218 A    
C20   C30   1.396890 A    
N3    H11   1.029291 S    
C25   C27   1.386142 A    
C11   C12   1.407733 A    
C8    O12   1.348676 S    
N5    O14   1.300851 A    
C31   C32   1.335610 D    
C16   C18   1.393731 A    
N6    O15   1.301111 A    
C9    C15   1.419205 A    
C19   C29   1.396859 A    
N3    N4    1.272035 D    
C4    C24   1.457802 S    
Zn1   N4    2.012446 S    
C10   C16   1.419217 A    
C28   H8    1.083349 S    
O5    C3    1.293780 A    
Zn2   N3    2.012444 S    
O7    C3    1.294273 A    
C12   C14   1.408844 A    
C28   C30   1.397252 A    
O3    Zn2   1.978323 S    
C15   N5    1.435099 S    
O1    C1    1.274974 A    
O8    C4    1.294271 A    
C10   C12   1.418454 A    
C6    N2    1.362584 A    
C20   C22   1.388479 A    
C8    C10   1.406557 A    
N2    C8    1.365626 A    
C31   H9    1.087865 S    
C9    C11   1.418461 A    
C6    C14   1.394070 A    
O2    Zn2   1.956395 S    
C26   H6    1.083318 S    
C3    C23   1.457813 S    
C5    C13   1.394073 A    
O4    C2    1.284447 A    
O1    Zn1   1.956395 S    
N5    O13   1.301120 A    
C22   C24   1.405161 A    
C11   C13   1.408851 A    
C21   H3    1.083262 S    
C14   C17   1.399753 A    
N4    H12   1.029290 S    
C7    O11   1.348679 S    
C25   H5    1.083268 S    
C13   C18   1.399745 A    
C5    N1    1.362558 A    
C27   H7    1.083304 S    
C26   C28   1.386143 A    
C6    O10   1.350377 S    
N1    C7    1.365600 A    
C21   C23   1.405101 A    
O6    Zn2   1.987376 S    
N2    C29   1.421862 S    
C7    C9    1.406544 A    
C32   H10   1.087864 S    
N1    C30   1.421800 S    
C1    C31   1.401655 S    
C24   C26   1.403857 A    
O2    C2    1.274973 A    
O4    Zn1   1.978324 S    
C2    C32   1.401655 S    
C22   H4    1.083309 S    
O3    C1    1.284448 A    
O8    Zn1   2.011463 S    
C18   H2    1.083737 S    
