data_mof_unit_32691.cif
_audit_creation_date              2012-12-11T15:53:31-0500
_audit_creation_method            fapswitch 2.2
_symmetry_space_group_name_H-M    P1
_symmetry_Int_Tables_number       1
_space_group_crystal_system       triclinic
_cell_length_a                    6.931964
_cell_length_b                    14.548967
_cell_length_c                    15.967475
_cell_angle_alpha                 90.481352
_cell_angle_beta                  90.067262
_cell_angle_gamma                 90.035391
_cell_volume                      1610.30815058

loop_
_atom_site_label
_atom_site_type_symbol
_atom_type_description
_atom_site_fract_x
_atom_site_fract_y
_atom_site_fract_z
_atom_type_partial_charge
O1    O     O_R   0.361600 0.167310 0.164620 -0.544451
O2    O     O_R   0.638400 0.832690 0.835380 -0.544451
O3    O     O_R   0.691080 0.157570 0.338750 -0.547724
O4    O     O_R   0.308920 0.842430 0.661250 -0.547724
O5    O     O_R   0.861410 0.336420 0.339360 -0.526436
O6    O     O_R   0.138590 0.663580 0.660640 -0.526436
C1    C     C_R   0.522053 0.135202 0.367479 0.687001
C2    C     C_R   0.477947 0.864798 0.632521 0.687001
O7    O     O_R   0.691320 0.156280 0.165240 -0.546791
O8    O     O_R   0.308680 0.843720 0.834760 -0.546791
O9    O     O_R   0.861640 0.335130 0.164600 -0.539041
O10   O     O_R   0.138360 0.664870 0.835400 -0.539041
C3    C     C_R   0.522201 0.133807 0.136078 0.679131
C4    C     C_R   0.477798 0.866192 0.863922 0.679131
O11   O     O_R   0.361370 0.168600 0.339370 -0.544009
O12   O     O_R   0.638630 0.831400 0.660630 -0.544009
O13   O     O_3   0.527990 0.310540 0.251980 -0.357363
O14   O     O_3   0.472010 0.689460 0.748020 -0.357363
V1    V     V_3+5 0.802830 0.240980 0.251990 1.439866
V2    V     V_3+5 0.197170 0.759020 0.748010 1.439866
O15   O     O_R   0.191360 0.346160 0.165220 -0.544955
O16   O     O_R   0.808640 0.653840 0.834780 -0.544955
C5    C     C_R   0.022274 0.368235 0.136057 0.700233
C6    C     C_R   0.977726 0.631765 0.863943 0.700233
O17   O     O_R   0.191130 0.347440 0.338740 -0.540363
O18   O     O_R   0.808870 0.652560 0.661260 -0.540363
C7    C     C_R   0.022442 0.369541 0.367607 0.772289
C8    C     C_R   0.977558 0.630459 0.632393 0.772289
V3    V     V_3+5 0.302840 0.262750 0.251990 1.445907
V4    V     V_3+5 0.697160 0.737250 0.748010 1.445907
O19   O     O_3   0.027820 0.193180 0.251990 -0.381099
O20   O     O_3   0.972180 0.806820 0.748010 -0.381099
C9    C     C_3   0.923229 0.419458 0.524748 -0.278911
C10   C     C_3   0.076771 0.580542 0.475251 -0.278911
C11   C     C_3   0.095975 0.469578 0.565743 0.707229
C12   C     C_3   0.904025 0.530422 0.434257 0.707229
H1    H     H_    0.862249 0.352835 0.545414 0.154737
H2    H     H_    0.137751 0.647165 0.454586 0.154737
C13   C     C_3   0.987527 0.561269 0.562032 -0.190428
C14   C     C_3   0.012473 0.438731 0.437968 -0.190428
C15   C     C_3   0.813017 0.512453 0.520752 -0.248088
C16   C     C_3   0.186983 0.487547 0.479248 -0.248088
H3    H     H_    0.659126 0.523436 0.537137 0.164876
H4    H     H_    0.340873 0.476564 0.462863 0.164876
C17   C     C_R   0.820591 0.525201 0.967337 -0.143668
C18   C     C_R   0.179409 0.474799 0.032662 -0.143668
H5    H     H_    0.679821 0.543579 0.943292 0.119815
H6    H     H_    0.320178 0.456421 0.056707 0.119815
C19   C     C_R   0.831584 0.462172 0.033047 -0.129905
C20   C     C_R   0.168416 0.537828 0.966953 -0.129905
H7    H     H_    0.698750 0.433809 0.057391 0.120714
H8    H     H_    0.301250 0.566191 0.942609 0.120714
C21   C     C_R   0.011152 0.436065 0.066689 -0.043043
C22   C     C_R   0.988848 0.563934 0.933311 -0.043043
C23   C     C_R   0.679430 0.026052 0.468034 -0.148730
C24   C     C_R   0.320570 0.973948 0.531966 -0.148731
H9    H     H_    0.820135 0.045005 0.444376 0.116250
H10   H     H_    0.179865 0.954995 0.555624 0.116250
C25   C     C_R   0.668506 0.960897 0.531809 -0.139847
C26   C     C_R   0.331494 0.039103 0.468191 -0.139847
H11   H     H_    0.801321 0.931617 0.555321 0.117660
H12   H     H_    0.198679 0.068383 0.444679 0.117661
C27   C     C_R   0.488931 0.933988 0.564663 -0.044400
C28   C     C_R   0.511069 0.066012 0.435337 -0.044400
C29   C     C_R   0.679408 0.025656 0.032821 -0.149216
C30   C     C_R   0.320592 0.974344 0.967179 -0.149216
H13   H     H_    0.820147 0.044387 0.057014 0.116462
H14   H     H_    0.179853 0.955613 0.942986 0.116462
C31   C     C_R   0.668477 0.961587 0.967062 -0.145203
C32   C     C_R   0.331523 0.038413 0.032938 -0.145203
C33   C     C_R   0.488917 0.935052 0.933297 -0.043974
C34   C     C_R   0.511083 0.064948 0.066703 -0.043974
F1    F     F_    0.195967 0.438275 0.634812 -0.682373
F2    F     F_    0.804033 0.561725 0.365188 -0.682373
H15   H     H_    0.801299 0.932767 0.942787 0.117849
H16   H     H_    0.198701 0.067232 0.057213 0.117849

loop_
_geom_bond_atom_site_label_1
_geom_bond_atom_site_label_2
_ccdc_geom_bond_type
C30   H14   S    
O11   V3    S    
C23   C25   A    
O13   V3    S    
C4    C33   S    
C10   C16   S    
O4    C2    A    
V1    O19   S    
C13   C15   S    
O9    V1    S    
C20   C22   A    
O3    C1    A    
C19   C21   A    
C6    C22   S    
C26   H12   S    
C31   C33   A    
C11   C16   S    
O7    C3    A    
O13   V1    S    
O5    C7    A    
O7    V1    S    
O6    C8    A    
O8    V2    S    
C19   H7    S    
C20   H8    S    
O3    V1    S    
O14   V4    S    
C10   C12   S    
C1    O11   A    
C2    O12   A    
C15   H3    S    
C12   C15   S    
C16   H4    S    
C5    C21   S    
C17   H5    S    
O17   V3    S    
C18   H6    S    
C25   H11   S    
C9    C14   S    
C10   C13   S    
C12   C14   S    
O8    C4    A    
C8    C13   S    
C29   H13   S    
O15   V3    S    
C9    H1    S    
C24   C26   A    
C11   C13   S    
C30   C33   A    
C17   C19   A    
C7    C14   S    
C23   C28   A    
O10   V2    S    
O1    V3    S    
C24   C27   A    
C12   F2    S    
C17   C22   A    
O18   V4    S    
C23   H9    S    
C32   H16   S    
O16   C6    A    
O1    C3    A    
V2    O20   S    
C18   C20   A    
C11   F1    S    
O16   V4    S    
C10   H2    S    
C25   C27   A    
C14   C16   S    
O5    V1    S    
C3    C34   S    
O17   C7    A    
C29   C34   A    
O6    V2    S    
O10   C6    A    
O18   C8    A    
O2    V4    S    
C26   C28   A    
C9    C15   S    
O15   C5    A    
V3    O19   S    
V4    O20   S    
C30   C32   A    
C29   C31   A    
C18   C21   A    
O9    C5    A    
C9    C11   S    
C24   H10   S    
C31   H15   S    
O14   V2    S    
O2    C4    A    
C1    C28   S    
C2    C27   S    
O4    V2    S    
C32   C34   A    
O12   V4    S    
