data_mof_unit_18291.cif
_audit_creation_date              2012-12-10T17:22:34-0500
_audit_creation_method            fapswitch 2.2
_symmetry_space_group_name_H-M    P1
_symmetry_Int_Tables_number       1
_space_group_crystal_system       triclinic
_cell_length_a                    18.923491
_cell_length_b                    19.05476
_cell_length_c                    18.576608
_cell_angle_alpha                 109.490128
_cell_angle_beta                  109.465885
_cell_angle_gamma                 110.056755
_cell_volume                      5117.82063973

loop_
_atom_site_label
_atom_site_type_symbol
_atom_type_description
_atom_site_fract_x
_atom_site_fract_y
_atom_site_fract_z
_atom_type_partial_charge
C1    C     C_R   0.380402 0.380075 0.500334 0.860858
C2    C     C_R   0.324646 0.320390 0.581236 0.082329
C3    C     C_3   0.951670 0.006282 0.827981 -0.936586
C4    C     C_3   0.186998 0.987965 0.427048 -0.858214
C5    C     C_3   0.658517 0.598511 0.814833 -0.870547
C6    C     C_R   0.185135 0.186956 0.499749 -0.209034
C7    C     C_R   0.615357 0.496371 0.622049 0.835186
C8    C     C_R   0.176743 0.176883 0.417465 0.080779
C9    C     C_R   0.239777 0.242947 0.417519 0.077135
C10   C     C_R   0.313953 0.313458 0.499648 -0.206425
C11   C     C_R   0.106988 0.102388 0.334577 -0.155440
C12   C     C_R   0.097365 0.096541 0.254915 -0.142326
C13   C     C_R   0.156397 0.164020 0.255081 -0.141700
C14   C     C_R   0.226768 0.236240 0.334892 -0.157792
C15   C     C_3   0.808014 0.501999 0.811854 0.144333
C16   C     C_R   0.224271 0.499310 0.392029 0.196718
C17   C     C_R   0.177975 0.537561 0.417600 0.257097
C18   C     C_R   0.136141 0.564848 0.365710 -0.182906
C19   C     C_R   0.616923 0.619898 0.496946 0.895017
C20   C     C_R   0.135954 0.550241 0.287500 -0.220946
C21   C     C_R   0.186712 0.517733 0.264149 0.032616
C22   C     C_R   0.240370 0.502437 0.322417 0.024434
C23   C     C_R   0.183095 0.498488 0.182617 -0.141227
C24   C     C_R   0.239367 0.474724 0.161891 0.019169
C25   C     C_R   0.307629 0.480145 0.228208 0.031749
C26   C     C_3   0.844682 0.555126 0.771959 -0.378791
C27   C     C_R   0.306848 0.491565 0.308081 -0.175710
C28   C     C_R   0.229874 0.447816 0.076660 -0.214677
C29   C     C_R   0.292039 0.434810 0.059197 0.251580
C30   C     C_R   0.367008 0.451668 0.128742 0.240744
C31   C     C_R   0.377846 0.497838 0.377865 0.870890
C32   C     C_R   0.374580 0.474834 0.212175 -0.215697
C33   C     C_R   0.599780 0.764436 0.475763 0.221044
C34   C     C_R   0.607957 0.846112 0.500837 -0.145913
C35   C     C_R   0.686895 0.917992 0.533343 -0.189892
C36   C     C_R   0.756297 0.907796 0.534472 -0.140042
C37   C     C_3   0.764301 0.542525 0.856929 0.031810
C38   C     C_R   0.749525 0.825700 0.508540 0.033354
C39   C     C_R   0.675456 0.756574 0.491939 0.061686
C40   C     C_R   0.815218 0.811424 0.498957 -0.198863
C41   C     C_R   0.820337 0.737903 0.497581 0.062576
C42   C     C_R   0.760153 0.683518 0.510667 0.041587
C43   C     C_3   0.671169 0.407492 0.660877 -0.465230
C44   C     C_R   0.683256 0.686315 0.496903 -0.202310
C45   C     C_R   0.884351 0.717251 0.488677 0.214824
C46   C     C_R   0.900554 0.661484 0.516176 -0.138041
C47   C     C_R   0.849417 0.619064 0.543403 -0.204102
C48   C     C_R   0.402285 0.385902 0.663136 -0.159364
C49   C     C_R   0.778176 0.627417 0.537717 -0.149477
C50   C     C_R   0.998822 0.380119 0.878291 0.874407
C51   C     C_R   0.876645 0.499868 0.876519 0.836689
C52   C     C_R   0.995314 0.619249 0.115480 0.858306
C53   C     C_R   0.117561 0.499946 0.117451 0.850644
C54   C     C_R   0.001157 0.881435 0.379457 0.876695
C55   C     C_3   0.738177 0.407476 0.735162 -0.484185
C56   C     C_R   0.119733 0.120659 0.500545 0.853788
C57   C     C_R   0.999573 0.118731 0.620266 0.854434
C58   C     C_R   0.880435 0.877784 0.497986 0.874036
C59   C     C_R   0.407830 0.396971 0.743181 -0.157425
C60   C     C_R   0.000940 0.386436 0.719052 0.221537
C61   C     C_R   0.038335 0.408433 0.669521 0.254132
C62   C     C_R   0.068434 0.358338 0.630742 -0.186875
C63   C     C_R   0.056482 0.284600 0.635849 -0.205716
C64   C     C_R   0.023181 0.264457 0.688511 0.033215
C65   C     C_R   0.007349 0.322560 0.740823 0.018043
C66   C     C_R   0.004273 0.186603 0.688876 -0.159032
C67   C     C_3   0.772581 0.562031 0.711485 -0.414926
C68   C     C_R   0.990484 0.174216 0.754668 0.024959
C69   C     C_R   0.997914 0.242656 0.822355 0.072235
C70   C     C_R   0.336736 0.343205 0.743547 -0.134801
C71   C     C_R   0.999645 0.313825 0.811904 -0.196327
C72   C     C_R   0.972069 0.096120 0.755976 -0.179417
C73   C     C_R   0.970706 0.089629 0.828259 0.263717
C74   C     C_R   0.989361 0.161799 0.900785 -0.140195
C75   C     C_R   0.003373 0.237508 0.898375 -0.200460
C76   C     C_R   0.152311 0.743474 0.279667 -0.149473
C77   C     C_R   0.232325 0.810192 0.353042 -0.189515
C78   C     C_R   0.239938 0.887035 0.404346 -0.150374
C79   C     C_3   0.679597 0.526163 0.783075 0.040020
C80   C     C_R   0.166545 0.896189 0.385356 0.218447
C81   C     C_R   0.261821 0.275401 0.663830 -0.151943
C82   C     C_R   0.080829 0.822234 0.319710 0.064566
C83   C     C_R   0.076098 0.749345 0.260681 0.036078
C84   C     C_R   0.000457 0.816500 0.310551 -0.212263
C85   C     C_R   0.918037 0.743494 0.238361 0.074490
C86   C     C_R   0.916284 0.679116 0.171784 0.082061
C87   C     C_R   0.995669 0.683630 0.183523 -0.194113
C88   C     C_R   0.836632 0.731863 0.230594 -0.156742
C89   C     C_R   0.757536 0.662764 0.156512 -0.137782
C90   C     C_R   0.756544 0.602868 0.088432 -0.160638
C91   C     C_3   0.682703 0.499310 0.693796 0.139458
C92   C     C_R   0.256513 0.260272 0.581427 0.069254
C93   C     C_R   0.834606 0.610350 0.095863 -0.167607
C94   C     C_3   0.829980 0.639306 0.930080 -0.905968
C95   C     C_3   0.439034 0.444757 0.114906 -0.929054
C96   C     C_3   0.239471 0.442724 0.428111 -0.836996
C97   C     C_3   0.169645 0.546522 0.497860 -0.945199
C98   C     C_3   0.278421 0.405203 0.967044 -0.919129
C99   C     C_3   0.508221 0.689226 0.421507 -0.889096
C100  C     C_3   0.928476 0.741048 0.440049 -0.865520
C101  C     C_3   0.942351 0.419931 0.732429 -0.893277
C102  C     C_3   0.044341 0.483376 0.655394 -0.940958
H1    H     H_    0.680785 0.387848 0.602915 0.214313
H2    H     H_    0.862113 0.575917 0.564390 0.141714
H3    H     H_    0.704089 0.369950 0.759916 0.189596
H4    H     H_    0.692942 0.980976 0.553062 0.149949
H5    H     H_    0.815590 0.965231 0.557171 0.144224
H6    H     H_    0.951140 0.648201 0.513218 0.139872
H7    H     H_    0.737955 0.590398 0.555998 0.148169
H8    H     H_    0.992304 0.159476 0.959131 0.137097
H9    H     H_    0.096437 0.373162 0.591772 0.153429
H10   H     H_    0.959249 0.039637 0.701595 0.152114
H11   H     H_    0.019712 0.291717 0.957459 0.165290
H12   H     H_    0.459843 0.428684 0.666554 0.136751
H13   H     H_    0.151200 0.687053 0.238680 0.147382
H14   H     H_    0.289553 0.804112 0.366965 0.148554
H15   H     H_    0.304384 0.941529 0.456322 0.141077
H16   H     H_    0.773142 0.544951 0.648577 0.158972
H17   H     H_    0.830888 0.773873 0.280971 0.160741
H18   H     H_    0.696735 0.655912 0.151940 0.135784
H19   H     H_    0.624229 0.468218 0.770574 0.112819
H20   H     H_    0.743519 0.507672 0.890311 0.119032
H21   H     H_    0.804779 0.662811 0.973026 0.251870
H22   H     H_    0.892887 0.648555 0.974171 0.234642
H23   H     H_    0.340033 0.353162 0.805746 0.138162
H24   H     H_    0.843313 0.681499 0.901430 0.256414
H25   H     H_    0.786183 0.629710 0.741432 0.177156
H26   H     H_    0.901121 0.621131 0.823894 0.191733
H27   H     H_    0.148198 0.160134 0.193076 0.137039
H28   H     H_    0.467132 0.448073 0.805043 0.130491
H29   H     H_    0.208423 0.235963 0.668174 0.150906
H30   H     H_    0.465933 0.490861 0.094064 0.242621
H31   H     H_    0.493436 0.460125 0.176289 0.239222
H32   H     H_    0.413315 0.377843 0.063104 0.246600
H33   H     H_    0.261609 0.403975 0.393768 0.210487
H34   H     H_    0.058707 0.046826 0.328606 0.158661
H35   H     H_    0.286215 0.483045 0.500254 0.271114
H36   H     H_    0.177163 0.394729 0.416513 0.225100
H37   H     H_    0.135422 0.582251 0.510411 0.235940
H38   H     H_    0.131994 0.481768 0.488481 0.244372
H39   H     H_    0.235467 0.582958 0.557362 0.246176
H40   H     H_    0.095783 0.565359 0.245936 0.153262
H41   H     H_    0.173851 0.436633 0.022687 0.150870
H42   H     H_    0.277204 0.342954 0.941098 0.244035
H43   H     H_    0.215756 0.394796 0.920426 0.242879
H44   H     H_    0.331961 0.454635 0.968182 0.242035
H45   H     H_    0.043402 0.039531 0.192759 0.136848
H46   H     H_    0.504868 0.627746 0.386423 0.215311
H47   H     H_    0.479768 0.687732 0.464633 0.266970
H48   H     H_    0.468097 0.697110 0.368918 0.228967
H49   H     H_    0.551936 0.853551 0.492276 0.140127
H50   H     H_    0.897318 0.765304 0.401442 0.215976
H51   H     H_    0.998861 0.788217 0.487681 0.267668
H52   H     H_    0.921820 0.682665 0.390946 0.224646
H53   H     H_    0.901750 0.385570 0.754085 0.219145
H54   H     H_    0.982120 0.490557 0.779973 0.268834
H55   H     H_    0.895079 0.407599 0.668355 0.216576
H56   H     H_    0.604127 0.358546 0.639313 0.164424
H57   H     H_    0.080737 0.494540 0.620336 0.240363
H58   H     H_    0.978228 0.470572 0.614964 0.241661
H59   H     H_    0.079152 0.543525 0.720325 0.245479
H60   H     H_    0.768393 0.373657 0.707669 0.182719
H61   H     H_    0.075430 0.244536 0.599665 0.151330
H62   H     H_    0.953118 0.011006 0.889751 0.236654
H63   H     H_    0.885995 0.953419 0.770907 0.249096
H64   H     H_    0.001036 0.989780 0.821845 0.246956
H65   H     H_    0.695104 0.549737 0.030053 0.131093
H66   H     H_    0.211933 0.014503 0.498929 0.267476
H67   H     H_    0.269675 0.285997 0.329427 0.158206
H68   H     H_    0.238534 0.028100 0.418435 0.224448
H69   H     H_    0.130488 0.993313 0.394686 0.216640
H70   H     H_    0.829066 0.561367 0.040651 0.163493
H71   H     H_    0.868424 0.522447 0.732631 0.175300
H72   H     H_    0.699915 0.656697 0.815481 0.263751
H73   H     H_    0.588621 0.575118 0.773388 0.244003
H74   H     H_    0.667384 0.616700 0.881817 0.229712
H75   H     H_    0.098567 0.592401 0.382574 0.152588
H76   H     H_    0.434647 0.490026 0.263691 0.175055
O1    O     O_R   0.408690 0.356690 0.448570 -0.625038
O2    O     O_R   0.052500 0.908420 0.460860 -0.614616
O3    O     O_R   0.039610 0.091640 0.448030 -0.627315
O4    O     O_R   0.408090 0.460090 0.551440 -0.634110
O5    O     O_R   0.143600 0.091610 0.551990 -0.627968
O6    O     O_R   0.947500 0.091600 0.539170 -0.613166
O7    O     O_R   0.051490 0.091570 0.643140 -0.629681
O8    O     O_R   0.856400 0.908420 0.448030 -0.625597
O9    O     O_R   0.960390 0.908390 0.552000 -0.615160
O10   O     O_R   0.592400 0.448300 0.540670 -0.630159
O11   O     O_R   0.591800 0.551700 0.643540 -0.624517
O12   O     O_R   0.049540 0.460090 0.906170 -0.612345
O13   O     O_R   0.591910 0.539910 0.448560 -0.625343
O14   O     O_R   0.591310 0.643310 0.551430 -0.605621
O15   O     O_R   0.408200 0.448300 0.356460 -0.638184
O16   O     O_R   0.407600 0.551700 0.459330 -0.614685
O17   O     O_R   0.946100 0.356720 0.906240 -0.622686
O18   O     O_R   0.853530 0.448360 0.905250 -0.639847
O19   O     O_R   0.956970 0.551730 0.905180 -0.634466
O20   O     O_R   0.945170 0.540000 0.088470 -0.630195
O21   O     O_R   0.048600 0.643370 0.088400 -0.615336
O22   O     O_R   0.037740 0.448360 0.089460 -0.622472
O23   O     O_R   0.141170 0.551730 0.089390 -0.622913
O24   O     O_R   0.948510 0.908450 0.356890 -0.639790
Zn1   Zn    Zn3+2 0.500400 0.430960 0.431310 0.935918
Zn2   Zn    Zn3+2 0.499600 0.569040 0.568690 0.925895
Zn3   Zn    Zn3+2 0.928290 0.431030 0.997370 0.937480
Zn4   Zn    Zn3+2 0.066410 0.569060 0.997270 0.939813
Zn5   Zn    Zn3+2 0.930570 0.000030 0.430590 0.941802
Zn6   Zn    Zn3+2 0.069430 0.999990 0.569430 0.927658

loop_
_geom_bond_atom_site_label_1
_geom_bond_atom_site_label_2
_ccdc_geom_bond_type
C100  H51   S    
C66   C68   A    
C99   H46   S    
C72   H10   S    
C59   H28   S    
O22   Zn3   S    
C4    H69   S    
C90   H65   S    
C58   O8    A    
C5    H72   S    
C83   C87   A    
C35   C36   A    
C57   C66   S    
C9    C14   A    
C43   H56   S    
C54   C84   S    
C47   C49   A    
C45   C46   A    
C100  H50   S    
C63   H61   S    
C12   C13   A    
C37   C79   S    
C33   C39   A    
O6    Zn5   S    
C4    H68   S    
C29   C98   S    
C55   H3    S    
O4    Zn2   S    
C26   C67   S    
C12   H45   S    
C48   H12   S    
C28   C29   A    
O3    Zn5   S    
C4    C80   S    
O2    Zn6   S    
C51   O18   A    
C8    C11   A    
C96   H36   S    
C38   C39   A    
C78   C80   A    
C81   H29   S    
C56   O3    A    
C101  H53   S    
C95   H31   S    
C76   H13   S    
C17   C18   A    
C34   C35   A    
C41   C42   A    
O18   Zn3   S    
C69   C71   A    
C70   C81   A    
C15   C37   S    
C51   O19   A    
C68   C69   A    
C81   C92   A    
C84   C85   A    
O12   Zn4   S    
C62   H9    S    
C18   H75   S    
C16   C17   A    
C46   H6    S    
O9    Zn6   S    
O23   Zn4   S    
C54   O24   A    
C75   H11   S    
C93   H70   S    
C15   C51   S    
C5    C79   S    
C77   H14   S    
C9    C10   A    
C101  H54   S    
C97   H38   S    
C79   C91   S    
C77   C78   A    
C19   O14   A    
C94   H21   S    
C25   C32   A    
C42   C49   A    
O16   Zn2   S    
O11   Zn2   S    
C38   C40   A    
C21   C22   A    
O20   Zn3   S    
O5    Zn6   S    
C5    H73   S    
O7    Zn6   S    
C32   H76   S    
O19   Zn4   S    
C42   C44   A    
C14   H67   S    
C50   O12   A    
C98   H43   S    
C76   C83   A    
C23   C53   S    
C96   H33   S    
C43   H1    S    
C94   H24   S    
C73   C74   A    
C99   H48   S    
C16   C96   S    
C40   C58   S    
C74   C75   A    
C27   C31   S    
C20   H40   S    
C7    O10   A    
C78   H15   S    
C76   C77   A    
C80   C82   A    
C102  H58   S    
C96   H35   S    
C31   O15   A    
C86   C87   A    
C8    C9    A    
C15   C26   S    
C6    C8    A    
C98   H44   S    
C26   H71   S    
C2    C48   A    
C85   C86   A    
O21   Zn4   S    
C43   C91   S    
C37   H20   S    
C60   C61   A    
C33   C99   S    
C15   C55   S    
C50   C71   S    
C30   C95   S    
C86   C93   A    
C67   H25   S    
C79   H19   S    
C50   O17   A    
O17   Zn3   S    
C89   H18   S    
C68   C72   A    
C7    C91   S    
C20   C21   A    
C62   C63   A    
C67   C91   S    
C33   C34   A    
O14   Zn2   S    
C48   C59   A    
C28   H41   S    
C26   H26   S    
C41   C45   A    
C24   C25   A    
C88   H17   S    
C2    C92   A    
C97   H39   S    
C3    H62   S    
O8    Zn5   S    
C70   H23   S    
C43   C55   S    
C40   C41   A    
C52   O21   A    
O1    Zn1   S    
C60   C65   A    
C82   C84   A    
C22   C27   A    
O13   Zn1   S    
C95   H30   S    
C5    H74   S    
C52   O20   A    
C60   C101  S    
C2    C10   A    
C19   C44   S    
C3    H63   S    
C90   C93   A    
C49   H7    S    
C85   C88   A    
C100  H52   S    
C46   C47   A    
C16   C22   A    
C47   H2    S    
C98   H42   S    
C58   O9    A    
C53   O22   A    
C57   O7    A    
C52   C87   S    
C1    C10   S    
C24   C28   A    
C55   H60   S    
C6    C56   S    
C72   C73   A    
C45   C100  S    
C102  H57   S    
C74   H8    S    
C31   O16   A    
C34   H49   S    
C39   C44   A    
C56   O5    A    
C25   C27   A    
O10   Zn1   S    
O15   Zn1   S    
O24   Zn5   S    
C64   C65   A    
C21   C23   A    
C61   C102  S    
C35   H4    S    
C65   C71   A    
C11   H34   S    
C30   C32   A    
C1    O1    A    
C102  H59   S    
C6    C92   A    
C36   C38   A    
C99   H47   S    
C54   O2    A    
C37   C94   S    
C69   C75   A    
C18   C20   A    
C95   H32   S    
C61   C62   A    
C3    C73   S    
C67   H16   S    
C53   O23   A    
C1    O4    A    
C59   C70   A    
C23   C24   A    
C29   C30   A    
C63   C64   A    
C4    H66   S    
C88   C89   A    
C3    H64   S    
C82   C83   A    
C19   O13   A    
C13   H27   S    
C7    O11   A    
C89   C90   A    
C13   C14   A    
C17   C97   S    
C97   H37   S    
C57   O6    A    
C101  H55   S    
C11   C12   A    
C64   C66   A    
C36   H5    S    
C94   H22   S    
