data_mof_unit_17156.cif
_audit_creation_date              2012-12-10T17:10:53-0500
_audit_creation_method            fapswitch 2.2
_symmetry_space_group_name_H-M    P1
_symmetry_Int_Tables_number       1
_space_group_crystal_system       triclinic
_cell_length_a                    18.510035
_cell_length_b                    18.418328
_cell_length_c                    18.259707
_cell_angle_alpha                 89.774945
_cell_angle_beta                  119.478382
_cell_angle_gamma                 121.413421
_cell_volume                      4349.53003785

loop_
_atom_site_label
_atom_site_type_symbol
_atom_type_description
_atom_site_fract_x
_atom_site_fract_y
_atom_site_fract_z
_atom_type_partial_charge
C1    C     C_R   0.995933 0.857762 0.637697 0.812428
C2    C     C_R   0.195784 0.425099 0.321811 0.189168
C3    C     C_R   0.096950 0.341971 0.286231 0.015869
C4    C     C_R   0.997770 0.141364 0.360612 0.809961
C5    C     C_R   0.079874 0.295747 0.343968 -0.011807
C6    C     C_R   0.997229 0.200936 0.306508 -0.099391
C7    C     C_R   0.920238 0.161096 0.213278 0.207362
C8    C     C_R   0.929552 0.213264 0.159252 -0.321404
C9    C     C_R   0.013837 0.303785 0.195008 -0.093475
C10   C     C_R   0.607865 0.911043 0.393374 -0.202472
C11   C     C_R   0.557535 0.943281 0.400437 -0.197558
C12   C     C_3   0.940713 0.239726 0.637770 0.389764
C13   C     C_R   0.454705 0.903236 0.333434 -0.209917
C14   C     C_R   0.398183 0.825955 0.261478 0.229014
C15   C     C_R   0.446545 0.786941 0.258093 0.061466
C16   C     C_R   0.279653 0.141524 0.640490 0.894416
C17   C     C_R   0.554910 0.835010 0.320320 0.011071
C18   C     C_R   0.607038 0.806978 0.305992 -0.107287
C19   C     C_R   0.550548 0.727436 0.235816 0.218710
C20   C     C_R   0.443478 0.675639 0.181728 -0.316011
C21   C     C_R   0.391583 0.703080 0.193722 -0.115958
C22   C     C_R   0.795106 0.690032 0.602635 0.166581
C23   C     C_3   0.002004 0.201265 0.698342 -0.139995
C24   C     C_R   0.713585 0.596917 0.560476 -0.247148
C25   C     C_R   0.728468 0.532386 0.589590 0.190633
C26   C     C_R   0.823462 0.562505 0.669524 0.152245
C27   C     C_R   0.905458 0.656617 0.714035 -0.033599
C28   C     C_R   0.719872 0.861721 0.360490 0.819295
C29   C     C_R   0.896744 0.717806 0.670173 -0.042143
C30   C     C_R   0.990781 0.801341 0.694126 -0.084428
C31   C     C_R   0.085497 0.828046 0.769812 -0.265970
C32   C     C_R   0.090064 0.775300 0.824021 0.170334
C33   C     C_R   0.999066 0.690839 0.798301 -0.084031
C34   C     C_3   0.996208 0.296068 0.801223 -0.184091
C35   C     C_R   0.199049 0.920620 0.389199 0.265794
C36   C     C_R   0.290341 0.927386 0.427893 -0.144054
C37   C     C_R   0.287573 0.857214 0.396158 -0.239688
C38   C     C_R   0.196257 0.782768 0.321222 -0.196626
C39   C     C_R   0.101733 0.771860 0.281422 0.034432
C40   C     C_R   0.000587 0.860834 0.358613 0.818593
C41   C     C_R   0.102613 0.836358 0.324293 0.010645
C42   C     C_R   0.006833 0.814183 0.301039 -0.119565
C43   C     C_R   0.913853 0.740544 0.226365 -0.272884
C44   C     C_R   0.912866 0.685723 0.173803 0.194877
C45   C     C_3   0.110741 0.342950 0.831187 -0.058649
C46   C     C_R   0.006344 0.699913 0.201002 -0.121004
C47   C     C_R   0.390645 0.146324 0.825404 0.256001
C48   C     C_R   0.435958 0.121049 0.896531 -0.251803
C49   C     C_R   0.529029 0.137195 0.925743 -0.201776
C50   C     C_R   0.582390 0.183362 0.887306 0.251468
C51   C     C_R   0.545574 0.223933 0.825770 -0.093790
C52   C     C_R   0.001687 0.142151 0.642269 0.870205
C53   C     C_R   0.441516 0.190487 0.784017 -0.006038
C54   C     C_R   0.391694 0.202816 0.702520 -0.137675
C55   C     C_R   0.449173 0.268845 0.676598 0.125130
C56   C     C_3   0.932289 0.290768 0.700423 -0.101773
C57   C     C_R   0.556895 0.318425 0.729870 0.130349
C58   C     C_R   0.605894 0.296451 0.803992 -0.170924
C59   C     C_R   0.279819 0.640476 0.139497 0.879324
C60   C     C_R   0.719581 0.357892 0.862131 0.860814
C61   C     C_R   0.005197 0.359958 0.139505 0.866657
C62   C     C_R   0.001663 0.640444 0.860533 0.875837
C63   C     C_R   0.002211 0.642087 0.142095 0.819942
C64   C     C_3   0.946483 0.141279 0.742569 -0.036071
C65   C     C_R   0.999627 0.357548 0.859094 0.834263
C66   C     C_3   0.946477 0.196423 0.808323 0.411692
C67   C     C_R   0.144297 0.347265 0.435808 -0.288051
C68   C     C_3   0.115911 0.284294 0.775543 -0.033324
C69   C     C_3   0.072967 0.101064 0.829010 -0.773843
C70   C     C_3   0.270646 0.348684 0.771639 -0.783838
C71   C     C_3   0.752671 0.056090 0.185583 -0.746305
C72   C     C_3   0.269404 0.543961 0.581405 -0.778894
C73   C     C_3   0.359145 0.635385 0.434337 -0.806264
C74   C     C_3   0.248191 0.397736 0.232964 -0.842787
C75   C     C_3   0.632140 0.651985 0.279390 -0.804733
C76   C     C_3   0.288940 0.821116 0.113993 -0.788767
C77   C     C_3   0.669634 0.727191 0.524098 -0.754874
C78   C     C_R   0.232983 0.436239 0.470574 0.159852
C79   C     C_3   0.545666 0.403921 0.468576 -0.858898
C80   C     C_3   0.904112 0.490883 0.680003 -0.817303
C81   C     C_3   0.798684 0.126769 0.831137 -0.714891
C82   C     C_3   0.247183 0.789128 0.888170 -0.745457
C83   C     C_3   0.300709 0.086619 0.462268 -0.822570
C84   C     C_3   0.768335 0.634202 0.021840 -0.721399
C85   C     C_3   0.370270 0.343493 0.602925 -0.718052
C86   C     C_3   0.336845 0.216276 0.874054 -0.852851
C87   C     C_3   0.980841 0.124114 0.931240 -0.749148
C88   C     C_3   0.672220 0.111100 0.938221 -0.826901
C89   C     C_R   0.262469 0.474036 0.414536 0.174067
C90   C     C_3   0.634563 0.472501 0.725578 -0.661207
C91   C     C_3   0.281454 0.454680 0.972658 -0.814058
C92   C     C_3   0.964961 0.355141 0.556869 -0.841325
C93   C     C_3   0.820201 0.131154 0.475984 -0.830494
C94   C     C_3   0.762714 0.262765 0.583762 -0.797460
H1    H     H_    0.688354 0.947003 0.446225 0.177385
H2    H     H_    0.251000 0.282153 0.746079 0.289078
H3    H     H_    0.324547 0.459962 0.944584 0.242510
H4    H     H_    0.327845 0.464736 0.044883 0.225270
H5    H     H_    0.270260 0.508616 0.965845 0.266888
H6    H     H_    0.026735 0.284659 0.581083 0.262975
H7    H     H_    0.007485 0.386782 0.525953 0.229794
H8    H     H_    0.982644 0.411317 0.601184 0.239598
H9    H     H_    0.881451 0.309992 0.502034 0.269937
H10   H     H_    0.784432 0.118628 0.569904 0.212095
H11   H     H_    0.738403 0.098321 0.420145 0.239483
H12   H     H_    0.835766 0.080486 0.479308 0.228783
H13   H     H_    0.324273 0.376487 0.845687 0.225449
H14   H     H_    0.867277 0.184345 0.457886 0.247172
H15   H     H_    0.817120 0.271639 0.714499 0.251725
H16   H     H_    0.810569 0.319347 0.569129 0.253144
H17   H     H_    0.711834 0.274978 0.588023 0.215999
H18   H     H_    0.711336 0.198982 0.527331 0.259449
H19   H     H_    0.133829 0.407158 0.816227 0.178171
H20   H     H_    0.798401 0.039532 0.107762 0.217475
H21   H     H_    0.688007 0.982825 0.157030 0.238549
H22   H     H_    0.721750 0.092964 0.150883 0.215081
H23   H     H_    0.785920 0.080040 0.257785 0.233094
H24   H     H_    0.123736 0.322846 0.481166 0.196808
H25   H     H_    0.295858 0.447820 0.603609 0.224395
H26   H     H_    0.324677 0.585403 0.653570 0.234115
H27   H     H_    0.398253 0.088167 0.929146 0.144613
H28   H     H_    0.189793 0.501944 0.564764 0.234940
H29   H     H_    0.275323 0.590295 0.542072 0.260589
H30   H     H_    0.418637 0.574116 0.516106 0.242179
H31   H     H_    0.388600 0.682088 0.496434 0.236567
H32   H     H_    0.280077 0.613811 0.381452 0.255925
H33   H     H_    0.410416 0.672854 0.412209 0.248673
H34   H     H_    0.289760 0.522150 0.287999 0.267907
H35   H     H_    0.270935 0.423896 0.187336 0.235579
H36   H     H_    0.176663 0.327180 0.194831 0.247308
H37   H     H_    0.311268 0.398290 0.289806 0.245709
H38   H     H_    0.912353 0.010630 0.738867 0.239435
H39   H     H_    0.868618 0.183223 0.088859 0.174000
H40   H     H_    0.561526 0.661978 0.154229 0.223147
H41   H     H_    0.671649 0.632530 0.263370 0.233341
H42   H     H_    0.563447 0.589850 0.270610 0.231595
H43   H     H_    0.687204 0.697152 0.350227 0.242287
H44   H     H_    0.865336 0.093996 0.684365 0.092374
H45   H     H_    0.599679 0.002129 0.456421 0.145861
H46   H     H_    0.419285 0.933864 0.336372 0.142875
H47   H     H_    0.258357 0.804967 0.209224 0.218057
H48   H     H_    0.206333 0.787356 0.059380 0.238852
H49   H     H_    0.069655 0.045539 0.854932 0.225279
H50   H     H_    0.322333 0.801515 0.089026 0.257257
H51   H     H_    0.330536 0.895606 0.132810 0.228523
H52   H     H_    0.400046 0.612186 0.130771 0.151945
H53   H     H_    0.156616 0.891448 0.787962 0.147853
H54   H     H_    0.810432 0.802783 0.649329 0.236436
H55   H     H_    0.670355 0.787821 0.522146 0.251883
H56   H     H_    0.616268 0.682384 0.542173 0.221167
H57   H     H_    0.641610 0.692475 0.456512 0.239274
H58   H     H_    0.638162 0.574583 0.504714 0.177970
H59   H     H_    0.674564 0.402157 0.530638 0.229375
H60   H     H_    0.126513 0.162903 0.888081 0.236564
H61   H     H_    0.494494 0.328856 0.445679 0.238790
H62   H     H_    0.544649 0.425063 0.411218 0.249047
H63   H     H_    0.514810 0.428718 0.492104 0.247718
H64   H     H_    0.777200 0.436629 0.685836 0.226516
H65   H     H_    0.921439 0.446241 0.712681 0.248921
H66   H     H_    0.978887 0.557589 0.706658 0.258097
H67   H     H_    0.863022 0.463477 0.606615 0.226829
H68   H     H_    0.780269 0.119034 0.709196 0.208515
H69   H     H_    0.728688 0.124459 0.800651 0.220265
H70   H     H_    0.855256 0.175687 0.900236 0.280710
H71   H     H_    0.101148 0.106586 0.786615 0.225871
H72   H     H_    0.774887 0.057745 0.831403 0.212514
H73   H     H_    0.229928 0.873532 0.940373 0.215681
H74   H     H_    0.269227 0.827650 0.846855 0.228692
H75   H     H_    0.202483 0.715785 0.853782 0.263365
H76   H     H_    0.318836 0.810726 0.953218 0.227278
H77   H     H_    0.840968 0.724611 0.209277 0.165883
H78   H     H_    0.147030 0.999984 0.354173 0.203858
H79   H     H_    0.286214 0.137310 0.465852 0.242098
H80   H     H_    0.344022 0.104732 0.431448 0.228945
H81   H     H_    0.346836 0.088372 0.531356 0.249676
H82   H     H_    0.971595 0.362244 0.704380 0.156215
H83   H     H_    0.364677 0.987290 0.481409 0.143020
H84   H     H_    0.358006 0.862463 0.427347 0.158909
H85   H     H_    0.203484 0.734630 0.299017 0.191160
H86   H     H_    0.765297 0.569087 0.113803 0.211489
H87   H     H_    0.744625 0.673193 0.037037 0.215853
H88   H     H_    0.698649 0.571481 0.963746 0.228185
H89   H     H_    0.822654 0.675079 0.003351 0.259166
H90   H     H_    0.427283 0.295701 0.558538 0.223237
H91   H     H_    0.287043 0.308499 0.549872 0.263979
H92   H     H_    0.414872 0.406693 0.592149 0.210684
H93   H     H_    0.184615 0.398646 0.736551 0.242223
H94   H     H_    0.384426 0.361511 0.669042 0.238248
H95   H     H_    0.246513 0.081242 0.800074 0.209284
H96   H     H_    0.269869 0.215046 0.855973 0.233022
H97   H     H_    0.396057 0.282774 0.877664 0.258231
H98   H     H_    0.368973 0.208947 0.941073 0.244608
H99   H     H_    0.041514 0.258969 0.950670 0.226390
H100  H     H_    0.960007 0.129397 0.977563 0.212891
H101  H     H_    0.048567 0.122786 0.969159 0.238211
H102  H     H_    0.914806 0.059393 0.874946 0.260417
H103  H     H_    0.556600 0.110353 0.976846 0.155160
H104  H     H_    0.310138 0.395149 0.743869 0.222856
H105  H     H_    0.647885 0.162204 0.834352 0.235853
H106  H     H_    0.731059 0.110092 0.937496 0.234203
H107  H     H_    0.599279 0.041142 0.902708 0.235715
H108  H     H_    0.701092 0.134370 0.009100 0.240699
H109  H     H_    0.599658 0.363196 0.643824 0.224592
H110  H     H_    0.593579 0.483391 0.662773 0.214132
H111  H     H_    0.718506 0.527613 0.762206 0.256226
H112  H     H_    0.608579 0.476787 0.767846 0.231659
H113  H     H_    0.155360 0.257767 0.819161 0.172676
H114  H     H_    0.188885 0.316706 0.947456 0.236062
N1    N     N_2   0.970340 0.078505 0.776218 -0.267680
N2    N     N_2   0.649725 0.437413 0.540768 -0.318630
N3    N     N_2   0.841083 0.498338 0.699669 -0.309546
N4    N     N_2   0.837904 0.152844 0.776617 -0.300961
N5    N     N_2   0.187086 0.806648 0.903290 -0.319120
N6    N     N_2   0.202447 0.998273 0.408235 -0.289928
N7    N     N_2   0.816087 0.610569 0.098108 -0.290976
N8    N     N_2   0.398382 0.284806 0.596580 -0.313350
N9    N     N_2   0.305339 0.143444 0.808017 -0.315262
N10   N     N_2   0.008744 0.202433 0.901939 -0.280382
N11   N     N_2   0.656107 0.172105 0.894253 -0.254196
N12   N     N_2   0.177516 0.339965 0.742683 -0.279223
N13   N     N_2   0.616612 0.386302 0.705318 -0.310600
N14   N     N_2   0.182531 0.366581 0.927232 -0.298712
N15   N     N_2   0.999491 0.305292 0.606959 -0.301193
N16   N     N_2   0.837343 0.165756 0.558966 -0.281025
N17   N     N_2   0.825485 0.254931 0.666842 -0.309771
N18   N     N_2   0.829952 0.069778 0.173405 -0.271553
N19   N     N_2   0.294045 0.486717 0.562882 -0.316297
N20   N     N_2   0.360446 0.558995 0.451701 -0.318166
N21   N     N_2   0.230913 0.454469 0.265738 -0.279141
N22   N     N_2   0.600836 0.697758 0.220413 -0.284965
N23   N     N_2   0.296149 0.793250 0.189936 -0.316144
N24   N     N_2   0.773298 0.754893 0.590041 -0.257478
O1    O     O_3   0.000000 0.000000 0.500000 -0.485503
O2    O     O_R   0.939290 0.616110 0.884440 -0.653899
O3    O     O_R   0.060700 0.616880 0.177520 -0.672332
O4    O     O_R   0.939250 0.884470 0.616070 -0.638263
O5    O     O_R   0.060740 0.443890 0.883140 -0.646205
O6    O     O_R   0.939270 0.616890 0.056080 -0.615061
O7    O     O_R   0.939290 0.322450 0.883140 -0.649010
O8    O     O_R   0.939260 0.323230 0.054780 -0.654993
O9    O     O_R   0.060750 0.615550 0.883900 -0.627229
O10   O     O_R   0.231610 0.616100 0.176760 -0.644935
O11   O     O_R   0.768390 0.445230 0.884440 -0.611026
O12   O     O_R   0.231620 0.176800 0.616070 -0.636387
O13   O     O_R   0.060740 0.176800 0.445190 -0.676187
O14   O     O_R   0.231610 0.054800 0.615530 -0.634341
O15   O     O_R   0.768390 0.883920 0.323210 -0.610148
O16   O     O_R   0.060730 0.883140 0.443890 -0.614512
O17   O     O_R   0.939260 0.056140 0.616830 -0.656789
O18   O     O_R   0.939300 0.883140 0.322450 -0.645108
O19   O     O_R   0.060710 0.177580 0.616830 -0.646655
O20   O     O_R   0.768380 0.884480 0.445190 -0.663697
O21   O     O_R   0.060710 0.883920 0.615530 -0.636433
O22   O     O_R   0.939300 0.054810 0.323210 -0.603846
O23   O     O_3   0.000000 0.500030 0.999970 -0.480561
O24   O     O_R   0.231620 0.615550 0.054780 -0.643033
O25   O     O_R   0.768380 0.323230 0.883900 -0.653222
O26   O     O_R   0.060700 0.445220 0.176760 -0.632678
Zn1   Zn    Zn3+2 0.086760 0.130530 0.543760 0.932230
Zn2   Zn    Zn3+2 0.086760 0.956230 0.542990 0.987205
Zn3   Zn    Zn3+2 0.913250 0.956230 0.369490 0.983456
Zn4   Zn    Zn3+2 0.913230 0.957020 0.543760 0.933069
Zn5   Zn    Zn3+2 0.913240 0.369500 0.956210 0.953186
Zn6   Zn    Zn3+2 0.086750 0.543800 0.130490 0.961068
Zn7   Zn    Zn3+2 0.913240 0.543800 0.956980 0.972920
Zn8   Zn    Zn3+2 0.086770 0.543010 0.956210 0.963375

loop_
_geom_bond_atom_site_label_1
_geom_bond_atom_site_label_2
_ccdc_geom_bond_type
C23   C68   S    
C79   N2    S    
C82   H76   S    
O4    Zn4   S    
H34   N21   S    
C62   O2    A    
C22   C29   A    
C83   H81   S    
C27   C29   A    
C44   N7    S    
C41   C42   A    
C50   N11   S    
C45   C68   S    
C35   C36   A    
C4    O22   A    
C5    C67   A    
O7    Zn5   S    
C77   H57   S    
C63   O6    A    
C23   C52   S    
H25   N19   S    
C7    C8    A    
C39   C41   A    
C57   N13   S    
C53   C54   A    
C27   C33   A    
C34   C56   S    
C37   H84   S    
C47   N9    S    
C12   C23   S    
C26   C27   A    
C29   C30   A    
C56   N17   S    
C56   H82   S    
C59   O10   A    
C9    C61   S    
C45   N14   S    
C36   C37   A    
C68   N12   S    
C87   H102  S    
C21   C59   S    
C70   H13   S    
C93   H14   S    
C1    O21   A    
C30   C31   A    
C75   H41   S    
H90   N8    S    
C10   C17   A    
C58   C60   S    
C73   H32   S    
C82   N5    S    
C94   H17   S    
C85   H92   S    
H109  N13   S    
C18   C19   A    
C87   N10   S    
C94   H18   S    
C86   N9    S    
C11   H45   S    
C12   N16   S    
C24   H58   S    
C94   N17   S    
O19   Zn1   S    
C79   H62   S    
C90   H112  S    
C47   C48   A    
O22   Zn3   S    
H95   N9    S    
C8    C9    A    
C60   O11   A    
C72   N19   S    
C35   N6    S    
O13   Zn1   S    
C81   H72   S    
C26   N3    S    
H54   N24   S    
C88   H107  S    
C52   O17   A    
C2    N21   S    
C84   N7    S    
C92   H8    S    
C47   C53   A    
C93   H11   S    
C85   H94   S    
C40   C42   S    
C8    H39   S    
C82   H75   S    
C83   H79   S    
C70   H104  S    
O16   Zn2   S    
C74   H37   S    
C81   H69   S    
C65   O5    A    
O12   Zn1   S    
C61   O26   A    
C76   N23   S    
C74   N21   S    
H78   N6    S    
C34   C65   S    
C34   C66   S    
C67   H24   S    
C44   C46   A    
C50   C51   A    
O1    Zn2   S    
C90   H110  S    
H93   N12   S    
H86   N7    S    
C78   C89   A    
C85   H91   S    
H99   N10   S    
C80   H67   S    
C75   N22   S    
C86   H96   S    
C71   H23   S    
C71   H21   S    
C13   H46   S    
H105  N11   S    
C24   C25   A    
C90   N13   S    
O1    Zn1   S    
C80   H65   S    
C75   H43   S    
C85   N8    S    
C77   H55   S    
C48   H27   S    
C51   C58   A    
C43   H77   S    
C75   H42   S    
C33   C62   S    
O2    Zn7   S    
C49   H103  S    
O23   Zn7   S    
H6    N15   S    
C25   C26   A    
C73   H33   S    
C79   H61   S    
C94   H16   S    
C70   N12   S    
C84   H87   S    
O5    Zn8   S    
C51   C53   A    
C28   O15   A    
C64   C66   S    
C60   O25   A    
C2    C89   A    
C70   H2    S    
C43   C44   A    
C28   O20   A    
C12   N15   S    
C37   C38   A    
C3    C9    A    
C93   H12   S    
H20   N18   S    
C90   H111  S    
C40   O18   A    
C31   C32   A    
C14   C15   A    
C72   H26   S    
C68   H113  S    
C17   C18   A    
C86   H97   S    
C18   C28   S    
C16   C54   S    
C34   C45   S    
O15   Zn3   S    
C87   H101  S    
C91   H3    S    
C91   N14   S    
H59   N2    S    
O6    Zn7   S    
C14   N23   S    
C12   C56   S    
C92   H7    S    
C55   N8    S    
C39   C46   A    
C32   N5    S    
C76   H50   S    
C4    C6    S    
C48   C49   A    
O23   Zn8   S    
O23   Zn5   S    
C76   H51   S    
C55   C57   A    
C72   H29   S    
O17   Zn4   S    
C81   H70   S    
C20   H52   S    
C64   N1    S    
C74   H35   S    
C69   N1    S    
C42   C43   A    
H73   N5    S    
O8    Zn5   S    
C66   N4    S    
C16   O12   A    
C64   H44   S    
C83   N6    S    
C62   O9    A    
O1    Zn3   S    
H30   N20   S    
H64   N3    S    
C15   C17   A    
O24   Zn8   S    
C54   C55   A    
C23   C64   S    
C77   N24   S    
H15   N17   S    
C38   H85   S    
C72   H28   S    
C59   O24   A    
O25   Zn5   S    
C61   O8    A    
C86   H98   S    
C84   H89   S    
O26   Zn6   S    
H38   N1    S    
O11   Zn7   S    
C87   H100  S    
C3    C5    A    
C77   H56   S    
C79   H63   S    
C73   N20   S    
C19   N22   S    
C6    C7    A    
C7    N18   S    
C16   O14   A    
O20   Zn4   S    
C69   H49   S    
C36   H83   S    
C80   N3    S    
C69   H60   S    
C88   N11   S    
C67   C78   A    
C46   C63   S    
C92   N15   S    
C88   H108  S    
C32   C33   A    
C92   H9    S    
C19   C20   A    
C74   H36   S    
C2    C3    A    
C31   H53   S    
C66   N10   S    
C11   C13   A    
O21   Zn2   S    
C88   H106  S    
C57   C58   A    
C38   C39   A    
H68   N4    S    
C10   H1    S    
O3    Zn6   S    
C73   H31   S    
C82   H74   S    
C84   H88   S    
C1    C30   S    
C71   N18   S    
C71   H22   S    
C93   N16   S    
C22   C24   A    
H40   N22   S    
C91   H4    S    
C78   N19   S    
C25   N2    S    
C35   C41   A    
C52   O19   A    
C69   H71   S    
C4    O13   A    
C80   H66   S    
C10   C11   A    
C63   O3    A    
C1    O4    A    
C45   H19   S    
C15   C21   A    
C81   N4    S    
C22   N24   S    
O23   Zn6   S    
C20   C21   A    
C49   C50   A    
C40   O16   A    
C83   H80   S    
C5    C6    A    
O10   Zn6   S    
O9    Zn8   S    
C65   O7    A    
C89   N20   S    
C91   H5    S    
C13   C14   A    
O18   Zn3   S    
H114  N14   S    
H10   N16   S    
O14   Zn2   S    
H47   N23   S    
O1    Zn4   S    
C76   H48   S    
