data_mof_unit_22934.cif
_audit_creation_date              2012-12-10T17:35:40-0500
_audit_creation_method            fapswitch 2.2
_symmetry_space_group_name_H-M    P1
_symmetry_Int_Tables_number       1
_space_group_crystal_system       triclinic
_cell_length_a                    10.759174
_cell_length_b                    12.3745
_cell_length_c                    13.193081
_cell_angle_alpha                 116.981705
_cell_angle_beta                  76.292922
_cell_angle_gamma                 99.962522
_cell_volume                      1516.38599657

loop_
_atom_site_label
_atom_site_type_symbol
_atom_type_description
_atom_site_fract_x
_atom_site_fract_y
_atom_site_fract_z
_atom_type_partial_charge
C1    C     C_R   0.512451 0.855217 0.286464 0.794144
C2    C     C_3   0.121818 0.999364 0.498246 0.086944
C3    C     C_3   0.039200 0.004478 0.613974 -0.403229
C4    C     C_3   0.078334 0.881917 0.396644 -0.396758
C5    C     C_R   0.314012 0.289046 0.026470 -0.286071
C6    C     C_R   0.447731 0.229587 0.836704 -0.150968
C7    C     C_R   0.604405 0.809776 0.082279 -0.144977
C8    C     C_R   0.632028 0.728226 0.966648 -0.132239
C9    C     C_R   0.582922 0.607604 0.930197 -0.199469
C10   C     C_R   0.500119 0.566823 0.008912 0.104914
C11   C     C_R   0.460271 0.653930 0.123817 0.079656
C12   C     C_R   0.739271 0.998800 0.499430 0.787728
C13   C     C_R   0.454302 0.442846 0.977278 0.068057
C14   C     C_R   0.360494 0.410485 0.056419 0.092515
C15   C     C_R   0.311651 0.499933 0.163973 -0.203754
C16   C     C_R   0.359308 0.620047 0.196632 -0.194251
C17   C     C_R   0.500342 0.349653 0.869988 -0.300387
C18   C     C_R   0.352951 0.198434 0.915078 0.462665
C19   C     C_R   0.521614 0.773137 0.162457 -0.098994
C20   C     C_R   0.685968 0.328940 0.307119 -0.300374
C21   C     C_R   0.350031 0.777178 0.665626 0.094016
C22   C     C_R   0.358947 0.712020 0.725698 -0.263949
C23   C     C_R   0.478754 0.145188 0.713873 0.801740
C24   C     C_R   0.436746 0.615059 0.673079 -0.194366
C25   C     C_R   0.494143 0.573326 0.555144 -0.007739
C26   C     C_R   0.501489 0.656079 0.506207 0.281248
C27   C     C_R   0.549853 0.457686 0.485668 -0.126229
C28   C     C_R   0.630897 0.439744 0.378492 0.114795
C29   C     C_R   0.657760 0.533373 0.343712 -0.245559
C30   C     C_R   0.594869 0.639680 0.406684 -0.175922
C31   C     C_R   0.522531 0.355737 0.513095 0.566646
C32   C     C_R   0.656152 0.233054 0.338386 0.015037
C33   C     C_R   0.260304 0.000296 0.499365 0.761007
C34   C     C_3   0.958127 0.105701 0.474373 0.343444
C35   C     C_3   0.097085 0.111169 0.484947 -0.461030
C36   C     C_3   0.895381 0.001488 0.613581 -0.440452
C37   C     C_3   0.931828 0.876521 0.400666 -0.096106
C38   C     C_3   0.876905 0.997785 0.498379 0.012450
Cu1   Cu    Cu3+1 0.529690 0.098270 0.475420 0.977240
Cu2   Cu    Cu3+1 0.470310 0.901730 0.524580 0.932967
H1    H     H_    0.100117 0.799925 0.401599 0.168559
H2    H     H_    0.845653 0.918624 0.622398 0.190432
H3    H     H_    0.055361 0.925681 0.627166 0.179222
H4    H     H_    0.236038 0.477007 0.223330 0.143762
H5    H     H_    0.244193 0.264986 0.088457 0.149952
H6    H     H_    0.576595 0.368189 0.809179 0.180066
H7    H     H_    0.650945 0.900901 0.109539 0.154026
H8    H     H_    0.609095 0.549482 0.839380 0.139336
H9    H     H_    0.695355 0.757710 0.905327 0.143036
H10   H     H_    0.961292 0.079633 0.381387 0.152339
H11   H     H_    0.313625 0.686119 0.278773 0.164393
H12   H     H_    0.697448 0.147107 0.282243 0.148649
H13   H     H_    0.726146 0.523475 0.265578 0.168452
H14   H     H_    0.749963 0.315704 0.226096 0.148720
H15   H     H_    0.294527 0.855626 0.708344 0.162016
H16   H     H_    0.448746 0.573333 0.725874 0.203773
H17   H     H_    0.308942 0.738907 0.814062 0.160975
H18   H     H_    0.626723 0.708544 0.377081 0.217418
H19   H     H_    0.162046 0.118290 0.408391 0.156032
H20   H     H_    0.114610 0.192659 0.562692 0.184828
H21   H     H_    0.850454 0.077803 0.691368 0.141452
H22   H     H_    0.067518 0.088639 0.687883 0.141028
H23   H     H_    0.884159 0.799214 0.420486 0.170658
H24   H     H_    0.133544 0.880334 0.313330 0.185551
N1    N     N_R   0.574690 0.246280 0.438200 -0.207397
N2    N     N_R   0.426100 0.754320 0.561190 -0.219382
O1    O     O_R   0.537340 0.972510 0.318130 -0.584871
O2    O     O_R   0.487200 0.806530 0.359650 -0.601150
O3    O     O_R   0.707380 0.082980 0.479220 -0.538087
O4    O     O_R   0.657240 0.917000 0.520740 -0.601860
O5    O     O_R   0.512800 0.193470 0.640350 -0.524677
O6    O     O_R   0.462660 0.027490 0.681870 -0.549738
O7    O     O_R   0.342760 0.083000 0.479260 -0.588402
O8    O     O_R   0.292620 0.917020 0.520780 -0.601230
O9    O     O_3   0.909044 0.223294 0.530786 -0.561624
C39   C     C_3   0.873169 0.270077 0.652348 0.117044
H25   H     H_    0.943238 0.255392 0.693421 0.121997
H26   H     H_    0.776923 0.229536 0.676003 0.144270
C40   C     C_3   0.863703 0.406461 0.702017 -0.808430
H27   H     H_    0.791440 0.425245 0.665378 0.255003
H28   H     H_    0.834129 0.444712 0.797516 0.202520
H29   H     H_    0.958287 0.451347 0.680686 0.245575
O10   O     O_3   0.303419 0.078798 0.883724 -0.576950
C41   C     C_3   0.168135 0.068265 0.893680 0.015811
H30   H     H_    0.144339 0.008758 0.806848 0.146099
H31   H     H_    0.123702 0.155389 0.924112 0.125089
C42   C     C_3   0.106270 0.008048 0.973587 -0.773024
H32   H     H_    0.127776 0.065403 0.061758 0.244973
H33   H     H_    0.000622 0.995974 0.978561 0.205282
H34   H     H_    0.143563 0.917475 0.939934 0.249516
O11   O     O_3   0.449246 0.366786 0.617629 -0.585272
C43   C     C_3   0.317871 0.357427 0.613835 0.071200
H35   H     H_    0.294814 0.279293 0.535211 0.156001
H36   H     H_    0.288157 0.435572 0.608661 0.138070
C44   C     C_3   0.240660 0.351145 0.724224 -0.791922
H37   H     H_    0.278205 0.423907 0.800667 0.258298
H38   H     H_    0.138784 0.365405 0.734337 0.191979
H39   H     H_    0.247416 0.261499 0.721804 0.226854
I1    I     I_    0.892234 0.828371 0.231344 -0.510629

loop_
_geom_bond_atom_site_label_1
_geom_bond_atom_site_label_2
_ccdc_geom_bond_type
C2    C35   S    
C12   O3    A    
C21   N2    A    
C36   H2    S    
C44   H37   S    
C16   H11   S    
C42   H32   S    
C22   H17   S    
C44   H39   S    
C7    C8    A    
C11   C19   A    
C29   C30   A    
Cu2   O4    S    
C28   C29   A    
C39   H26   S    
C15   H4    S    
C4    H1    S    
C15   C16   A    
C1    O2    A    
C35   H19   S    
C34   C35   S    
C32   H12   S    
C41   H30   S    
C8    C9    A    
C41   C42   S    
C9    C10   A    
C34   O9    S    
Cu2   N2    S    
C21   C22   A    
Cu1   N1    S    
C37   H23   S    
C39   H25   S    
C6    C18   A    
C34   H10   S    
C1    C19   S    
C27   C31   A    
C26   N2    A    
C23   O5    A    
C24   C25   A    
C20   H14   S    
O11   C43   S    
C21   H15   S    
C5    C18   A    
C20   C28   A    
C25   C26   A    
C5    H5    S    
C43   C44   S    
C35   H20   S    
C7    H7    S    
C2    C4    S    
O9    C39   S    
C37   C38   S    
C11   C16   A    
O10   C41   S    
C3    H3    S    
C43   H36   S    
C18   O10   S    
Cu1   O3    S    
C17   H6    S    
C5    C14   A    
C2    C33   S    
C33   O7    A    
C26   C30   A    
C7    C19   A    
C42   H33   S    
C22   C24   A    
C24   H16   S    
C36   H21   S    
C37   I1    S    
C40   H28   S    
C20   C32   A    
C3    H22   S    
C31   N1    A    
C6    C17   A    
C12   O4    A    
Cu2   O6    S    
C34   C38   S    
Cu1   O1    S    
C23   O6    A    
C41   H31   S    
C10   C13   A    
C40   H29   S    
C44   H38   S    
C25   C27   A    
C4    H24   S    
C31   O11   S    
C13   C17   A    
C36   C38   S    
C2    C3    S    
C29   H13   S    
C3    C36   S    
C6    C23   S    
C30   H18   S    
C43   H35   S    
C1    O1    A    
Cu2   O8    S    
Cu1   O7    S    
C12   C38   S    
C10   C11   A    
C40   H27   S    
Cu1   Cu2   S    
C33   O8    A    
C39   C40   S    
C4    C37   S    
C9    H8    S    
Cu2   O2    S    
C42   H34   S    
C27   C28   A    
Cu1   O5    S    
C14   C15   A    
C13   C14   A    
C8    H9    S    
C32   N1    A    
