data_mof_unit_61249.cif
_audit_creation_date              2012-12-10T18:35:23-0500
_audit_creation_method            fapswitch 2.2
_symmetry_space_group_name_H-M    P1
_symmetry_Int_Tables_number       1
_space_group_crystal_system       triclinic
_cell_length_a                    25.673894
_cell_length_b                    36.099173
_cell_length_c                    22.130886
_cell_angle_alpha                 90.000047
_cell_angle_beta                  125.356664
_cell_angle_gamma                 90.000051
_cell_volume                      16728.1052713

loop_
_atom_site_label
_atom_site_type_symbol
_atom_type_description
_atom_site_fract_x
_atom_site_fract_y
_atom_site_fract_z
_atom_type_partial_charge
C1    C     C_R   0.608190 0.249909 0.000079 0.804832
C2    C     C_3   0.738202 0.478503 0.056733 -0.391783
C3    C     C_1   0.077624 0.249908 0.654710 -0.097246
C4    C     C_1   0.610839 0.249999 0.721449 -0.143325
C5    C     C_1   0.610838 0.749999 0.721449 -0.143314
C6    C     C_1   0.110839 0.750000 0.721449 -0.143389
C7    C     C_1   0.110839 0.249999 0.721449 -0.143361
C8    C     C_3   0.776806 0.021464 0.078041 -0.420204
C9    C     C_3   0.776806 0.978536 0.078040 -0.420297
C10   C     C_3   0.278058 0.521464 0.078361 -0.420201
C11   C     C_3   0.278058 0.478536 0.078360 -0.420349
C12   C     C_3   0.790392 0.021528 0.974809 -0.483167
C13   C     C_3   0.237409 0.021497 0.056067 -0.391777
C14   C     C_3   0.790392 0.978471 0.974809 -0.483186
C15   C     C_3   0.289289 0.521529 0.973315 -0.483125
C16   C     C_3   0.289289 0.478471 0.973316 -0.483150
C17   C     C_1   0.749661 0.889276 0.999775 -0.133166
C18   C     C_1   0.749662 0.110724 0.999775 -0.133073
C19   C     C_1   0.249662 0.389276 0.999777 -0.133166
C20   C     C_1   0.249662 0.610724 0.999777 -0.133041
C21   C     C_3   0.748436 0.036634 0.999040 0.197030
C22   C     C_3   0.748436 0.963366 0.999040 0.197080
C23   C     C_3   0.248439 0.536634 0.999065 0.197006
C24   C     C_3   0.237409 0.978503 0.056067 -0.391791
C25   C     C_3   0.248438 0.463366 0.999065 0.197077
C26   C     C_3   0.679074 0.978312 0.942905 0.254928
C27   C     C_3   0.679074 0.021688 0.942905 0.254903
C28   C     C_3   0.178890 0.478312 0.944105 0.254929
C29   C     C_3   0.178890 0.521688 0.944106 0.254895
C30   C     C_1   0.749211 0.922621 0.999481 -0.036412
C31   C     C_1   0.749211 0.077379 0.999482 -0.036359
C32   C     C_1   0.249211 0.422621 0.999491 -0.036425
C33   C     C_1   0.249212 0.577379 0.999491 -0.036350
C34   C     C_R   0.650375 0.249949 0.800816 0.828750
C35   C     C_1   0.749966 0.577344 0.999977 -0.123465
C36   C     C_R   0.650375 0.750050 0.800816 0.828772
C37   C     C_R   0.150375 0.749950 0.800816 0.828696
C38   C     C_R   0.150375 0.250050 0.800816 0.828731
C39   C     C_R   0.749987 0.150369 0.000036 0.821764
C40   C     C_R   0.749987 0.849631 0.000036 0.821712
C41   C     C_R   0.249986 0.650369 0.000036 0.821720
C42   C     C_R   0.249986 0.349631 0.000036 0.821617
C43   C     C_R   0.749941 0.349551 0.999980 0.828569
C44   C     C_R   0.749941 0.650448 0.999980 0.828566
C45   C     C_R   0.249941 0.849551 0.999980 0.828572
C46   C     C_1   0.749966 0.422656 0.999977 -0.123497
C47   C     C_R   0.249941 0.150449 0.999980 0.828571
C48   C     C_3   0.696671 0.478502 0.922225 -0.388351
C49   C     C_3   0.696671 0.521497 0.922225 -0.388329
C50   C     C_3   0.197191 0.978502 0.921990 -0.388329
C51   C     C_3   0.197191 0.021497 0.921990 -0.388315
C52   C     C_3   0.815038 0.478502 0.020970 -0.382837
C53   C     C_3   0.815038 0.521498 0.020970 -0.382815
C54   C     C_3   0.315313 0.978502 0.021871 -0.382967
C55   C     C_3   0.315313 0.021498 0.021871 -0.382942
C56   C     C_1   0.749956 0.610732 0.999978 -0.133660
C57   C     C_1   0.249966 0.077344 0.999977 -0.123495
C58   C     C_1   0.749956 0.389268 0.999978 -0.133719
C59   C     C_1   0.249956 0.110732 0.999978 -0.133684
C60   C     C_1   0.249956 0.889268 0.999978 -0.133750
C61   C     C_1   0.249966 0.922656 0.999977 -0.123531
C62   C     C_3   0.974091 0.282905 0.982190 0.477819
C63   C     C_3   0.974076 0.717099 0.982160 0.477793
C64   C     C_3   0.474154 0.782922 0.982312 0.477903
C65   C     C_R   0.608191 0.750090 0.000082 0.804843
C66   C     C_3   0.474076 0.217099 0.982162 0.477790
C67   C     C_3   0.483467 0.759106 0.931816 -0.249972
C68   C     C_3   0.483444 0.240971 0.931773 -0.249972
C69   C     C_3   0.983448 0.259044 0.931781 -0.249974
C70   C     C_3   0.983444 0.740972 0.931773 -0.250013
C71   C     C_3   0.551126 0.750227 0.000241 -0.010307
C72   C     C_3   0.551125 0.249772 0.000238 -0.010348
C73   C     C_3   0.051125 0.250228 0.000238 -0.010338
C74   C     C_3   0.051125 0.749772 0.000238 -0.010344
C75   C     C_3   0.542117 0.774972 0.050298 -0.201992
C76   C     C_R   0.108190 0.749909 0.000079 0.804808
C77   C     C_3   0.542059 0.224970 0.050183 -0.201688
C78   C     C_3   0.042070 0.275019 0.050205 -0.201783
C79   C     C_3   0.042058 0.724969 0.050182 -0.201626
C80   C     C_3   0.016644 0.240811 0.068105 -0.240198
C81   C     C_3   0.016648 0.759174 0.068113 -0.240100
C82   C     C_3   0.516625 0.740748 0.068071 -0.240285
C83   C     C_3   0.516648 0.259175 0.068113 -0.240069
C84   C     C_3   0.526801 0.716052 0.018362 -0.154409
C85   C     C_3   0.526880 0.283926 0.018516 -0.154639
C86   C     C_3   0.026865 0.216069 0.018487 -0.154530
C87   C     C_R   0.108190 0.250091 0.000080 0.804837
C88   C     C_3   0.026881 0.783926 0.018518 -0.154626
C89   C     C_3   0.958319 0.224915 0.950270 -0.189518
C90   C     C_3   0.958330 0.775096 0.950293 -0.189559
C91   C     C_3   0.458272 0.724962 0.950178 -0.189539
C92   C     C_3   0.458330 0.275095 0.950292 -0.189560
C93   C     C_R   0.891710 0.249906 0.999915 0.835549
C94   C     C_R   0.891710 0.750094 0.999915 0.835518
C95   C     C_R   0.391709 0.749907 0.999913 0.835511
C96   C     C_R   0.391710 0.250094 0.999915 0.835520
C97   C     C_3   0.948891 0.249612 0.999966 0.018950
C98   C     C_3   0.749970 0.463446 0.999976 0.342634
C99   C     C_3   0.948891 0.750388 0.999966 0.018939
C100  C     C_3   0.448889 0.749614 0.999963 0.018985
C101  C     C_3   0.448891 0.250388 0.999966 0.018944
C102  C     C_3   0.468956 0.264106 0.543071 -0.392115
C103  C     C_3   0.467938 0.738010 0.543071 -0.392082
C104  C     C_3   0.968839 0.763879 0.543072 -0.392149
C105  C     C_3   0.968196 0.237436 0.543071 -0.392082
C106  C     C_3   0.531919 0.210652 0.542961 -0.402236
C107  C     C_3   0.535000 0.788875 0.542952 -0.402218
C108  C     C_3   0.032253 0.710697 0.542960 -0.402298
C109  C     C_3   0.749970 0.536554 0.999976 0.342601
C110  C     C_3   0.034174 0.289014 0.542955 -0.402282
C111  C     C_3   0.487499 0.210442 0.457047 -0.408235
C112  C     C_3   0.490602 0.789140 0.457038 -0.408150
C113  C     C_3   0.987836 0.710481 0.457046 -0.408219
C114  C     C_3   0.989770 0.289265 0.457041 -0.408167
C115  C     C_1   0.389289 0.250156 0.278547 -0.128585
C116  C     C_1   0.389290 0.749841 0.278547 -0.128577
C117  C     C_1   0.889289 0.750156 0.278547 -0.128621
C118  C     C_1   0.889290 0.249842 0.278547 -0.128584
C119  C     C_3   0.537108 0.250237 0.573188 0.296557
C120  C     C_3   0.249971 0.963446 0.999976 0.342732
C121  C     C_3   0.537096 0.749746 0.573188 0.296491
C122  C     C_3   0.037108 0.750239 0.573188 0.296627
C123  C     C_3   0.037100 0.249750 0.573188 0.296527
C124  C     C_3   0.425982 0.264235 0.457052 -0.485718
C125  C     C_3   0.424957 0.737877 0.457051 -0.485657
C126  C     C_3   0.925863 0.764009 0.457052 -0.485777
C127  C     C_3   0.925217 0.237304 0.457052 -0.485645
C128  C     C_3   0.463977 0.250259 0.426850 0.262665
C129  C     C_3   0.463969 0.749720 0.426850 0.262533
C130  C     C_3   0.963976 0.750261 0.426850 0.262715
C131  C     C_3   0.249971 0.036554 0.999976 0.342699
C132  C     C_3   0.963971 0.249726 0.426850 0.262562
C133  C     C_3   0.522409 0.276564 0.457207 0.309821
C134  C     C_3   0.520269 0.721737 0.457216 0.309898
C135  C     C_3   0.022184 0.776751 0.457207 0.309826
C136  C     C_3   0.020858 0.222186 0.457214 0.309872
C137  C     C_3   0.565865 0.276085 0.543615 -0.458407
C138  C     C_3   0.563759 0.722206 0.543625 -0.458429
C139  C     C_3   0.065644 0.776274 0.543616 -0.458394
C140  C     C_3   0.064339 0.222658 0.543622 -0.458399
C141  C     C_R   0.849533 0.249922 0.199184 0.816442
C142  C     C_3   0.738202 0.521497 0.056733 -0.391772
C143  C     C_R   0.849533 0.750078 0.199184 0.816286
C144  C     C_R   0.349533 0.749922 0.199184 0.816500
C145  C     C_R   0.349533 0.250078 0.199184 0.816256
C146  C     C_1   0.422834 0.250207 0.345283 -0.054949
C147  C     C_1   0.422832 0.749785 0.345283 -0.054893
C148  C     C_1   0.922833 0.750208 0.345283 -0.054979
C149  C     C_1   0.922833 0.249787 0.345283 -0.054910
C150  C     C_1   0.577626 0.250087 0.654710 -0.097238
C151  C     C_1   0.577623 0.749907 0.654710 -0.097211
C152  C     C_1   0.077626 0.750087 0.654710 -0.097290
H1    H     H_    0.704074 0.531785 0.880303 0.170689
H2    H     H_    0.549893 0.311629 0.033582 0.139327
H3    H     H_    0.149610 0.031785 0.904927 0.168283
H4    H     H_    0.470736 0.767175 0.876389 0.146208
H5    H     H_    0.470692 0.232966 0.876309 0.146200
H6    H     H_    0.970699 0.267061 0.876324 0.146202
H7    H     H_    0.970692 0.732967 0.876308 0.146165
H8    H     H_    0.576549 0.795880 0.090496 0.160024
H9    H     H_    0.576440 0.204014 0.090282 0.160148
H10   H     H_    0.076461 0.295966 0.090323 0.160140
H11   H     H_    0.076439 0.704013 0.090280 0.160217
H12   H     H_    0.580117 0.244373 0.449991 0.338853
H13   H     H_    0.049864 0.188364 0.033528 0.139355
H14   H     H_    0.580411 0.751439 0.449998 0.338761
H15   H     H_    0.080165 0.744825 0.449991 0.338849
H16   H     H_    0.080364 0.252568 0.449996 0.338790
H17   H     H_    0.648827 0.031221 0.005197 0.339020
H18   H     H_    0.648827 0.968779 0.005197 0.339012
H19   H     H_    0.150378 0.531220 0.008112 0.339043
H20   H     H_    0.150377 0.468778 0.008110 0.339035
H21   H     H_    0.971771 0.333587 0.955076 0.330010
H22   H     H_    0.971723 0.666425 0.954984 0.330016
H23   H     H_    0.471957 0.833635 0.955436 0.329935
H24   H     H_    0.049894 0.811628 0.033585 0.139335
H25   H     H_    0.471725 0.166425 0.954986 0.329935
H26   H     H_    0.923444 0.204277 0.909709 0.161784
H27   H     H_    0.923466 0.795744 0.909751 0.161746
H28   H     H_    0.423358 0.704363 0.909537 0.161783
H29   H     H_    0.423465 0.295743 0.909749 0.161754
H30   H     H_    0.383574 0.246272 0.436434 0.192493
H31   H     H_    0.384008 0.757089 0.436426 0.192411
H32   H     H_    0.883608 0.745908 0.436434 0.192428
H33   H     H_    0.704074 0.468215 0.880303 0.170667
H34   H     H_    0.883865 0.256186 0.436429 0.192448
H35   H     H_    0.447260 0.245914 0.563543 0.181071
H36   H     H_    0.447717 0.757443 0.563535 0.181051
H37   H     H_    0.947297 0.745550 0.563543 0.181010
H38   H     H_    0.947569 0.256541 0.563538 0.181049
H39   H     H_    0.580130 0.200462 0.562197 0.170001
H40   H     H_    0.583952 0.797514 0.562188 0.169986
H41   H     H_    0.080551 0.700673 0.562195 0.169988
H42   H     H_    0.082939 0.298074 0.562191 0.169984
H43   H     H_    0.512797 0.191255 0.564784 0.177031
H44   H     H_    0.205169 0.031785 0.880539 0.170723
H45   H     H_    0.517446 0.809436 0.564768 0.177053
H46   H     H_    0.013297 0.691171 0.564782 0.176961
H47   H     H_    0.016189 0.309268 0.564773 0.176981
H48   H     H_    0.445746 0.192182 0.438106 0.175818
H49   H     H_    0.450332 0.808655 0.438090 0.175845
H50   H     H_    0.946238 0.692083 0.438105 0.175787
H51   H     H_    0.949091 0.308448 0.438094 0.175811
H52   H     H_    0.512941 0.198259 0.434782 0.173892
H53   H     H_    0.516945 0.799850 0.434772 0.173907
H54   H     H_    0.013380 0.698455 0.434780 0.173894
H55   H     H_    0.205169 0.968215 0.880539 0.170706
H56   H     H_    0.015881 0.300375 0.434775 0.173905
H57   H     H_    0.570180 0.304721 0.564733 0.151996
H58   H     H_    0.565835 0.693864 0.564750 0.152065
H59   H     H_    0.069716 0.804883 0.564735 0.151996
H60   H     H_    0.067015 0.194227 0.564745 0.152047
H61   H     H_    0.854258 0.468214 0.076810 0.171996
H62   H     H_    0.854258 0.531786 0.076810 0.172013
H63   H     H_    0.354167 0.968214 0.077895 0.171861
H64   H     H_    0.354167 0.031786 0.077895 0.171885
H65   H     H_    0.615062 0.266804 0.565087 0.184252
H66   H     H_    0.029171 0.233167 0.123632 0.154802
H67   H     H_    0.613625 0.729944 0.565097 0.184202
H68   H     H_    0.114919 0.767158 0.565087 0.184248
H69   H     H_    0.114037 0.230814 0.565094 0.184222
H70   H     H_    0.504008 0.305286 0.439103 0.127726
H71   H     H_    0.499629 0.693432 0.439119 0.127926
H72   H     H_    0.003540 0.805432 0.439104 0.127733
H73   H     H_    0.000818 0.193760 0.439115 0.127865
H74   H     H_    0.471361 0.292586 0.563818 0.172913
H75   H     H_    0.468119 0.709891 0.563824 0.173013
H76   H     H_    0.971002 0.792325 0.563819 0.172903
H77   H     H_    0.029178 0.766806 0.123648 0.154907
H78   H     H_    0.968973 0.209212 0.563822 0.172995
H79   H     H_    0.407969 0.292794 0.436646 0.169830
H80   H     H_    0.404714 0.709673 0.436651 0.170009
H81   H     H_    0.907608 0.792534 0.436647 0.169810
H82   H     H_    0.905571 0.208996 0.436650 0.169963
H83   H     H_    0.826765 0.968479 0.116828 0.185601
H84   H     H_    0.826765 0.031521 0.116828 0.185657
H85   H     H_    0.328117 0.468479 0.116278 0.185558
H86   H     H_    0.328118 0.531521 0.116277 0.185645
H87   H     H_    0.772158 0.031818 0.918407 0.171973
H88   H     H_    0.529135 0.733053 0.123568 0.154709
H89   H     H_    0.772158 0.968182 0.918407 0.171969
H90   H     H_    0.270134 0.531818 0.916646 0.171967
H91   H     H_    0.270135 0.468181 0.916647 0.171966
H92   H     H_    0.840277 0.031783 0.013070 0.200824
H93   H     H_    0.840277 0.968217 0.013070 0.200799
H94   H     H_    0.339263 0.531784 0.010701 0.200853
H95   H     H_    0.339264 0.468216 0.010702 0.200816
H96   H     H_    0.663272 0.030825 0.886606 0.105494
H97   H     H_    0.663272 0.969175 0.886606 0.105488
H98   H     H_    0.162135 0.530826 0.887471 0.105442
H99   H     H_    0.529178 0.266807 0.123647 0.154906
H100  H     H_    0.162135 0.469175 0.887471 0.105437
H101  H     H_    0.824640 0.468214 0.980882 0.175847
H102  H     H_    0.824640 0.531786 0.980882 0.175857
H103  H     H_    0.325485 0.968214 0.982275 0.175831
H104  H     H_    0.325485 0.031786 0.982275 0.175838
H105  H     H_    0.750212 0.032006 0.100048 0.167383
H106  H     H_    0.750212 0.967994 0.100048 0.167361
H107  H     H_    0.252304 0.532006 0.101422 0.167386
H108  H     H_    0.252303 0.467994 0.101421 0.167360
H109  H     H_    0.691579 0.468215 0.042814 0.165889
H110  H     H_    0.549746 0.688331 0.033300 0.139367
H111  H     H_    0.691579 0.531785 0.042814 0.165896
H112  H     H_    0.190575 0.968215 0.041493 0.165923
H113  H     H_    0.190576 0.031785 0.041493 0.165930
H114  H     H_    0.775995 0.468215 0.113237 0.167193
H115  H     H_    0.775996 0.531785 0.113237 0.167209
H116  H     H_    0.274818 0.968215 0.112726 0.167135
H117  H     H_    0.274818 0.031785 0.112726 0.167156
H118  H     H_    0.649277 0.468215 0.905809 0.168265
H119  H     H_    0.649277 0.531785 0.905809 0.168273
H120  H     H_    0.149610 0.968215 0.904927 0.168274
O1    O     O_3   0.749950 0.249950 0.000000 -0.484299
O2    O     O_R   0.637220 0.728540 0.836030 -0.637469
O3    O     O_R   0.137220 0.771460 0.836030 -0.637517
O4    O     O_R   0.137220 0.228540 0.836030 -0.637475
O5    O     O_R   0.654190 0.228460 0.043020 -0.647041
O6    O     O_R   0.654190 0.771540 0.043020 -0.647063
O7    O     O_R   0.154190 0.728460 0.043020 -0.647011
O8    O     O_R   0.154190 0.271540 0.043020 -0.647003
O9    O     O_R   0.845720 0.228460 0.956990 -0.657512
O10   O     O_R   0.845720 0.771540 0.956990 -0.657549
O11   O     O_R   0.345720 0.728460 0.956990 -0.657510
O12   O     O_3   0.749950 0.750050 0.000000 -0.484303
O13   O     O_R   0.345720 0.271540 0.956990 -0.657537
O14   O     O_R   0.611190 0.271450 0.957030 -0.641202
O15   O     O_R   0.611190 0.728550 0.957030 -0.641191
O16   O     O_R   0.111190 0.771450 0.957030 -0.641219
O17   O     O_R   0.111190 0.228550 0.957030 -0.641202
O18   O     O_R   0.888700 0.271440 0.042960 -0.617444
O19   O     O_R   0.888700 0.728560 0.042960 -0.617383
O20   O     O_R   0.388700 0.771440 0.042960 -0.617414
O21   O     O_R   0.388700 0.228560 0.042960 -0.617386
O22   O     O_R   0.801200 0.228440 0.163980 -0.641039
O23   O     O_3   0.249950 0.749950 0.000000 -0.484296
O24   O     O_R   0.801200 0.771560 0.163980 -0.641257
O25   O     O_R   0.301200 0.728440 0.163980 -0.640944
O26   O     O_R   0.301200 0.271560 0.163980 -0.641245
O27   O     O_R   0.698710 0.228470 0.836030 -0.635960
O28   O     O_R   0.698710 0.771530 0.836030 -0.635999
O29   O     O_R   0.198710 0.728470 0.836030 -0.636009
O30   O     O_R   0.198710 0.271530 0.836030 -0.636019
O31   O     O_R   0.740720 0.167960 0.043020 -0.633524
O32   O     O_R   0.740720 0.832040 0.043020 -0.633584
O33   O     O_R   0.240720 0.667960 0.043020 -0.633323
O34   O     O_3   0.249950 0.250050 0.000000 -0.484314
O35   O     O_R   0.240720 0.332040 0.043020 -0.633409
O36   O     O_R   0.697700 0.331940 0.957000 -0.641528
O37   O     O_R   0.697700 0.668060 0.957000 -0.641527
O38   O     O_R   0.197700 0.831940 0.957000 -0.641517
O39   O     O_R   0.197700 0.168060 0.957000 -0.641517
O40   O     O_R   0.759220 0.167970 0.957030 -0.642066
O41   O     O_R   0.759220 0.832030 0.957030 -0.642062
O42   O     O_R   0.259220 0.667970 0.957030 -0.642173
O43   O     O_R   0.259220 0.332030 0.957030 -0.642170
O44   O     O_R   0.802170 0.331930 0.042960 -0.627585
O45   O     O_R   0.862680 0.271430 0.163960 -0.635913
O46   O     O_R   0.802170 0.668070 0.042960 -0.627547
O47   O     O_R   0.302170 0.831930 0.042960 -0.627607
O48   O     O_R   0.302170 0.168070 0.042960 -0.627557
O49   O     O_3   0.557085 0.268007 0.427750 -0.763548
O50   O     O_3   0.555542 0.728316 0.427762 -0.763800
O51   O     O_3   0.056932 0.768407 0.427751 -0.763561
O52   O     O_3   0.055986 0.229300 0.427758 -0.763725
O53   O     O_3   0.634708 0.036909 0.954092 -0.724960
O54   O     O_3   0.634708 0.963090 0.954092 -0.724970
O55   O     O_3   0.135391 0.536910 0.956698 -0.724880
O56   O     O_R   0.862680 0.728570 0.163960 -0.635577
O57   O     O_3   0.135390 0.463090 0.956695 -0.724886
O58   O     O_3   0.944878 0.317719 0.963263 -0.766296
O59   O     O_3   0.944846 0.682290 0.963201 -0.766271
O60   O     O_3   0.445010 0.817754 0.963515 -0.766330
O61   O     O_3   0.444848 0.182290 0.963204 -0.766331
O62   O     O_R   0.362680 0.771430 0.163960 -0.636056
O63   O     O_R   0.362680 0.228570 0.163960 -0.635539
O64   O     O_R   0.637220 0.271460 0.836030 -0.637523
Zn1   Zn    Zn3+2 0.824580 0.280660 0.061400 0.997943
Zn2   Zn    Zn3+2 0.763170 0.780750 0.938580 0.973743
Zn3   Zn    Zn3+2 0.263170 0.719250 0.938580 0.973718
Zn4   Zn    Zn3+2 0.263170 0.280750 0.938580 0.973647
Zn5   Zn    Zn3+2 0.675310 0.280670 0.938580 0.972187
Zn6   Zn    Zn3+2 0.675310 0.719330 0.938580 0.972248
Zn7   Zn    Zn3+2 0.175310 0.780670 0.938580 0.972145
Zn8   Zn    Zn3+2 0.175310 0.219330 0.938580 0.972220
Zn9   Zn    Zn3+2 0.824580 0.719340 0.061400 0.998149
Zn10  Zn    Zn3+2 0.324580 0.780660 0.061400 0.997861
Zn11  Zn    Zn3+2 0.324580 0.219340 0.061400 0.998156
Zn12  Zn    Zn3+2 0.736740 0.219240 0.061440 0.969286
Zn13  Zn    Zn3+2 0.736740 0.780760 0.061440 0.969062
Zn14  Zn    Zn3+2 0.236740 0.719240 0.061440 0.969465
Zn15  Zn    Zn3+2 0.236740 0.280760 0.061440 0.969182
Zn16  Zn    Zn3+2 0.763170 0.219250 0.938580 0.973821

loop_
_geom_bond_atom_site_label_1
_geom_bond_atom_site_label_2
_ccdc_geom_bond_type
C133  C137  S    
C53   H62   S    
C107  C112  S    
C136  C140  S    
C125  H80   S    
O34   Zn4   S    
O29   Zn3   S    
O62   Zn10  S    
C135  C139  S    
O2    Zn6   S    
C49   H1    S    
C122  C139  S    
O28   Zn2   S    
O38   Zn7   S    
C26   O54   S    
C57   C59   T    
C103  H75   S    
C5    C36   S    
C134  O50   S    
C105  C123  S    
C70   H7    S    
C126  H81   S    
C80   C86   S    
C43   C58   S    
C139  H68   S    
C107  H40   S    
C70   C74   S    
C109  C142  S    
C84   C91   S    
C112  C129  S    
O23   Zn10  S    
C35   C109  S    
C94   O10   A    
C46   C98   S    
C15   H90   S    
O10   Zn2   S    
O15   Zn6   S    
C81   H77   S    
C9    H106  S    
C17   C30   T    
C84   H110  S    
C86   H13   S    
C63   O59   S    
C19   C32   T    
C36   O2    A    
C1    O14   A    
C3    C123  S    
H23   O60   S    
C104  H76   S    
C24   C120  S    
O21   Zn11  S    
O8    Zn15  S    
C51   C131  S    
C81   C99   S    
C50   C51   S    
O16   Zn7   S    
O12   Zn2   S    
C67   H4    S    
C108  C113  S    
C118  C149  T    
C52   H101  S    
C1    O5    A    
C26   H97   S    
C110  C123  S    
C68   C72   S    
C133  H70   S    
C20   C33   T    
C49   H119  S    
H22   O59   S    
C82   C84   S    
C74   C79   S    
O12   Zn6   S    
O6    Zn13  S    
C53   H102  S    
C103  C121  S    
C53   C109  S    
C16   C25   S    
C66   C77   S    
C34   O64   A    
H21   O58   S    
C116  C147  T    
C4    C150  T    
O3    Zn7   S    
C5    C151  T    
O7    Zn14  S    
C42   O35   A    
C65   O15   A    
C105  H78   S    
O11   Zn3   S    
O56   Zn9   S    
C141  O22   A    
C123  C140  S    
O47   Zn10  S    
C52   C98   S    
C68   C92   S    
O1    Zn1   S    
C87   O8    A    
C129  C147  S    
C81   C88   S    
C47   C59   S    
C125  C129  S    
O9    Zn16  S    
H17   O53   S    
C137  H65   S    
C65   O6    A    
C10   H107  S    
H19   O55   S    
C18   C31   T    
C44   O46   A    
C104  H37   S    
C45   O47   A    
C102  C119  S    
C80   C97   S    
C9    H83   S    
O23   Zn7   S    
O24   Zn13  S    
C72   C85   S    
C21   C31   S    
C115  C146  T    
C51   H3    S    
C72   C77   S    
C74   C76   S    
C93   O18   A    
C117  C148  T    
C50   C120  S    
C23   C29   S    
O36   Zn5   S    
C45   O38   A    
C78   C80   S    
O34   Zn15  S    
C104  C122  S    
C11   C25   S    
C2    H114  S    
O22   Zn12  S    
O39   Zn8   S    
C96   O21   A    
C63   C99   S    
C40   O41   A    
C116  C144  S    
C12   H92   S    
O37   Zn6   S    
C110  C114  S    
C19   C42   S    
O34   Zn8   S    
C48   H118  S    
C46   C58   T    
C61   C120  S    
C143  O56   A    
C66   C101  S    
O1    Zn12  S    
C69   C89   S    
C85   C92   S    
C69   H6    S    
C106  C111  S    
C1    C72   S    
C113  C130  S    
C105  C127  S    
H18   O54   S    
C62   O58   S    
C138  H58   S    
C121  C151  S    
C122  C152  S    
O23   Zn14  S    
C13   H117  S    
C111  H48   S    
C62   C97   S    
O25   Zn14  S    
C15   H94   S    
C132  C136  S    
C91   H28   S    
C89   H26   S    
O30   Zn4   S    
C138  H67   S    
C134  H71   S    
C91   C100  S    
C93   C97   S    
C90   C99   S    
C52   C53   S    
H12   O49   S    
C83   C101  S    
C35   C56   T    
C44   O37   A    
C62   C78   S    
C50   H120  S    
C75   C82   S    
C10   H86   S    
C102  H35   S    
C88   H24   S    
C14   C22   S    
C48   H33   S    
C128  C146  S    
C2    C142  S    
C28   O57   S    
C64   C75   S    
C85   H2    S    
C103  C125  S    
C10   C11   S    
C111  C128  S    
C76   O16   A    
O48   Zn11  S    
O5    Zn12  S    
C75   H8    S    
C136  H73   S    
C106  C119  S    
O31   Zn12  S    
C130  C135  S    
C118  C141  S    
C64   O60   S    
C25   C28   S    
C26   C27   S    
O1    Zn5   S    
C28   C29   S    
O17   Zn8   S    
H25   O61   S    
C3    C7    T    
H20   O57   S    
C36   O28   A    
C126  C130  S    
C135  O51   S    
C102  H74   S    
C47   O39   A    
C73   C87   S    
C54   C55   S    
C144  O25   A    
C69   C73   S    
O18   Zn1   S    
C22   C30   S    
O63   Zn11  S    
C124  C128  S    
C14   H93   S    
C6    C152  T    
C119  C150  S    
C21   C27   S    
C96   C101  S    
C24   H116  S    
C132  C149  S    
C82   C100  S    
C112  H49   S    
C102  C124  S    
C94   O19   A    
C77   H9    S    
C54   H63   S    
C38   O30   A    
O26   Zn15  S    
O43   Zn4   S    
O13   Zn4   S    
C79   H11   S    
C107  H45   S    
C145  O26   A    
H14   O50   S    
C62   C69   S    
C137  H57   S    
C60   C61   T    
C17   C40   S    
C18   C39   S    
C28   H100  S    
C44   C56   S    
C67   C91   S    
O27   Zn16  S    
C13   C131  S    
O1    Zn16  S    
C113  H50   S    
O14   Zn5   S    
C92   C101  S    
C8    H84   S    
C48   C49   S    
C83   C85   S    
C88   C90   S    
C55   C131  S    
C43   O36   A    
C107  C121  S    
C68   H5    S    
C140  H60   S    
C133  O49   S    
C16   H95   S    
C76   O7    A    
C95   C100  S    
C105  H38   S    
C103  H36   S    
C86   C89   S    
C13   H113  S    
C111  H52   S    
C112  H53   S    
C106  H43   S    
C115  C145  S    
C27   O53   S    
C92   H29   S    
C11   H108  S    
C27   H96   S    
C113  H54   S    
C43   O44   A    
C41   O33   A    
C87   O17   A    
C114  H56   S    
C67   C71   S    
C108  H46   S    
C143  O24   A    
C124  H79   S    
C129  C134  S    
C64   C100  S    
C9    C22   S    
C22   C26   S    
C47   O48   A    
O41   Zn2   S    
O12   Zn13  S    
C74   C88   S    
O42   Zn3   S    
O35   Zn15  S    
C66   C68   S    
C45   C60   S    
C54   C120  S    
C125  H31   S    
C54   H103  S    
C126  H32   S    
C39   O40   A    
C93   O9    A    
C20   C41   S    
C63   C79   S    
C124  H30   S    
C135  H72   S    
C117  C143  S    
C51   H44   S    
C80   H66   S    
C140  H69   S    
C2    H109  S    
C77   C83   S    
C37   O29   A    
C15   C16   S    
O46   Zn9   S    
C127  H34   S    
C141  O45   A    
C55   H104  S    
C39   O31   A    
H16   O52   S    
C8    H105  S    
C40   O32   A    
C66   O61   S    
C127  C132  S    
C12   H87   S    
C34   O27   A    
C8    C9    S    
C23   C33   S    
C82   H88   S    
C42   O43   A    
C110  H42   S    
C73   C78   S    
O12   Zn9   S    
C50   H55   S    
C25   C32   S    
C15   C23   S    
C70   C90   S    
C106  H39   S    
C96   O13   A    
C4    C34   S    
O32   Zn13  S    
C130  C148  S    
C119  C137  S    
C64   C67   S    
C145  O63   A    
C142  H115  S    
C55   H64   S    
C79   C81   S    
C139  H59   S    
C65   C71   S    
C12   C21   S    
C13   C24   S    
C89   C97   S    
C29   O55   S    
C121  C138  S    
O64   Zn5   S    
C14   H89   S    
O44   Zn1   S    
C63   C70   S    
C24   H112  S    
C8    C21   S    
C6    C37   S    
C95   O20   A    
C12   C14   S    
C41   O42   A    
C78   H10   S    
O19   Zn9   S    
C49   C109  S    
C71   C84   S    
O20   Zn10  S    
O40   Zn16  S    
C90   H27   S    
C127  H82   S    
C83   H99   S    
C110  H47   S    
C114  C132  S    
C57   C131  S    
C108  C122  S    
C134  C138  S    
C10   C23   S    
C11   H85   S    
C48   C98   S    
C95   O11   A    
C29   H98   S    
C144  O62   A    
O23   Zn3   S    
O45   Zn1   S    
C128  C133  S    
C37   O3    A    
C71   C75   S    
C38   O4    A    
C94   C99   S    
O4    Zn8   S    
C52   H61   S    
C7    C38   S    
C136  O52   S    
C73   C86   S    
C16   H91   S    
O34   Zn11  S    
C104  C126  S    
C2    C98   S    
C142  H111  S    
C114  H51   S    
C108  H41   S    
O33   Zn14  S    
H15   O51   S    
