data_mof_unit_45344.cif
_audit_creation_date              2012-12-11T14:34:17-0500
_audit_creation_method            fapswitch 2.2
_symmetry_space_group_name_H-M    P1
_symmetry_Int_Tables_number       1
_space_group_crystal_system       triclinic
_cell_length_a                    13.928904
_cell_length_b                    14.017407
_cell_length_c                    27.245006
_cell_angle_alpha                 90.264941
_cell_angle_beta                  89.855161
_cell_angle_gamma                 119.845588
_cell_volume                      4613.93161513

loop_
_atom_site_label
_atom_site_type_symbol
_atom_type_description
_atom_site_fract_x
_atom_site_fract_y
_atom_site_fract_z
_atom_type_partial_charge
C1    C     C_R   0.234587 0.786879 0.569060 0.555889
C2    C     C_1   0.685427 0.849484 0.864464 -0.055047
C3    C     C_2   0.657504 0.001413 0.396286 0.297733
C4    C     C_2   0.990092 0.657072 0.401296 0.274242
C5    C     C_2   0.349613 0.342430 0.399518 0.269186
C6    C     C_2   0.714381 0.135638 0.217870 0.209063
C7    C     C_2   0.836481 0.617559 0.226133 0.209837
C8    C     C_2   0.401611 0.254660 0.221700 0.202848
C9    C     C_2   0.563325 0.539581 0.201150 0.272920
C10   C     C_2   0.435544 0.047168 0.210209 0.269511
C11   C     C_2   0.936295 0.373129 0.212542 0.253996
C12   C     C_2   0.678507 0.660026 0.382813 0.263540
C13   C     C_1   0.139624 0.838832 0.861882 -0.017418
C14   C     C_2   0.325018 0.026164 0.395735 0.275377
C15   C     C_2   0.972588 0.289895 0.399180 0.270791
C16   C     C_2   0.743266 0.041509 0.801198 0.205037
C17   C     C_2   0.026638 0.617184 0.811479 0.232172
C18   C     C_2   0.258726 0.211166 0.796662 0.210313
C19   C     C_1   0.169741 0.314342 0.864504 -0.059534
C20   C     C_1   0.611197 0.804248 0.662036 -0.063159
C21   C     C_1   0.186629 0.809735 0.659840 -0.057470
C22   C     C_1   0.198850 0.393484 0.662494 -0.063476
C23   C     C_1   0.590453 0.790555 0.618869 0.007867
C24   C     C_1   0.204426 0.802286 0.617244 0.013101
C25   C     C_1   0.202683 0.412622 0.619296 0.008643
C26   C     C_R   0.069212 0.158678 0.097207 0.506337
C27   C     C_R   0.214131 0.450108 0.569796 0.545558
C28   C     C_R   0.778402 0.885139 0.088511 0.532414
C29   C     C_R   0.089172 0.929881 0.097288 0.501792
C30   C     C_R   0.108527 0.222258 0.951656 0.593966
C31   C     C_R   0.777470 0.885665 0.951813 0.578140
C32   C     C_R   0.114038 0.891976 0.951528 0.593045
C33   C     C_R   0.648048 0.909628 0.365146 -0.019618
C34   C     C_R   0.077535 0.747777 0.371771 -0.015282
C35   C     C_R   0.255781 0.335515 0.370703 -0.003921
C36   C     C_R   0.662173 0.921536 0.313548 -0.022919
C37   C     C_R   0.058598 0.761858 0.321864 -0.021537
C38   C     C_R   0.550547 0.764249 0.569600 0.552073
C39   C     C_R   0.242159 0.304561 0.320574 -0.020192
C40   C     C_R   0.689926 0.941929 0.210333 0.039879
C41   C     C_R   0.029031 0.789165 0.220926 0.037549
C42   C     C_R   0.214994 0.249955 0.219469 0.045288
C43   C     C_R   0.229714 0.790750 0.433863 0.582755
C44   C     C_R   0.209032 0.438761 0.433919 0.540740
C45   C     C_R   0.558014 0.768061 0.432193 0.583139
C46   C     C_R   0.697871 0.030669 0.238698 0.010258
C47   C     C_R   0.942198 0.703222 0.248069 0.021236
C48   C     C_R   0.307749 0.259466 0.245197 0.017048
C49   C     C_3   0.661914 0.730985 0.791700 -0.081271
C50   C     C_R   0.685738 0.019663 0.289709 -0.155552
C51   C     C_R   0.957383 0.692513 0.298179 -0.152279
C52   C     C_R   0.317739 0.282822 0.295539 -0.159821
C53   C     C_R   0.722638 0.954236 0.160855 -0.093290
C54   C     C_R   0.014720 0.815127 0.172578 -0.097986
C55   C     C_R   0.189294 0.209106 0.171223 -0.095888
C56   C     C_R   0.717398 0.865994 0.134524 -0.034351
C57   C     C_R   0.103657 0.898912 0.146857 -0.034694
C58   C     C_R   0.098425 0.203494 0.146936 -0.032280
C59   C     C_R   0.642773 0.733218 0.359029 -0.012060
C60   C     C_3   0.158804 0.931417 0.782100 -0.065700
C61   C     C_R   0.251649 0.921915 0.368568 -0.013297
C62   C     C_R   0.075503 0.325012 0.369604 -0.010283
C63   C     C_R   0.634095 0.734897 0.307821 -0.032302
C64   C     C_R   0.245120 0.921836 0.317536 -0.030153
C65   C     C_R   0.073088 0.317390 0.318422 0.028163
C66   C     C_R   0.648767 0.831345 0.284896 0.032237
C67   C     C_R   0.145948 0.844844 0.294263 0.033582
C68   C     C_R   0.153812 0.301822 0.294090 0.021301
C69   C     C_R   0.607086 0.641298 0.279232 -0.174316
C70   C     C_R   0.337787 0.991521 0.289201 -0.172957
C71   C     C_3   0.093055 0.369981 0.794703 -0.082841
C72   C     C_R   0.999023 0.335918 0.290880 -0.126737
C73   C     C_R   0.603908 0.644790 0.228210 0.004350
C74   C     C_R   0.330558 0.990874 0.238334 -0.002773
C75   C     C_R   0.996434 0.327349 0.239960 -0.022799
C76   C     C_R   0.640028 0.747109 0.205093 0.031657
C77   C     C_R   0.225055 0.932914 0.216313 0.030673
C78   C     C_R   0.058001 0.284135 0.217245 0.031744
C79   C     C_3   0.530200 0.815892 0.742061 -0.211773
C80   C     C_3   0.267925 0.813683 0.740686 -0.228779
C81   C     C_3   0.306096 0.456001 0.741167 -0.211796
C82   C     C_3   0.640137 0.718156 0.735369 -0.231002
C83   C     C_R   0.657567 0.839704 0.233361 0.030220
C84   C     C_R   0.133225 0.854976 0.243756 0.032379
C85   C     C_R   0.142750 0.279014 0.243553 0.028050
C86   C     C_R   0.669389 0.761796 0.155530 -0.090030
C87   C     C_R   0.208244 0.955350 0.168566 -0.092548
C88   C     C_R   0.034186 0.241928 0.169872 -0.081788
C89   C     C_R   0.626615 0.809209 0.386986 0.042655
C90   C     C_R   0.181051 0.823141 0.393265 0.041952
C91   C     C_R   0.177253 0.358301 0.393190 -0.023875
C92   C     C_3   0.736500 0.923514 0.727445 -0.184177
C93   C     C_3   0.173836 0.924152 0.725778 -0.231448
C94   C     C_3   0.061335 0.717168 0.730309 -0.200126
C95   C     C_3   0.166016 0.256035 0.726032 -0.186771
C96   C     C_3   0.749516 0.941385 0.784063 -0.086143
C97   C     C_3   0.047472 0.722442 0.786966 -0.073506
C98   C     C_3   0.169487 0.238036 0.782204 -0.068465
C99   C     C_1   0.721358 0.865615 0.905690 0.019211
C100  C     C_1   0.129623 0.858068 0.904062 0.046590
C101  C     C_1   0.146718 0.278129 0.905600 0.015698
C102  C     C_3   0.629014 0.815389 0.715406 0.033285
C103  C     C_3   0.172221 0.816047 0.712867 0.024281
C104  C     C_3   0.102967 0.393972 0.738661 -0.221959
C105  C     C_3   0.194214 0.375484 0.715778 0.025423
C106  C     C_3   0.544517 0.818938 0.798863 -0.224591
C107  C     C_3   0.256805 0.824193 0.796744 -0.252818
C108  C     C_3   0.296890 0.440704 0.798033 -0.222138
C109  C     C_3   0.660776 0.835726 0.811352 0.025680
C110  C     C_3   0.149375 0.827720 0.808547 0.020387
C111  C     C_3   0.182583 0.340409 0.811463 0.010920
C112  C     C_2   0.767667 0.731484 0.803711 0.237020
C113  C     C_2   0.062533 0.950414 0.792614 0.161291
C114  C     C_2   0.977417 0.281323 0.807138 0.259073
Cr1   Cr    Cr6+3 0.164410 0.584450 0.499910 1.075145
Cr2   Cr    Cr6+3 0.415550 0.579960 0.499910 1.106441
Cr3   Cr    Cr6+3 0.420040 0.835590 0.499910 1.099616
Cr4   Cr    Cr6+3 0.155170 0.075460 0.019960 1.087886
Cr5   Cr    Cr6+3 0.924540 0.079710 0.019960 1.079377
Cr6   Cr    Cr6+3 0.920290 0.844830 0.019960 1.097757
H1    H     H_    0.451125 0.741684 0.731592 0.094585
H2    H     H_    0.581894 0.562875 0.296415 0.065413
H3    H     H_    0.418301 0.039616 0.306161 0.066203
H4    H     H_    0.949668 0.366268 0.308572 0.139521
H5    H     H_    0.525119 0.889096 0.730288 0.159251
H6    H     H_    0.267193 0.735410 0.732572 0.108377
H7    H     H_    0.372518 0.441102 0.727022 0.164921
H8    H     H_    0.737195 0.993473 0.708071 0.181948
H9    H     H_    0.058609 0.639167 0.719376 0.150700
H10   H     H_    0.222608 0.236589 0.704948 0.182982
H11   H     H_    0.532924 0.885553 0.814959 0.151342
H12   H     H_    0.348763 0.882429 0.727996 0.135221
H13   H     H_    0.257573 0.754615 0.815762 0.100196
H14   H     H_    0.365777 0.429665 0.811828 0.163167
H15   H     H_    0.478854 0.740516 0.814949 0.100898
H16   H     H_    0.330268 0.900648 0.810332 0.138474
H17   H     H_    0.306347 0.516519 0.815851 0.099523
H18   H     H_    0.843754 0.789675 0.785925 0.092087
H19   H     H_    0.006805 0.944549 0.763531 0.080142
H20   H     H_    0.943715 0.201936 0.789418 0.098080
H21   H     H_    0.622762 0.051581 0.384374 0.096243
H22   H     H_    0.939666 0.575869 0.385478 0.092287
H23   H     H_    0.330235 0.542394 0.732212 0.096598
H24   H     H_    0.432241 0.379956 0.384045 0.079321
H25   H     H_    0.734697 0.204252 0.242377 0.079501
H26   H     H_    0.765602 0.570699 0.249767 0.073066
H27   H     H_    0.461176 0.247585 0.244703 0.070237
H28   H     H_    0.667463 0.695438 0.134337 0.199650
H29   H     H_    0.275585 0.021930 0.148914 0.202081
H30   H     H_    0.961795 0.233644 0.151351 0.194130
H31   H     H_    0.571566 0.473660 0.217510 0.123433
H32   H     H_    0.509425 0.111038 0.227849 0.107241
H33   H     H_    0.878390 0.390640 0.231768 0.106874
H34   H     H_    0.763339 0.034115 0.143768 0.181689
H35   H     H_    0.672792 0.589229 0.363987 0.075457
H36   H     H_    0.390906 0.096842 0.377304 0.087058
H37   H     H_    0.976279 0.292653 0.438944 0.159427
H38   H     H_    0.808766 0.918842 0.712775 0.082069
H39   H     H_    0.991119 0.718150 0.711351 0.121510
H40   H     H_    0.081335 0.198312 0.712034 0.086348
H41   H     H_    0.768352 0.071392 0.838406 0.153741
H42   H     H_    0.083065 0.617413 0.838891 0.105858
H43   H     H_    0.256426 0.178935 0.833051 0.146189
H44   H     H_    0.833735 0.957450 0.794002 0.093990
H45   H     H_    0.934400 0.775127 0.155180 0.180811
H46   H     H_    0.972430 0.728901 0.793776 0.170273
H47   H     H_    0.089356 0.164989 0.792315 0.106030
H48   H     H_    0.562447 0.639493 0.727900 0.120473
H49   H     H_    0.254226 0.995598 0.714253 0.158187
H50   H     H_    0.123794 0.480788 0.732772 0.119734
H51   H     H_    0.707406 0.713296 0.715308 0.125139
H52   H     H_    0.108754 0.928985 0.704120 0.105336
H53   H     H_    0.022934 0.341515 0.719396 0.143611
H54   H     H_    0.593043 0.657549 0.809876 0.152822
H55   H     H_    0.234605 0.004804 0.796115 0.160843
H56   H     H_    0.235188 0.176400 0.152696 0.171181
H57   H     H_    0.108720 0.446275 0.814427 0.155689
H58   H     H_    0.695433 0.089709 0.310546 0.110525
H59   H     H_    0.889028 0.627875 0.318234 0.081702
H60   H     H_    0.387332 0.286232 0.314622 0.070411
O1    O     O_R   0.137150 0.468200 0.553200 -0.506187
O2    O     O_R   0.140110 0.470540 0.446010 -0.541243
O3    O     O_R   0.529460 0.669570 0.446010 -0.478903
O4    O     O_R   0.330430 0.859890 0.446010 -0.486855
O5    O     O_R   0.176710 0.690910 0.450560 -0.477009
O6    O     O_R   0.309090 0.485800 0.450560 -0.465588
O7    O     O_R   0.514200 0.823290 0.450560 -0.486189
O8    O     O_3   0.333333 0.666667 0.499990 -0.312253
O9    O     O_R   0.176750 0.985260 0.074180 -0.493569
O10   O     O_R   0.014740 0.191490 0.074180 -0.476708
O11   O     O_R   0.808510 0.823250 0.074180 -0.519888
O12   O     O_R   0.531800 0.668950 0.553200 -0.488744
O13   O     O_R   0.146100 0.172630 0.068980 -0.478721
O14   O     O_R   0.827370 0.973470 0.068980 -0.522312
O15   O     O_R   0.026530 0.853900 0.068980 -0.463924
O16   O     O_3   1.000000 0.000000 0.020040 -0.287409
O17   O     O_R   0.148270 0.170520 0.969620 -0.485698
O18   O     O_R   0.829480 0.977750 0.969620 -0.493134
O19   O     O_R   0.022250 0.851730 0.969620 -0.468502
O20   O     O_2   0.767889 0.665817 0.832927 -0.457382
O21   O     O_2   0.046877 0.974193 0.833883 -0.540193
O22   O     O_2   0.921482 0.298522 0.836575 -0.431491
O23   O     O_R   0.331050 0.862850 0.553200 -0.485643
O24   O     O_2   0.705187 0.021955 0.435769 -0.448979
O25   O     O_2   0.972746 0.673175 0.443650 -0.438079
O26   O     O_2   0.334581 0.304918 0.440984 -0.445488
O27   O     O_2   0.698225 0.145467 0.174677 -0.452633
O28   O     O_2   0.828808 0.592512 0.182785 -0.473957
O29   O     O_2   0.419017 0.266329 0.177627 -0.460108
O30   O     O_2   0.515310 0.523149 0.161925 -0.440395
O31   O     O_2   0.442489 0.019117 0.168467 -0.429323
O32   O     O_2   0.955070 0.398199 0.169311 -0.431922
O33   O     O_2   0.721881 0.682469 0.423307 -0.431575
O34   O     O_R   0.179100 0.982980 0.967000 -0.493935
O35   O     O_2   0.307668 0.036729 0.438839 -0.429155
O36   O     O_2   0.881445 0.250011 0.380049 -0.525091
O37   O     O_2   0.709057 0.088326 0.774800 -0.482081
O38   O     O_2   0.944558 0.530067 0.800878 -0.431432
O39   O     O_2   0.334164 0.226475 0.768979 -0.519303
O40   O     O_R   0.017020 0.196120 0.967000 -0.475671
O41   O     O_R   0.803880 0.820900 0.967000 -0.473067
O42   O     O_R   0.173970 0.688730 0.549930 -0.486925
O43   O     O_R   0.311270 0.485240 0.549930 -0.484936
O44   O     O_R   0.514760 0.826030 0.549930 -0.488589

loop_
_geom_bond_atom_site_label_1
_geom_bond_atom_site_label_2
_ccdc_geom_bond_type
C71   C104  S    
Cr6   O16   S    
C93   H52   S    
C94   H39   S    
C80   H12   S    
C44   O2    A    
C34   C37   A    
C10   C74   S    
C39   C68   A    
C26   O13   A    
Cr1   O42   S    
C3    H21   S    
Cr5   O10   S    
C93   C103  S    
C34   C90   A    
C26   O10   A    
Cr3   O4    S    
C4    O25   D    
C2    C109  S    
C82   H48   S    
C40   C46   A    
C79   H1    S    
C80   C107  S    
C93   H49   S    
Cr6   O41   S    
C104  H50   S    
C50   H58   S    
C15   H37   S    
C32   O19   A    
C4    H22   S    
C108  H17   S    
Cr1   O5    S    
Cr4   O9    S    
C36   C66   A    
C20   C102  S    
C43   O5    A    
C113  O21   D    
Cr5   O18   S    
Cr2   O3    S    
C37   C67   A    
C43   O4    A    
C92   C96   S    
Cr6   O19   S    
C92   H38   S    
Cr5   O16   S    
C59   C89   A    
C38   O44   A    
Cr4   O13   S    
C104  C105  S    
Cr4   O16   S    
C95   C105  S    
C10   H32   S    
C66   C83   A    
C31   O41   A    
C12   C59   S    
C70   H3    S    
C63   C69   A    
C74   C77   A    
C71   C111  S    
C70   C74   A    
C95   H10   S    
C28   O14   A    
C114  O22   D    
C79   C102  S    
C69   C73   A    
C114  H20   S    
C27   O43   A    
C45   C89   S    
C98   H47   S    
C92   C102  S    
C7    H26   S    
C32   O34   A    
C60   C93   S    
C39   C52   A    
C79   H5    S    
C81   C108  S    
C67   C84   A    
C72   H4    S    
C3    O24   D    
C40   C83   A    
C60   C113  S    
C15   O36   D    
C9    C73   S    
C12   O33   D    
C72   C75   A    
C51   H59   S    
C18   O39   D    
C92   H8    S    
C76   C83   A    
C49   H54   S    
Cr1   O1    S    
C95   H40   S    
C81   C105  S    
C28   C56   S    
C106  H11   S    
C41   C54   A    
C4    C34   S    
C16   C96   S    
Cr6   O15   S    
C80   C103  S    
C33   C36   A    
C43   C90   S    
C64   C67   A    
C112  H18   S    
C32   C100  S    
Cr3   O7    S    
Cr6   O11   S    
C6    H25   S    
C45   O7    A    
C5    H24   S    
C47   C51   A    
C94   C97   S    
C29   O15   A    
C14   C61   S    
Cr2   O6    S    
C22   C25   T    
C96   H44   S    
C79   C106  S    
C86   H28   S    
C1    O42   A    
C82   C102  S    
C7    C47   S    
C49   C82   S    
C61   C64   A    
C35   C39   A    
C8    C48   S    
C52   H60   S    
C65   C72   A    
C108  H14   S    
C107  H16   S    
C33   C89   A    
C11   O32   D    
Cr2   O8    S    
C18   H43   S    
C56   C86   A    
C20   C23   T    
C48   C52   A    
C9    O30   D    
C65   C68   A    
C62   C91   A    
C38   O12   A    
C113  H19   S    
C41   C84   A    
C41   C47   A    
C16   O37   D    
Cr4   O34   S    
C42   C85   A    
C42   C48   A    
C26   C58   S    
C13   C110  S    
C77   C87   A    
C6    O27   D    
C44   C91   S    
C27   O1    A    
C49   C112  S    
C97   C110  S    
C78   C85   A    
C106  H15   S    
C29   C57   S    
C94   C103  S    
C40   C53   A    
C64   C70   A    
Cr5   O40   S    
C5    O26   D    
C107  C110  S    
C29   O9    A    
C21   C24   T    
C8    H27   S    
C54   H45   S    
C8    O29   D    
C1    O23   A    
C28   O11   A    
C76   C86   A    
Cr1   O2    S    
C36   C50   A    
C61   C90   A    
C45   O3    A    
C30   O40   A    
C53   C56   A    
C78   C88   A    
C82   H51   S    
C9    H31   S    
C98   C111  S    
C6    C46   S    
C62   C65   A    
C14   H36   S    
C88   H30   S    
C7    O28   D    
Cr3   O8    S    
C58   C88   A    
C2    C99   T    
C104  H53   S    
C19   C111  S    
C16   H41   S    
C25   C27   S    
C23   C38   S    
C18   C98   S    
C96   C109  S    
C46   C50   A    
C59   C63   A    
C77   C84   A    
C108  C111  S    
Cr5   O14   S    
C71   H57   S    
C13   C100  T    
C49   C109  S    
C107  H13   S    
C31   C99   S    
C11   C75   S    
C54   C57   A    
Cr1   O8    S    
C19   C101  T    
C80   H6    S    
C69   H2    S    
Cr2   O43   S    
C42   C55   A    
C37   C51   A    
C95   C98   S    
C5    C35   S    
C30   C101  S    
C73   C76   A    
C15   C62   S    
C14   O35   D    
C68   C85   A    
C22   C105  S    
Cr2   O12   S    
C75   C78   A    
C55   H56   S    
C63   C66   A    
C60   C110  S    
C17   H42   S    
C11   H33   S    
C21   C103  S    
C57   C87   A    
C10   O31   D    
C81   H23   S    
C30   O17   A    
C71   C114  S    
C1    C24   S    
C17   C97   S    
C94   H9    S    
C87   H29   S    
C55   C58   A    
C60   H55   S    
C3    C33   S    
Cr3   O44   S    
C12   H35   S    
Cr3   O23   S    
Cr4   O17   S    
C53   H34   S    
C112  O20   D    
C31   O18   A    
C81   H7    S    
C17   O38   D    
C97   H46   S    
C44   O6    A    
C106  C109  S    
C35   C91   A    
