data_mof_unit_36786.cif
_audit_creation_date              2012-10-26T19:41:33-0400
_audit_creation_method            fapswitch 2.2
_symmetry_space_group_name_H-M    P1
_symmetry_Int_Tables_number       1
_space_group_crystal_system       triclinic
_cell_length_a                    17.18494
_cell_length_b                    11.022712
_cell_length_c                    9.973687
_cell_angle_alpha                 110.891676
_cell_angle_beta                  93.952574
_cell_angle_gamma                 93.654859
_cell_volume                      1752.93181935

loop_
_atom_site_label
_atom_site_type_symbol
_atom_type_description
_atom_site_fract_x
_atom_site_fract_y
_atom_site_fract_z
_atom_type_partial_charge
C1    C     C_R   0.492191 0.254338 0.442344 0.598940
C2    C     C_R   0.647917 0.501142 0.481026 0.605390
C3    C     C_R   0.267938 0.489770 0.531589 0.027192
C4    C     C_R   0.731972 0.509526 0.468676 0.020554
C5    C     C_R   0.217770 0.379914 0.441349 -0.060691
C6    C     C_R   0.781761 0.621606 0.554670 -0.059275
C7    C     C_R   0.137538 0.379852 0.453173 -0.172977
C8    C     C_R   0.862180 0.620585 0.545126 -0.103825
C9    C     C_R   0.106835 0.484534 0.554415 -0.131929
C10   C     C_R   0.893327 0.512421 0.450310 0.029583
C11   C     C_R   0.156472 0.592441 0.648893 0.022257
C12   C     C_R   0.503269 0.745213 0.558555 0.600759
C13   C     C_R   0.844002 0.402439 0.359149 0.068178
C14   C     C_R   0.237459 0.593666 0.636346 0.424356
C15   C     C_R   0.762864 0.402350 0.369564 0.393630
C16   C     C_2   0.021245 0.480421 0.552829 -0.065825
C17   C     C_2   0.979019 0.515780 0.454188 -0.022974
C18   C     C_2   0.245592 0.261280 0.336697 0.299941
C19   C     C_2   0.753374 0.743221 0.652686 0.309362
C20   C     C_2   0.016871 0.563464 0.349689 0.228172
C21   C     C_2   0.987052 0.432633 0.660635 0.253862
C22   C     C_2   0.123465 0.703901 0.756825 0.301100
C23   C     C_2   0.482384 0.114281 0.413023 0.450231
C24   C     C_2   0.877501 0.287883 0.257019 0.329302
C25   C     C_2   0.406997 0.443723 0.853615 0.312250
C26   C     C_2   0.546152 0.646312 0.177891 0.326560
C27   C     C_2   0.614807 0.582524 0.912822 0.454954
C28   C     C_2   0.438875 0.315093 0.052359 0.464585
C29   C     C_2   0.503169 0.884787 0.590894 0.429852
C30   C     C_2   0.477106 0.069519 0.521633 0.383721
C31   C     C_2   0.470590 0.930022 0.493766 0.411536
C32   C     C_2   0.499086 0.524608 0.084375 0.068677
C33   C     C_2   0.484850 0.505787 0.926191 0.089486
C34   C     C_R   0.352036 0.498724 0.518970 0.596247
Cu1   Cu    Cu3+1 0.513640 0.521550 0.643210 1.170725
Cu2   Cu    Cu3+1 0.486360 0.478450 0.356790 1.153642
F1    F     F_    0.713541 0.296500 0.287052 -0.546082
F2    F     F_    0.287002 0.697680 0.722527 -0.526074
F3    F     F_    0.430512 0.847777 0.368179 -0.549978
F4    F     F_    0.479151 0.152365 0.661257 -0.644569
F5    F     F_    0.539347 0.967819 0.719792 -0.530057
F6    F     F_    0.479231 0.030336 0.273815 -0.498410
H1    H     H_    0.901409 0.704666 0.612337 0.126933
H2    H     H_    0.591232 0.645143 0.258410 0.117798
H3    H     H_    0.641293 0.531446 0.976854 0.051464
H4    H     H_    0.462469 0.267285 0.950333 0.137601
H5    H     H_    0.098100 0.297372 0.383014 0.134712
H6    H     H_    0.205156 0.195413 0.248576 0.148741
H7    H     H_    0.793913 0.813944 0.736628 0.151227
H8    H     H_    0.080055 0.573318 0.349684 0.140801
H9    H     H_    0.026279 0.411053 0.737546 0.146497
H10   H     H_    0.060699 0.704294 0.762732 0.093193
H11   H     H_    0.940315 0.287508 0.251775 0.089426
H12   H     H_    0.401867 0.364155 0.750298 0.161790
N1    N     N_2   0.465840 0.446060 0.141630 -0.275473
N2    N     N_2   0.534160 0.553940 0.858370 -0.249075
O1    O     O_R   0.507280 0.332200 0.576490 -0.535740
O2    O     O_2   0.686102 0.769029 0.637918 -0.441664
O3    O     O_2   0.977116 0.592895 0.261655 -0.459750
O4    O     O_2   0.916573 0.415590 0.665273 -0.471978
O5    O     O_2   0.165686 0.796945 0.841044 -0.359443
O6    O     O_2   0.835645 0.192242 0.176908 -0.369559
O7    O     O_2   0.347720 0.478478 0.911558 -0.430486
O8    O     O_2   0.536859 0.749241 0.161479 -0.344210
O9    O     O_2   0.655147 0.665885 0.888330 -0.394129
O10   O     O_2   0.388807 0.254424 0.090582 -0.366436
O11   O     O_R   0.492720 0.667800 0.423510 -0.521184
O12   O     O_R   0.484240 0.295800 0.334620 -0.411585
O13   O     O_R   0.515760 0.704200 0.665380 -0.394260
O14   O     O_R   0.399260 0.520290 0.634950 -0.499299
O15   O     O_R   0.600740 0.479710 0.365050 -0.527026
O16   O     O_R   0.376220 0.483890 0.393080 -0.451313
O17   O     O_R   0.623780 0.516110 0.606920 -0.463145
O18   O     O_2   0.312086 0.231988 0.350760 -0.446804

loop_
_geom_bond_atom_site_label_1
_geom_bond_atom_site_label_2
_ccdc_geom_bond_type
C2    C4    S    
C12   O13   A    
Cu2   O12   S    
C26   C32   S    
C16   C21   S    
C27   O9    D    
C3    C14   A    
C12   C29   S    
C14   F2    S    
C5    C7    A    
C19   H7    S    
C11   C22   S    
C23   F6    S    
Cu1   Cu2   S    
C8    H1    S    
Cu1   O1    S    
C32   C33   S    
C27   H3    S    
C33   N2    D    
Cu1   N2    S    
Cu2   O11   S    
C30   F4    S    
C18   O18   D    
Cu2   N1    S    
C22   O5    D    
C29   C31   D    
C6    C19   S    
C9    C11   A    
C28   H4    S    
C21   O4    D    
Cu1   O14   S    
C2    O17   A    
C24   O6    D    
C4    C15   A    
C6    C8    A    
C22   H10   S    
C11   C14   A    
C28   N1    S    
C31   F3    S    
C1    C23   S    
C1    O1    A    
C13   C15   A    
C19   O2    D    
C30   C31   S    
C12   O11   A    
C7    H5    S    
C4    C6    A    
C10   C17   S    
C26   H2    S    
C2    O15   A    
C3    C5    A    
C23   C30   D    
C34   O16   A    
C21   H9    S    
C1    O12   A    
C25   H12   S    
Cu1   O13   S    
Cu2   O15   S    
C8    C10   A    
C25   O7    D    
C7    C9    A    
C26   O8    D    
C34   O14   A    
C15   F1    S    
C20   H8    S    
C5    C18   S    
C32   N1    D    
C3    C34   S    
C29   F5    S    
C24   H11   S    
C27   N2    S    
C17   C20   S    
C9    C16   S    
Cu1   O17   S    
Cu2   O16   S    
C28   O10   D    
C13   C24   S    
C25   C33   S    
C16   C17   D    
C20   O3    D    
C10   C13   A    
C18   H6    S    
