data_mof_unit_49653.cif
_audit_creation_date              2012-12-11T15:24:00-0500
_audit_creation_method            fapswitch 2.2
_symmetry_space_group_name_H-M    P1
_symmetry_Int_Tables_number       1
_space_group_crystal_system       triclinic
_cell_length_a                    8.563498
_cell_length_b                    14.393992
_cell_length_c                    19.00454
_cell_angle_alpha                 93.138295
_cell_angle_beta                  94.703374
_cell_angle_gamma                 90.996302
_cell_volume                      2330.60203871

loop_
_atom_site_label
_atom_site_type_symbol
_atom_type_description
_atom_site_fract_x
_atom_site_fract_y
_atom_site_fract_z
_atom_type_partial_charge
Ba1   Ba    Ba6+2 0.150350 0.545800 0.464500 1.620309
Ba2   Ba    Ba6+2 0.659830 0.454190 0.535450 1.657142
C1    C     C_3   0.328036 0.737970 0.176350 -0.089904
C2    C     C_R   0.831330 0.799385 0.488404 0.053148
C3    C     C_R   0.689479 0.768691 0.451523 -0.254755
C4    C     C_3   0.867860 0.796951 0.256090 0.351545
C5    C     C_R   0.580938 0.831604 0.423426 0.034472
C6    C     C_R   0.622773 0.926085 0.423175 -0.152253
C7    C     C_R   0.766542 0.960659 0.456568 0.001167
C8    C     C_R   0.872698 0.897705 0.488946 -0.035711
C9    C     C_R   0.948531 0.094801 0.490382 -0.049493
C10   C     C_R   0.061356 0.030765 0.516617 0.012755
C11   C     C_R   0.987076 0.193060 0.496894 0.017725
C12   C     C_3   0.323484 0.724594 0.257196 0.369590
C13   C     C_R   0.128584 0.223144 0.533853 -0.301388
C14   C     C_R   0.244794 0.160768 0.552810 0.010935
C15   C     C_R   0.216006 0.064320 0.539993 0.036044
C16   C     C_3   0.871266 0.862746 0.193842 -0.212065
C17   C     C_R   0.804257 0.057542 0.457926 -0.057299
C18   C     C_R   0.612099 0.526895 0.296315 -0.286699
C19   C     C_R   0.465935 0.484576 0.276592 0.067137
C20   C     C_R   0.413731 0.473637 0.204677 -0.099198
C21   C     C_R   0.511211 0.498636 0.151975 0.041496
C22   C     C_R   0.664183 0.535819 0.172507 -0.009015
C23   C     C_3   0.439608 0.751160 0.645460 0.247130
C24   C     C_R   0.710181 0.553700 0.245236 0.028051
C25   C     C_R   0.452767 0.567959 0.035705 -0.116236
C26   C     C_R   0.401780 0.563509 0.964171 -0.079781
C27   C     C_R   0.343868 0.479744 0.930644 0.074926
C28   C     C_3   0.916736 0.315854 0.321134 0.268940
C29   C     C_R   0.336551 0.400309 0.970175 -0.139111
C30   C     C_R   0.391950 0.402915 0.042113 -0.036262
C31   C     C_R   0.450030 0.488660 0.075921 0.050202
C32   C     C_R   0.153053 0.430277 0.828383 -0.137104
C33   C     C_R   0.109343 0.421765 0.755855 0.008468
C34   C     C_3   0.447040 0.849989 0.682059 -0.251560
C35   C     C_R   0.351080 0.501742 0.732773 0.073358
C36   C     C_R   0.392833 0.512365 0.805622 -0.156288
C37   C     C_R   0.296043 0.474177 0.853853 -0.013542
C38   C     C_R   0.212198 0.452781 0.708264 -0.209222
C39   C     C_3   0.870652 0.286718 0.243349 -0.216415
C40   C     C_3   0.977588 0.723845 0.699838 0.240380
C41   C     C_3   0.964737 0.791463 0.769877 -0.039034
C42   C     C_3   0.328459 0.261947 0.389227 0.321651
C43   C     C_3   0.293261 0.159806 0.367689 -0.394287
C44   C     C_3   0.997436 0.311739 0.195291 -0.473538
C45   C     C_3   0.891324 0.199986 0.695337 0.332009
C46   C     C_2   0.129517 0.679418 0.698902 0.389831
C47   C     C_3   0.864221 0.645349 0.703672 -0.257124
C48   C     C_3   0.083472 0.872690 0.777691 -0.399259
C49   C     C_3   0.988818 0.738619 0.839674 -0.370139
C50   C     C_2   0.806753 0.837715 0.766677 0.536513
C51   C     C_3   0.190074 0.690480 0.130757 -0.409701
C52   C     C_3   0.554227 0.747204 0.589672 -0.311354
C53   C     C_2   0.302361 0.901850 0.666802 0.354762
C54   C     C_3   0.347014 0.839847 0.157686 -0.285197
C55   C     C_2   0.809272 0.958635 0.208783 0.450243
C56   C     C_3   0.863406 0.102402 0.719442 -0.368470
C57   C     C_3   0.508669 0.285903 0.773339 -0.297742
C58   C     C_3   0.960934 0.842652 0.321562 -0.288525
C59   C     C_3   0.357962 0.003601 0.536424 -0.299341
C60   C     C_3   0.697073 0.780086 0.269759 -0.314774
C61   C     C_2   0.394383 0.313385 0.077402 0.476991
C62   C     C_3   0.780253 0.553787 0.118394 -0.368662
C63   C     C_3   0.389846 0.224451 0.727667 0.380798
C64   C     C_3   0.303859 0.162098 0.775050 -0.300206
C65   C     C_R   0.018854 0.934864 0.517480 -0.032743
H1    H     H_    0.213293 0.690320 0.268553 0.124318
H2    H     H_    0.431933 0.701563 0.159217 0.068443
H3    H     H_    0.324383 0.735634 0.617294 0.104188
H4    H     H_    0.463364 0.846250 0.740301 0.175396
H5    H     H_    0.545104 0.893171 0.665800 0.084327
H6    H     H_    0.804428 0.210685 0.650052 0.110716
H7    H     H_    0.011658 0.204890 0.677669 -0.046337
H8    H     H_    0.740590 0.093959 0.733101 0.157155
H9    H     H_    0.884839 0.050210 0.676230 0.077958
H10   H     H_    0.943299 0.089626 0.766742 0.115292
H11   H     H_    0.299970 0.269214 0.701807 -0.044580
H12   H     H_    0.759688 0.320763 0.225833 0.152979
H13   H     H_    0.250530 0.204580 0.817051 0.051023
H14   H     H_    0.385261 0.111912 0.800086 0.151634
H15   H     H_    0.207374 0.123591 0.743340 0.149326
H16   H     H_    0.656552 0.695646 0.449801 0.059687
H17   H     H_    0.542287 0.972696 0.396805 0.073020
H18   H     H_    0.154886 0.296930 0.542521 0.062454
H19   H     H_    0.100594 0.888339 0.539956 0.101469
H20   H     H_    0.719383 0.103389 0.433822 0.109244
H21   H     H_    0.499767 0.550318 0.824497 0.091643
H22   H     H_    0.407657 0.625830 0.934929 0.077563
H23   H     H_    0.850088 0.210049 0.237670 0.154707
H24   H     H_    0.499647 0.633698 0.059129 0.076309
H25   H     H_    0.298824 0.442861 0.189545 0.072834
H26   H     H_    0.294390 0.334851 0.943804 0.056230
H27   H     H_    0.074212 0.404600 0.865013 0.084104
H28   H     H_    0.177737 0.445503 0.652119 0.094401
H29   H     H_    0.652178 0.536490 0.351791 0.072911
H30   H     H_    0.993088 0.872077 0.180008 0.052330
H31   H     H_    0.804492 0.829277 0.146104 0.110178
H32   H     H_    0.901141 0.392009 0.329797 0.073281
H33   H     H_    0.039229 0.297135 0.333943 0.040097
H34   H     H_    0.231540 0.291503 0.417832 -0.049453
H35   H     H_    0.017878 0.387839 0.197323 0.162865
H36   H     H_    0.108787 0.277266 0.211347 0.159565
H37   H     H_    0.959313 0.287998 0.139879 0.146494
H38   H     H_    0.220342 0.691362 0.741466 -0.017847
H39   H     H_    0.895878 0.600898 0.748284 0.062634
H40   H     H_    0.749833 0.675786 0.710780 0.142350
H41   H     H_    0.865309 0.599387 0.655365 0.181979
H42   H     H_    0.204758 0.847136 0.781796 0.122413
H43   H     H_    0.059792 0.919517 0.733970 0.145003
H44   H     H_    0.070607 0.916310 0.826971 0.125289
H45   H     H_    0.437145 0.267570 0.424680 0.090297
H46   H     H_    0.890339 0.689324 0.845675 0.140505
H47   H     H_    0.099492 0.699630 0.842612 0.080746
H48   H     H_    0.993666 0.787940 0.886975 0.149635
H49   H     H_    0.776700 0.882542 0.723960 -0.009507
H50   H     H_    0.168774 0.618902 0.147231 0.137934
H51   H     H_    0.082739 0.731473 0.132599 0.170991
H52   H     H_    0.216577 0.685291 0.074503 0.114701
H53   H     H_    0.515738 0.798714 0.551304 0.019771
H54   H     H_    0.671053 0.767861 0.613838 0.085302
H55   H     H_    0.557018 0.677626 0.562112 0.120196
H56   H     H_    0.186275 0.152623 0.330453 0.109068
H57   H     H_    0.197753 0.866581 0.643275 0.038330
H58   H     H_    0.251333 0.882653 0.176722 0.132619
H59   H     H_    0.459539 0.869816 0.182302 0.167883
H60   H     H_    0.347603 0.844548 0.099548 0.112575
H61   H     H_    0.867525 0.005015 0.250063 -0.002134
H62   H     H_    0.557449 0.337660 0.739884 0.157506
H63   H     H_    0.453083 0.322785 0.817018 0.057806
H64   H     H_    0.603870 0.243242 0.796972 0.148164
H65   H     H_    0.978255 0.793293 0.363809 0.156363
H66   H     H_    0.076636 0.867631 0.307640 0.148368
H67   H     H_    0.273753 0.120201 0.414128 0.057128
H68   H     H_    0.899713 0.903917 0.342294 0.038966
H69   H     H_    0.333566 0.928560 0.530609 0.103321
H70   H     H_    0.419055 0.023255 0.490522 0.093402
H71   H     H_    0.441963 0.015236 0.583528 0.163821
H72   H     H_    0.639257 0.744062 0.222000 0.070422
H73   H     H_    0.685859 0.735572 0.314508 0.046147
H74   H     H_    0.638241 0.846547 0.281127 0.102504
H75   H     H_    0.319869 0.255605 0.054980 -0.000981
H76   H     H_    0.741897 0.524345 0.064639 0.115110
H77   H     H_    0.801568 0.629754 0.115959 0.119785
H78   H     H_    0.393420 0.129279 0.341577 0.138871
H79   H     H_    0.892247 0.519419 0.132447 0.129793
H80   H     H_    0.418224 0.676467 0.272827 -0.063767
O1    O     O_2   0.108370 0.727470 0.525290 -0.460332
O2    O     O_2   0.786817 0.439058 0.754686 -0.495165
O3    O     O_3   0.872279 0.265688 0.751369 -0.609482
O4    O     O_3   0.865330 0.611210 0.531230 -0.478598
O5    O     O_3   0.438280 0.453360 0.418700 -0.492003
O6    O     O_2   0.627420 0.543410 0.667830 -0.482366
O7    O     O_3   0.474163 0.688449 0.698404 -0.628750
O8    O     O_2   0.574809 0.166604 0.555148 -0.504835
O9    O     O_3   0.470885 0.169051 0.679416 -0.566242
O10   O     O_3   0.346360 0.671710 0.401620 -0.479970
O11   O     O_2   0.253146 0.841373 0.425058 -0.512886
O12   O     O_3   0.347360 0.307596 0.327403 -0.616611
O13   O     O_3   0.945393 0.770602 0.635395 -0.670301
O14   O     O_3   0.342343 0.809627 0.297893 -0.626940
O15   O     O_2   0.182890 0.456530 0.332150 -0.471895
O16   O     O_3   0.933230 0.625130 0.368420 -0.480535
O17   O     O_2   0.029046 0.547412 0.251512 -0.508319
O18   O     O_2   0.145713 0.623017 0.650252 -0.616728
O19   O     O_2   0.715711 0.828515 0.812202 -0.591293
O20   O     O_2   0.297871 0.983721 0.685964 -0.594374
O21   O     O_2   0.695688 0.985965 0.173362 -0.567697
O22   O     O_2   0.483214 0.301248 0.129494 -0.578543
O23   O     O_3   0.942288 0.714181 0.234036 -0.612854
O24   O     O_2   0.701930 0.272470 0.474700 -0.447136
O25   O     O_3   0.944970 0.388780 0.468720 -0.487415
O26   O     O_3   0.463940 0.328280 0.598320 -0.490095
O27   O     O_3   0.819466 0.266991 0.362364 -0.635695
O28   O     O_3   0.372010 0.546630 0.581240 -0.431594
O29   O     O_3   0.877070 0.374860 0.631520 -0.486406
P1    P     P_3+3 0.937730 0.712710 0.546710 1.014633
P2    P     P_3+3 0.357970 0.428340 0.344000 1.006694
P3    P     P_3+3 0.899768 0.611232 0.276240 0.917981
P4    P     P_3+3 0.872570 0.287280 0.453240 0.975213
P5    P     P_3+3 0.912400 0.376892 0.723302 0.931368
P6    P     P_3+3 0.381979 0.788776 0.387986 0.914183
P7    P     P_3+3 0.452213 0.570430 0.669889 1.013092
P8    P     P_3+3 0.437036 0.207570 0.593534 0.940343

loop_
_geom_bond_atom_site_label_1
_geom_bond_atom_site_label_2
_ccdc_geom_bond_type
C57   H63   S    
O1    P1    D    
C52   H53   S    
C9    C11   A    
C53   O20   D    
C2    P1    S    
C59   H70   S    
C58   H65   S    
C55   H61   S    
O9    P8    S    
C56   H9    S    
C5    C6    A    
C47   H40   S    
C55   O21   D    
C8    C65   A    
C25   C31   A    
C44   H35   S    
C57   H64   S    
C43   H67   S    
C49   H46   S    
C43   H78   S    
C26   C27   A    
C1    H2    S    
C22   C24   A    
C32   C33   A    
C35   C38   A    
C17   H20   S    
Ba2   O26   S    
C36   C37   A    
C3    H16   S    
C51   H50   S    
C41   C50   S    
O4    P1    S    
C13   C14   A    
C35   P7    S    
C28   H33   S    
C48   H43   S    
Ba1   O5    S    
Ba1   Ba2   S    
C1    C54   S    
C54   H60   S    
O14   P6    S    
C56   H10   S    
C15   C59   S    
Ba1   P1    S    
C7    C17   A    
C57   H62   S    
C46   O18   D    
C29   C30   A    
O26   P8    S    
C50   O19   D    
C6    C7    A    
C21   C31   S    
O6    P7    D    
C10   C15   A    
C59   H69   S    
C21   C22   A    
C28   C39   S    
C25   H24   S    
C26   H22   S    
C16   H30   S    
C54   H59   S    
C60   H72   S    
O3    P5    S    
C7    C8    A    
C34   H4    S    
Ba2   O24   S    
C13   H18   S    
Ba2   O29   S    
O25   P4    S    
C39   H23   S    
C52   H55   S    
C22   C62   S    
C6    H17   S    
C19   C20   A    
O2    P5    D    
Ba2   P4    S    
C56   H8    S    
C47   H41   S    
C50   H49   S    
Ba2   O5    S    
O29   P5    S    
C4    C16   S    
C10   C65   A    
C49   H47   S    
C32   C37   A    
C4    C58   S    
C16   H31   S    
C23   C52   S    
C45   H6    S    
C3    C5    A    
O8    P8    D    
C14   C15   A    
C62   H77   S    
C24   P3    S    
C44   H37   S    
C12   H80   S    
C48   H42   S    
C49   H48   S    
C36   H21   S    
C63   O9    S    
C35   C36   A    
Ba2   O28   S    
C64   H15   S    
Ba1   P2    S    
C16   C55   S    
C46   H38   S    
C45   O3    S    
C39   C44   S    
C9    C17   A    
O7    P7    S    
C27   C37   S    
C51   H52   S    
C43   H56   S    
C40   C46   S    
C54   H58   S    
O11   P6    D    
C58   H68   S    
O17   P3    D    
C42   H45   S    
C19   P2    S    
C52   H54   S    
Ba1   O15   S    
Ba2   O6    S    
C11   C13   A    
O16   P3    S    
O24   P4    D    
C40   C41   S    
C38   H28   S    
C2    C8    A    
O27   P4    S    
C42   C43   S    
O28   P7    S    
C4    O23   S    
Ba2   O4    S    
C53   H57   S    
Ba1   O28   S    
C65   H19   S    
C20   H25   S    
C63   H11   S    
C5    P6    S    
C62   H79   S    
C23   O7    S    
C51   H51   S    
C40   O13   S    
C32   H27   S    
C30   C61   S    
O12   P2    S    
C39   H12   S    
C42   H34   S    
C14   P8    S    
C41   C48   S    
C47   H39   S    
C62   H76   S    
C1    C12   S    
C33   P5    S    
C11   P4    S    
C64   H13   S    
C44   H36   S    
Ba1   O25   S    
O23   P3    S    
C30   C31   A    
C4    C60   S    
C12   O14   S    
Ba1   O10   S    
C33   C38   A    
C27   C29   A    
C34   C53   S    
C29   H26   S    
C57   C63   S    
C64   H14   S    
C1    C51   S    
C41   C49   S    
C18   C24   A    
C28   H32   S    
C48   H44   S    
C61   H75   S    
Ba1   O4    S    
C18   H29   S    
C45   H7    S    
C59   H71   S    
O13   P1    S    
O15   P2    D    
C61   O22   D    
C23   C34   S    
C2    C3    A    
C18   C19   A    
Ba1   O16   S    
C63   C64   S    
O10   P6    S    
O5    P2    S    
C25   C26   A    
C42   O12   S    
C12   H1    S    
C20   C21   A    
Ba1   O1    S    
C23   H3    S    
C60   H74   S    
C60   H73   S    
C40   C47   S    
C58   H66   S    
C28   O27   S    
C34   H5    S    
C9    C10   A    
Ba2   O25   S    
C45   C56   S    
