data_mof_unit_27681.cif
_audit_creation_date              2012-12-11T17:02:18-0500
_audit_creation_method            fapswitch 2.2
_symmetry_space_group_name_H-M    P1
_symmetry_Int_Tables_number       1
_space_group_crystal_system       triclinic
_cell_length_a                    21.641667
_cell_length_b                    7.083295
_cell_length_c                    15.127691
_cell_angle_alpha                 89.866273
_cell_angle_beta                  107.573973
_cell_angle_gamma                 89.955477
_cell_volume                      2210.74825462

loop_
_atom_site_label
_atom_site_type_symbol
_atom_type_description
_atom_site_fract_x
_atom_site_fract_y
_atom_site_fract_z
_atom_type_partial_charge
O1    O     O_R   0.585850 0.505770 0.002130 -0.538168
O2    O     O_R   0.414150 0.005770 0.997870 -0.536418
O3    O     O_R   0.467530 0.173560 0.861970 -0.531885
O4    O     O_R   0.532470 0.673560 0.138030 -0.535316
C1    C     C_R   0.454897 0.344501 0.825968 0.729642
C2    C     C_R   0.545985 0.844100 0.173670 0.727654
O5    O     O_R   0.588690 0.175900 0.993250 -0.544940
O6    O     O_R   0.411310 0.675900 0.006750 -0.544781
O7    O     O_R   0.536170 0.007950 0.130090 -0.540436
O8    O     O_R   0.463830 0.507950 0.869910 -0.539775
C3    C     C_R   0.615435 0.344303 0.000685 0.748583
C4    C     C_R   0.385225 0.844685 0.002834 0.747869
O9    O     O_3   0.482630 0.339970 0.044740 -0.376073
O10   O     O_3   0.517370 0.839970 0.955260 -0.376258
V1    V     V_3+5 0.503220 0.064200 0.991700 1.445168
V2    V     V_3+5 0.496780 0.564200 0.008300 1.442889
C5    C     C_R   0.270832 0.958101 0.935499 0.108425
C6    C     C_R   0.724606 0.503108 0.050221 0.114360
C7    C     C_R   0.316599 0.851318 0.001240 -0.164457
C8    C     C_R   0.685349 0.350566 0.009442 -0.162146
C9    C     C_R   0.292911 0.734596 0.059353 -0.231939
C10   C     C_R   0.715758 0.197512 0.981172 -0.243855
H1    H     H_    0.325857 0.641564 0.108567 0.182282
H2    H     H_    0.688228 0.072519 0.953219 0.159949
C11   C     C_R   0.227111 0.745223 0.058518 0.428257
C12   C     C_R   0.780927 0.208974 0.981888 0.442925
C13   C     C_R   0.183468 0.872941 0.997682 -0.214721
C14   C     C_R   0.818190 0.372765 0.012615 -0.205157
C15   C     C_R   0.206085 0.963075 0.930862 0.036027
C16   C     C_R   0.789471 0.513459 0.051812 0.013636
C17   C     C_3   0.197709 0.155542 0.888589 -0.396570
C18   C     C_3   0.783443 0.716511 0.028704 -0.309345
C19   C     C_3   0.270179 0.153580 0.899305 -0.393304
C20   C     C_3   0.713655 0.707543 0.029279 -0.389716
H3    H     H_    0.183633 0.262236 0.931400 0.157957
H4    H     H_    0.787812 0.735648 0.958132 0.208675
H5    H     H_    0.167040 0.153263 0.814912 0.182910
H6    H     H_    0.815102 0.804743 0.084987 0.200350
H7    H     H_    0.298428 0.253196 0.953134 0.168839
H8    H     H_    0.678066 0.734166 0.960056 0.179141
H9    H     H_    0.281504 0.158497 0.832867 0.212573
H10   H     H_    0.704753 0.786412 0.087737 0.174726
C21   C     C_R   0.931107 0.874792 0.722850 -0.067581
C22   C     C_R   0.073670 0.374204 0.275520 -0.061791
C23   C     C_R   0.574345 0.852336 0.273670 -0.086800
C24   C     C_R   0.429215 0.353281 0.725195 -0.083863
C25   C     C_R   0.941907 0.740768 0.580827 -0.147858
C26   C     C_R   0.067252 0.230902 0.417528 -0.148584
C27   C     C_R   0.969158 0.788985 0.674090 -0.163996
C28   C     C_R   0.037425 0.287754 0.326525 -0.155622
C29   C     C_R   0.865580 0.909771 0.677026 -0.169437
C30   C     C_R   0.140167 0.405369 0.316688 -0.191049
C31   C     C_R   0.835139 0.835976 0.587782 0.114587
C32   C     C_R   0.172841 0.330670 0.405481 0.110373
C33   C     C_R   0.874964 0.762459 0.537544 0.058949
C34   C     C_R   0.134547 0.249055 0.456836 0.068440
C35   C     C_R   0.766379 0.834266 0.547436 -0.172054
C36   C     C_R   0.241954 0.335292 0.445187 -0.183243
C37   C     C_R   0.739120 0.800454 0.450587 -0.105618
C38   C     C_R   0.269538 0.290073 0.540870 -0.104882
C39   C     C_R   0.780550 0.721331 0.402304 0.476003
C40   C     C_R   0.230585 0.190322 0.586126 0.471075
C41   C     C_R   0.847312 0.705233 0.446028 -0.272935
C42   C     C_R   0.163893 0.177039 0.545210 -0.271398
C43   C     C_R   0.723859 0.851640 0.602434 0.385043
C44   C     C_R   0.285002 0.371095 0.391985 0.408355
C45   C     C_R   0.658100 0.889526 0.561577 0.382659
C46   C     C_R   0.351042 0.405735 0.435824 0.385437
C47   C     C_R   0.631122 0.876970 0.465326 -0.069793
C48   C     C_R   0.377014 0.383932 0.532192 -0.078502
C49   C     C_R   0.671153 0.834788 0.408542 0.029156
C50   C     C_R   0.336068 0.332114 0.585739 0.028243
C51   C     C_R   0.563576 0.896679 0.425590 -0.125871
C52   C     C_R   0.444268 0.403598 0.575531 -0.122716
C53   C     C_R   0.535010 0.874473 0.330860 0.110264
C54   C     C_R   0.470627 0.376582 0.670849 0.112835
C55   C     C_R   0.641620 0.838305 0.311600 -0.188549
C56   C     C_R   0.362589 0.333983 0.683185 -0.176393
H11   H     H_    0.877534 0.644091 0.407922 0.142633
H12   H     H_    0.135199 0.104003 0.582256 0.138199
H13   H     H_    0.669547 0.836307 0.263509 0.162208
H14   H     H_    0.332114 0.325075 0.727884 0.144753
H15   H     H_    0.972622 0.678962 0.543723 0.117678
H16   H     H_    0.038069 0.164805 0.455886 0.116899
H17   H     H_    0.019808 0.758361 0.708438 0.105923
H18   H     H_    0.986253 0.260088 0.294953 0.108640
H19   H     H_    0.838483 0.992775 0.711508 0.134495
H20   H     H_    0.165590 0.484332 0.277646 0.188432
H21   H     H_    0.532176 0.921354 0.468165 0.173492
H22   H     H_    0.477053 0.431703 0.535407 0.168003
O11   O     O_R   0.036080 0.231270 0.130120 -0.542205
O12   O     O_R   0.963920 0.731270 0.869880 -0.538989
O13   O     O_R   0.911300 0.558970 0.006750 -0.543312
O14   O     O_R   0.088700 0.058970 0.993250 -0.554889
C57   C     C_R   0.885414 0.389297 0.005158 0.716679
C58   C     C_R   0.115057 0.889416 0.997881 0.730949
O15   O     O_R   0.032450 0.561140 0.138040 -0.536077
O16   O     O_R   0.967550 0.061140 0.861960 -0.542795
O17   O     O_R   0.085870 0.728910 0.002130 -0.532420
O18   O     O_R   0.914130 0.228910 0.997870 -0.503121
C59   C     C_R   0.045520 0.391707 0.174749 0.683324
C60   C     C_R   0.956065 0.891748 0.824693 0.685069
O19   O     O_3   0.017320 0.394650 0.955270 -0.389116
O20   O     O_3   0.982680 0.894650 0.044730 -0.361852
V3    V     V_3+5 0.996780 0.670490 0.008300 1.453007
V4    V     V_3+5 0.003220 0.170490 0.991700 1.429636
O21   O     O_3   0.621697 0.959337 0.615514 -0.536950
C61   C     C_3   0.594107 0.808938 0.651430 -0.155035
H23   H     H_    0.576273 0.692994 0.600414 0.124342
H24   H     H_    0.551710 0.863473 0.670305 0.178628
H25   H     H_    0.629315 0.754326 0.715877 0.190370
O22   O     O_3   0.388672 0.481021 0.384914 -0.527457
C62   C     C_3   0.418518 0.334551 0.349860 -0.138856
H26   H     H_    0.435885 0.216691 0.400219 0.119515
H27   H     H_    0.461577 0.392946 0.334094 0.173266
H28   H     H_    0.385050 0.281519 0.283799 0.188577
O23   O     O_3   0.756984 0.646553 0.314254 -0.566559
C63   C     C_3   0.739829 0.456409 0.321846 -0.261771
H29   H     H_    0.701529 0.443739 0.356820 0.148780
H30   H     H_    0.782899 0.370131 0.358980 0.141765
H31   H     H_    0.719889 0.397516 0.251033 0.160142
O24   O     O_3   0.257168 0.090429 0.667225 -0.576573
C64   C     C_3   0.277643 0.912339 0.645031 -0.260913
H32   H     H_    0.316259 0.926224 0.610735 0.156272
H33   H     H_    0.236208 0.829341 0.600626 0.144240
H34   H     H_    0.298417 0.831833 0.710302 0.160614
O25   O     O_3   0.744183 0.814238 0.696319 -0.571873
C65   C     C_3   0.751848 0.617138 0.710417 -0.309276
H35   H     H_    0.794690 0.564269 0.691928 0.157034
H36   H     H_    0.707676 0.538141 0.670971 0.166188
H37   H     H_    0.760236 0.586831 0.785129 0.163046
O26   O     O_3   0.265991 0.347793 0.296898 -0.542977
C66   C     C_3   0.260837 0.151945 0.277216 -0.254917
H38   H     H_    0.302884 0.069739 0.321317 0.159365
H39   H     H_    0.259837 0.130064 0.204255 0.165905
H40   H     H_    0.215060 0.094012 0.284922 0.155042
O27   O     O_3   0.207471 0.643958 0.123447 -0.543906
C67   C     C_3   0.194463 0.457634 0.090904 -0.113488
H41   H     H_    0.156479 0.454542 0.022798 0.115625
H42   H     H_    0.174368 0.377259 0.138512 0.153638
H43   H     H_    0.239288 0.384956 0.087524 0.119509
O28   O     O_3   0.808660 0.056908 0.953365 -0.568776
C68   C     C_3   0.792147 0.060029 0.856673 -0.212020
H44   H     H_    0.816537 0.936099 0.838308 0.188624
H45   H     H_    0.810536 0.189299 0.830970 0.111923
H46   H     H_    0.738915 0.045287 0.823986 0.197341
I1    I     I_    0.432484 0.866278 0.277195 -0.481345
I2    I     I_    0.572761 0.355457 0.729623 -0.502756

loop_
_geom_bond_atom_site_label_1
_geom_bond_atom_site_label_2
_ccdc_geom_bond_type
C68   H46   S    
C44   C46   A    
C2    C23   S    
C13   C15   A    
C5    C15   A    
C20   H10   S    
C40   O24   S    
O2    C4    A    
C65   H35   S    
C2    O7    A    
O20   V4    S    
C64   H32   S    
C25   C27   A    
C41   H11   S    
O5    C3    A    
C19   H7    S    
C52   C54   A    
C14   C57   S    
C20   H8    S    
C18   H4    S    
C7    C9    A    
C64   H33   S    
C38   C50   A    
C36   C38   A    
C68   H44   S    
C58   O17   A    
C61   H23   S    
C38   C40   A    
C46   O22   S    
C47   C49   A    
C63   H29   S    
O20   V3    S    
C40   C42   A    
O13   V3    S    
C36   C44   A    
O26   C66   S    
C43   C45   A    
C33   C41   A    
C48   C52   A    
C66   H40   S    
C50   C56   A    
O21   C61   S    
C17   C19   S    
C47   C51   A    
C6    C16   A    
C18   H6    S    
C6    C8    A    
C26   C34   A    
O12   C60   A    
C62   H28   S    
O15   V3    S    
C22   C30   A    
O5    V1    S    
O13   C57   A    
C42   H12   S    
O11   V4    S    
C13   C58   S    
C5    C19   S    
O11   C59   A    
C24   C54   A    
O22   C62   S    
C30   C32   A    
C44   O26   S    
C31   C33   A    
O17   V3    S    
C32   C34   A    
C3    C8    S    
C37   C39   A    
C39   O23   S    
C27   H17   S    
C30   H20   S    
O4    C2    A    
C29   H19   S    
C24   C56   A    
C31   C35   A    
C57   O18   A    
C21   C27   A    
C64   H34   S    
C53   I1    S    
O16   C60   A    
C26   H16   S    
C29   C31   A    
C63   H31   S    
C18   C20   S    
O4    V2    S    
C11   O27   S    
C56   H14   S    
C55   H13   S    
O6    C4    A    
C39   C41   A    
O19   V3    S    
O1    V2    S    
O14   C58   A    
O2    V1    S    
C6    C20   S    
C1    C24   S    
C67   H42   S    
C45   O21   S    
C46   C48   A    
C8    C10   A    
C25   H15   S    
C9    H1    S    
C66   H38   S    
C17   H3    S    
C51   C53   A    
O25   C65   S    
C65   H37   S    
C43   O25   S    
C49   C55   A    
O3    V1    S    
C25   C33   A    
C62   H26   S    
C32   C36   A    
C22   C28   A    
C68   H45   S    
C9    C11   A    
O14   V4    S    
O10   V1    S    
C12   C14   A    
C35   C43   A    
O3    C1    A    
C67   H43   S    
C65   H36   S    
C48   C50   A    
C22   C59   S    
C11   C13   A    
O27   C67   S    
O18   V4    S    
O16   V4    S    
C61   H25   S    
C23   C53   A    
C19   H9    S    
C52   H22   S    
C14   C16   A    
O7    V1    S    
C21   C60   S    
C51   H21   S    
C1    O8    A    
C15   C17   S    
O8    V2    S    
O23   C63   S    
C16   C18   S    
C21   C29   A    
C34   C42   A    
C4    C7    S    
C26   C28   A    
C5    C7    A    
C61   H24   S    
O19   V4    S    
C10   H2    S    
C63   H30   S    
C35   C37   A    
C67   H41   S    
C28   H18   S    
C17   H5    S    
O12   V3    S    
C54   I2    S    
O6    V2    S    
C10   C12   A    
O9    V2    S    
C66   H39   S    
O28   C68   S    
C23   C55   A    
O1    C3    A    
C45   C47   A    
O24   C64   S    
C12   O28   S    
O15   C59   A    
C37   C49   A    
C62   H27   S    
