data_mof_unit_48789.cif
_audit_creation_date              2012-12-10T19:30:42-0500
_audit_creation_method            fapswitch 2.2
_symmetry_space_group_name_H-M    P1
_symmetry_Int_Tables_number       1
_space_group_crystal_system       triclinic
_cell_length_a                    14.946286
_cell_length_b                    15.74505
_cell_length_c                    16.746739
_cell_angle_alpha                 90.071392
_cell_angle_beta                  84.879414
_cell_angle_gamma                 90.572874
_cell_volume                      3925.08564936

loop_
_atom_site_label
_atom_site_type_symbol
_atom_type_description
_atom_site_fract_x
_atom_site_fract_y
_atom_site_fract_z
_atom_type_partial_charge
C1    C     C_R   0.500494 0.662368 0.499722 0.901644
C2    C     C_3   0.577329 0.029455 0.516509 0.434371
C3    C     C_3   0.500328 0.916507 0.499643 -0.085283
C4    C     C_3   0.496073 0.082973 0.498359 -0.055304
C5    C     C_1   0.502043 0.825983 0.498958 0.057368
C6    C     C_1   0.496756 0.173651 0.498977 0.094264
C7    C     C_3   0.036616 0.558034 0.446484 -0.244248
C8    C     C_3   0.963430 0.444237 0.554061 -0.229055
C9    C     C_3   0.976587 0.480574 0.426741 -0.230722
C10   C     C_3   0.023459 0.521694 0.573796 -0.228464
C11   C     C_3   0.969690 0.577925 0.519816 0.074909
C12   C     C_R   0.499516 0.337545 0.500004 0.898663
C13   C     C_3   0.030264 0.424337 0.480727 0.066934
C14   C     C_3   0.910359 0.501454 0.500329 0.086726
C15   C     C_3   0.089650 0.500724 0.500191 0.082369
C16   C     C_R   0.487359 0.498253 0.653625 0.880595
C17   C     C_R   0.512630 0.503968 0.346514 0.878756
C18   C     C_1   0.810168 0.500604 0.500116 0.145853
C19   C     C_1   0.189830 0.500444 0.500133 0.134666
C20   C     C_R   0.478729 0.491995 0.740426 -0.133774
C21   C     C_R   0.521253 0.527000 0.262160 -0.075885
C22   C     C_R   0.549960 0.459834 0.779278 -0.162918
C23   C     C_3   0.479452 0.027061 0.424946 -0.405952
C24   C     C_R   0.451136 0.570554 0.230967 -0.301492
C25   C     C_R   0.544957 0.456701 0.862581 0.020211
C26   C     C_R   0.458289 0.596225 0.151343 0.044258
C27   C     C_R   0.467831 0.489259 0.906849 -0.011611
C28   C     C_R   0.535811 0.573834 0.101439 0.064998
C29   C     C_R   0.392865 0.515988 0.868017 0.029843
C30   C     C_R   0.610478 0.537538 0.134323 -0.034098
C31   C     C_R   0.399331 0.516753 0.784338 -0.177554
C32   C     C_R   0.602118 0.514387 0.215197 -0.161648
C33   C     C_2   0.470795 0.506181 0.991955 -0.279674
C34   C     C_3   0.516249 0.972329 0.573752 -0.538241
C35   C     C_2   0.528442 0.564500 0.015732 -0.140044
C36   C     C_2   0.060576 0.336459 0.458409 0.384116
C37   C     C_2   0.938985 0.665705 0.542165 0.376093
C38   C     C_2   0.309386 0.546409 0.913818 0.455907
C39   C     C_2   0.695356 0.519666 0.084114 0.398169
C40   C     C_2   0.382220 0.643626 0.122011 0.382633
C41   C     C_2   0.620333 0.419503 0.902749 0.380010
C42   C     C_3   0.670530 0.005622 0.340611 0.099447
C43   C     C_3   0.644268 0.996675 0.254785 -0.344174
C44   C     C_3   0.689488 0.065008 0.200180 -0.927158
C45   C     C_3   0.561256 0.973846 0.444012 0.427690
C46   C     C_3   0.367438 0.031925 0.684011 0.068200
C47   C     C_3   0.286736 0.065858 0.736359 -0.313113
C48   C     C_3   0.287677 0.036501 0.823081 -0.931978
C49   C     C_3   0.722219 0.004237 0.550101 0.115704
C50   C     C_3   0.740436 0.011038 0.638294 -0.357485
C51   C     C_3   0.808921 0.945542 0.659835 -0.912587
C52   C     C_3   0.290754 0.890732 0.525158 0.126182
C53   C     C_3   0.243625 0.813606 0.491590 -0.334737
C54   C     C_3   0.196023 0.759406 0.558263 -0.963688
C55   C     C_3   0.434387 0.026478 0.554202 0.422165
C56   C     C_1   0.501707 0.750936 0.499140 -0.174039
C57   C     C_1   0.498169 0.248798 0.499522 -0.160539
C58   C     C_3   0.418728 0.969663 0.482234 0.483680
H1    H     H_    0.609497 0.437055 0.744379 0.199352
H2    H     H_    0.532179 0.947405 0.632745 0.173714
H3    H     H_    0.957908 0.463067 0.366131 0.155637
H4    H     H_    0.042225 0.539277 0.634360 0.160896
H5    H     H_    0.011307 0.288273 0.446080 0.060545
H6    H     H_    0.987942 0.714108 0.554611 0.061112
H7    H     H_    0.302245 0.544631 0.978780 0.086293
H8    H     H_    0.704626 0.540725 0.022302 0.071756
H9    H     H_    0.318686 0.646935 0.158700 0.060457
H10   H     H_    0.613540 0.407956 0.966837 0.082256
H11   H     H_    0.744353 0.997725 0.340191 0.162690
H12   H     H_    0.390787 0.585407 0.269055 0.156768
H13   H     H_    0.655655 0.071261 0.363072 0.144546
H14   H     H_    0.664425 0.933063 0.231031 0.243214
H15   H     H_    0.570252 0.001951 0.254486 0.226137
H16   H     H_    0.668597 0.129152 0.221842 0.266777
H17   H     H_    0.669430 0.056493 0.138388 0.273820
H18   H     H_    0.763725 0.060158 0.198551 0.268687
H19   H     H_    0.430115 0.055802 0.708098 0.158790
H20   H     H_    0.365158 0.961187 0.686228 0.129204
H21   H     H_    0.287850 0.136447 0.734623 0.239229
H22   H     H_    0.223746 0.043027 0.712443 0.226812
H23   H     H_    0.066209 0.605493 0.402523 0.147162
H24   H     H_    0.284934 0.966045 0.826371 0.271645
H25   H     H_    0.228295 0.062202 0.859470 0.272763
H26   H     H_    0.349447 0.059840 0.848647 0.266788
H27   H     H_    0.785895 0.016704 0.512285 0.157268
H28   H     H_    0.701280 0.937823 0.536655 0.166172
H29   H     H_    0.766402 0.075761 0.650386 0.240299
H30   H     H_    0.676830 0.000817 0.676838 0.222947
H31   H     H_    0.783419 0.880219 0.649820 0.283095
H32   H     H_    0.820910 0.952331 0.724025 0.269186
H33   H     H_    0.873654 0.955363 0.622837 0.264225
H34   H     H_    0.933932 0.396840 0.598124 0.156750
H35   H     H_    0.239758 0.932761 0.556723 0.174917
H36   H     H_    0.335705 0.867725 0.570028 0.114802
H37   H     H_    0.193656 0.835328 0.450901 0.230413
H38   H     H_    0.294106 0.773947 0.456359 0.236563
H39   H     H_    0.245203 0.735309 0.598554 0.277194
H40   H     H_    0.162772 0.704157 0.531584 0.254385
H41   H     H_    0.144203 0.797222 0.593751 0.263716
H42   H     H_    0.657640 0.484384 0.241222 0.194067
H43   H     H_    0.343710 0.539496 0.753220 0.196445
H44   H     H_    0.574710 0.598209 0.972815 0.157092
H45   H     H_    0.425340 0.471587 0.034933 0.157513
H46   H     H_    0.463505 0.050992 0.365610 0.182834
N1    N     N_1   0.731990 0.500000 0.499970 -0.082260
N2    N     N_1   0.268010 0.500000 0.500030 -0.082118
O1    O     O_R   0.425540 0.623220 0.500000 -0.626340
O2    O     O_2   0.859390 0.683297 0.546522 -0.558044
O3    O     O_2   0.246937 0.573630 0.879398 -0.566796
O4    O     O_2   0.756560 0.481565 0.111396 -0.551058
O5    O     O_2   0.390133 0.681574 0.058191 -0.550830
O6    O     O_2   0.690775 0.400478 0.864624 -0.556814
O7    O     O_3   0.628561 0.940288 0.388758 -0.632715
O8    O     O_3   0.363216 0.060874 0.604934 -0.623417
O9    O     O_3   0.660030 0.067086 0.532193 -0.645982
O10   O     O_3   0.336144 0.936322 0.460713 -0.620439
O11   O     O_R   0.574460 0.376780 0.500000 -0.615144
O12   O     O_R   0.574480 0.623220 0.499990 -0.582363
O13   O     O_R   0.425520 0.376780 0.500010 -0.582745
O14   O     O_R   0.416730 0.500010 0.615810 -0.616349
O15   O     O_R   0.583270 0.499990 0.384190 -0.619323
O16   O     O_R   0.565670 0.500010 0.615790 -0.608764
O17   O     O_R   0.434330 0.499990 0.384210 -0.609843
O18   O     O_2   0.140089 0.318550 0.453980 -0.545600
Zn1   Zn    Zn3+2 0.400550 0.500000 0.500010 0.999076
Zn2   Zn    Zn3+2 0.599450 0.500000 0.499990 1.009979

loop_
_geom_bond_atom_site_label_1
_geom_bond_atom_site_label_2
_ccdc_geom_bond_type
C43   H15   S    
C23   C58   S    
C58   O10   S    
C43   H14   S    
C23   C45   S    
C27   C29   A    
C14   C18   S    
C5    C56   T    
C47   H21   S    
C43   C44   S    
C35   H44   S    
C24   H12   S    
C53   C54   S    
C27   C33   S    
C7    C11   S    
N2    Zn1   S    
C8    C13   S    
N1    Zn2   S    
C9    H3    S    
C31   H43   S    
C36   O18   D    
C1    C56   S    
C24   C26   A    
C10   C15   S    
C16   O14   A    
C51   H32   S    
C11   C14   S    
O17   Zn1   S    
C53   H37   S    
C44   H18   S    
C11   C37   S    
C9    C13   S    
C16   O16   A    
C51   H33   S    
C15   C19   S    
C17   O17   A    
C39   O4    D    
C47   C48   S    
C28   C35   S    
C22   C25   A    
C29   C38   S    
C30   C39   S    
C54   H39   S    
C52   H36   S    
C8    H34   S    
C41   H10   S    
C36   H5    S    
O11   Zn2   S    
C50   H30   S    
C2    C34   S    
C7    C15   S    
C34   C55   S    
C53   H38   S    
C34   H2    S    
C6    C57   T    
C10   H4    S    
C47   H22   S    
C40   O5    D    
C52   O10   S    
C2    C45   S    
C21   C32   A    
C46   O8    S    
C49   H27   S    
O1    Zn1   S    
C37   O2    D    
C4    C6    S    
C25   C41   S    
C22   H1    S    
C46   H20   S    
C4    C23   S    
O14   Zn1   S    
C3    C34   S    
C3    C45   S    
C42   H11   S    
C17   C21   S    
C48   H26   S    
O16   Zn2   S    
C44   H17   S    
C2    C4    S    
C9    C14   S    
C3    C58   S    
C45   O7    S    
C12   O13   A    
C2    O9    S    
C42   O7    S    
C23   H46   S    
C38   H7    S    
C16   C20   S    
C50   C51   S    
C52   H35   S    
C38   O3    D    
C44   H16   S    
C50   H29   S    
C1    O1    A    
C12   C57   S    
O13   Zn1   S    
C17   O15   A    
C7    H23   S    
C20   C22   A    
C13   C15   S    
C4    C55   S    
C39   H8    S    
C54   H41   S    
C21   C24   A    
C42   C43   S    
C37   H6    S    
C52   C53   S    
C40   H9    S    
C7    C9    S    
C46   C47   S    
C8    C14   S    
C49   O9    S    
C33   H45   S    
C49   H28   S    
C3    C5    S    
C13   C36   S    
C46   H19   S    
C55   O8    S    
C25   C27   A    
C26   C28   A    
C48   H25   S    
C28   C30   A    
C18   N1    T    
O15   Zn2   S    
C29   C31   A    
C51   H31   S    
C30   C32   A    
C26   C40   S    
C42   H13   S    
C33   C35   D    
C48   H24   S    
C41   O6    D    
C1    O12   A    
C10   C11   S    
C12   O11   A    
C19   N2    T    
C32   H42   S    
C8    C10   S    
C49   C50   S    
C55   C58   S    
C54   H40   S    
O12   Zn2   S    
C20   C31   A    
