data_mof_unit_64094.cif
_audit_creation_date              2012-12-10T21:05:08-0500
_audit_creation_method            fapswitch 2.2
_symmetry_space_group_name_H-M    P1
_symmetry_Int_Tables_number       1
_space_group_crystal_system       triclinic
_cell_length_a                    22.409646
_cell_length_b                    22.42141
_cell_length_c                    15.088819
_cell_angle_alpha                 89.999948
_cell_angle_beta                  89.997689
_cell_angle_gamma                 90.0
_cell_volume                      7581.46553475

loop_
_atom_site_label
_atom_site_type_symbol
_atom_type_description
_atom_site_fract_x
_atom_site_fract_y
_atom_site_fract_z
_atom_type_partial_charge
C1    C     C_R   0.080573 0.419453 0.499999 0.904617
C2    C     C_R   0.999523 0.554273 0.047540 0.272710
C3    C     C_R   0.000488 0.554273 0.952460 0.272713
C4    C     C_R   0.999512 0.445727 0.047540 0.272711
C5    C     C_R   0.500468 0.945727 0.952460 0.272711
C6    C     C_R   0.499532 0.054273 0.047540 0.272710
C7    C     C_R   0.500497 0.054273 0.952460 0.272711
C8    C     C_R   0.499503 0.945727 0.047540 0.272712
C9    C     C_R   0.999329 0.500000 0.905182 -0.111763
C10   C     C_R   0.000671 0.500000 0.094818 -0.111763
C11   C     C_R   0.499329 0.000000 0.905182 -0.111763
C12   C     C_R   0.919427 0.580547 0.500001 0.904615
C13   C     C_R   0.500671 1.000000 0.094818 -0.111762
C14   C     C_R   0.228064 0.728188 0.580675 -0.175220
C15   C     C_R   0.771726 0.272021 0.419325 -0.175224
C16   C     C_R   0.772013 0.271728 0.580677 -0.174535
C17   C     C_R   0.228196 0.728063 0.419323 -0.174537
C18   C     C_R   0.771874 0.728126 0.419324 -0.175220
C19   C     C_R   0.228295 0.272043 0.580674 -0.175224
C20   C     C_R   0.227965 0.271705 0.419324 -0.174536
C21   C     C_R   0.771866 0.728125 0.580677 -0.174539
C22   C     C_R   0.728273 0.227979 0.580675 -0.175223
C23   C     C_R   0.919427 0.419453 0.500001 0.904615
C24   C     C_R   0.271936 0.771812 0.419324 -0.175220
C25   C     C_R   0.271804 0.771937 0.580677 -0.174537
C26   C     C_R   0.727987 0.228272 0.419323 -0.174535
C27   C     C_R   0.271704 0.227957 0.419326 -0.175224
C28   C     C_R   0.728126 0.771873 0.580675 -0.175221
C29   C     C_R   0.728134 0.771875 0.419323 -0.174539
C30   C     C_R   0.272035 0.228294 0.580676 -0.174536
C31   C     C_R   0.206578 0.706568 0.499998 0.164497
C32   C     C_R   0.793422 0.293432 0.500002 0.164498
C33   C     C_R   0.793422 0.706568 0.500001 0.164498
C34   C     C_R   0.080573 0.580547 0.499999 0.904616
C35   C     C_R   0.206578 0.293431 0.499998 0.164497
C36   C     C_R   0.706578 0.206568 0.499998 0.164497
C37   C     C_R   0.293422 0.793431 0.500002 0.164497
C38   C     C_R   0.293422 0.206568 0.500001 0.164497
C39   C     C_R   0.706578 0.793432 0.499998 0.164498
C40   C     C_1   0.999759 0.500000 0.807080 0.314595
C41   C     C_1   0.000241 0.500000 0.192920 0.314594
C42   C     C_1   0.499759 0.000000 0.807080 0.314594
C43   C     C_1   0.500241 1.000000 0.192920 0.314594
C44   C     C_1   0.162190 0.662171 0.499997 -0.062686
C45   C     C_R   0.580573 0.919453 0.499999 0.904616
C46   C     C_1   0.837810 0.337829 0.500003 -0.062686
C47   C     C_1   0.837810 0.662171 0.500003 -0.062687
C48   C     C_1   0.162190 0.337829 0.499997 -0.062687
C49   C     C_1   0.662190 0.162171 0.499997 -0.062685
C50   C     C_1   0.337810 0.837829 0.500003 -0.062685
C51   C     C_1   0.337810 0.162171 0.500003 -0.062688
C52   C     C_1   0.662190 0.837829 0.499997 -0.062688
C53   C     C_1   0.875227 0.375251 0.500003 -0.161637
C54   C     C_1   0.124773 0.624749 0.499997 -0.161637
C55   C     C_1   0.124773 0.375251 0.499997 -0.161638
C56   C     C_R   0.419427 0.080547 0.500001 0.904616
C57   C     C_1   0.875227 0.624749 0.500003 -0.161639
C58   C     C_1   0.375227 0.875251 0.500003 -0.161636
C59   C     C_1   0.624773 0.124749 0.499997 -0.161636
C60   C     C_1   0.624773 0.875251 0.499997 -0.161640
C61   C     C_1   0.375227 0.124749 0.500003 -0.161640
C62   C     C_R   0.419427 0.919453 0.500001 0.904616
C63   C     C_R   0.580573 0.080547 0.499999 0.904616
C64   C     C_R   0.000477 0.445727 0.952460 0.272713
H1    H     H_    0.789077 0.288571 0.643054 0.150955
H2    H     H_    0.710923 0.211428 0.356946 0.150956
H3    H     H_    0.711430 0.210909 0.643051 0.150305
H4    H     H_    0.288941 0.788720 0.356949 0.150314
H5    H     H_    0.711184 0.788833 0.356945 0.150945
H6    H     H_    0.289117 0.211468 0.643052 0.150955
H7    H     H_    0.288530 0.210870 0.356950 0.150303
H8    H     H_    0.711169 0.788830 0.643052 0.150310
H9    H     H_    0.974982 0.363102 0.060214 0.350101
H10   H     H_    0.025017 0.636898 0.939786 0.350101
H11   H     H_    0.975009 0.636902 0.060214 0.350102
H12   H     H_    0.211294 0.711058 0.356946 0.150944
H13   H     H_    0.024989 0.363097 0.939787 0.350103
H14   H     H_    0.474960 0.863106 0.060214 0.350100
H15   H     H_    0.525039 0.136894 0.939785 0.350104
H16   H     H_    0.475032 0.136906 0.060214 0.350104
H17   H     H_    0.524968 0.863093 0.939787 0.350102
H18   H     H_    0.211059 0.711280 0.643051 0.150314
H19   H     H_    0.788569 0.289091 0.356949 0.150304
H20   H     H_    0.210883 0.288532 0.356948 0.150956
H21   H     H_    0.788816 0.711167 0.643054 0.150946
H22   H     H_    0.788830 0.711170 0.356948 0.150310
H23   H     H_    0.211470 0.289130 0.643049 0.150303
H24   H     H_    0.288706 0.788942 0.643054 0.150945
N1    N     N_1   0.000000 0.500000 0.270550 -0.099365
N2    N     N_1   0.000000 0.500000 0.729450 -0.099365
N3    N     N_1   0.500000 0.000000 0.270550 -0.099365
N4    N     N_1   0.500000 0.000000 0.729450 -0.099365
O1    O     O_R   0.061000 0.439020 0.573650 -0.608235
O2    O     O_R   0.439000 0.060980 0.426350 -0.608236
O3    O     O_R   0.439000 0.060980 0.573650 -0.607680
O4    O     O_R   0.561000 0.939020 0.426350 -0.607679
O5    O     O_R   0.439000 0.939020 0.426350 -0.608234
O6    O     O_R   0.561000 0.060980 0.573650 -0.608234
O7    O     O_R   0.561000 0.060980 0.426350 -0.607676
O8    O     O_R   0.439000 0.939020 0.573650 -0.607675
O9    O     O_3   0.995915 0.393602 0.096044 -0.759871
O10   O     O_3   0.004086 0.606398 0.903956 -0.759871
O11   O     O_3   0.995935 0.606399 0.096044 -0.759868
O12   O     O_R   0.939000 0.560980 0.426350 -0.608235
O13   O     O_3   0.004064 0.393601 0.903956 -0.759870
O14   O     O_3   0.495897 0.893603 0.096044 -0.759871
O15   O     O_3   0.504102 0.106397 0.903956 -0.759871
O16   O     O_3   0.495953 0.106399 0.096044 -0.759870
O17   O     O_3   0.504047 0.893601 0.903956 -0.759867
O18   O     O_R   0.939000 0.560980 0.573650 -0.607678
O19   O     O_R   0.061000 0.439020 0.426350 -0.607679
O20   O     O_R   0.939000 0.439020 0.426350 -0.608234
O21   O     O_R   0.061000 0.560980 0.573650 -0.608235
O22   O     O_R   0.061000 0.560980 0.426350 -0.607676
O23   O     O_R   0.939000 0.439020 0.573650 -0.607677
O24   O     O_R   0.561000 0.939020 0.573650 -0.608236
Zn1   Zn    Zn3+2 0.000000 0.500000 0.598370 1.009894
Zn2   Zn    Zn3+2 0.000000 0.500000 0.401630 1.009894
Zn3   Zn    Zn3+2 0.500000 0.000000 0.598370 1.009894
Zn4   Zn    Zn3+2 0.500000 0.000000 0.401630 1.009894

loop_
_geom_bond_atom_site_label_1
_geom_bond_atom_site_label_2
_ccdc_geom_bond_type
C58   C62   S    
C48   C55   T    
C41   N1    T    
C45   C60   S    
C8    C13   A    
C56   O3    A    
C9    C64   A    
O21   Zn1   S    
C51   C61   T    
C14   C31   A    
C12   O18   A    
O6    Zn3   S    
C34   O21   A    
C7    C11   A    
C23   O20   A    
C18   H22   S    
O19   Zn2   S    
N4    Zn3   S    
C12   O12   A    
C63   O6    A    
C19   H23   S    
C21   C33   A    
C27   C38   A    
C30   C38   A    
C11   C42   S    
C63   O7    A    
C52   C60   T    
C25   C37   A    
O7    Zn4   S    
C20   C35   A    
O2    Zn4   S    
O23   Zn1   S    
C17   H12   S    
C29   H5    S    
H10   O10   S    
H9    O9    S    
C39   C52   S    
C10   C41   S    
H11   O11   S    
C28   H8    S    
O1    Zn1   S    
C35   C48   S    
O18   Zn1   S    
C30   H6    S    
C23   C53   S    
O12   Zn2   S    
C21   H21   S    
C17   C24   A    
C31   C44   S    
C50   C58   T    
N2    Zn1   S    
C15   C32   A    
O8    Zn3   S    
C15   C26   A    
C15   H19   S    
C38   C51   S    
C28   C39   A    
O3    Zn3   S    
C9    C40   S    
C43   N3    T    
C26   H2    S    
C56   O2    A    
C3    C9    A    
C47   C57   T    
C62   O5    A    
C4    O9    S    
C29   C39   A    
C24   C37   A    
H15   O15   S    
C18   C29   A    
O22   Zn2   S    
C62   O8    A    
C12   C57   S    
C3    O10   S    
C26   C36   A    
C21   C28   A    
H17   O17   S    
C34   C54   S    
C20   H20   S    
C17   C31   A    
C7    O15   S    
C16   C32   A    
C14   H18   S    
C4    C10   A    
C2    C10   A    
C13   C43   S    
C27   H7    S    
H16   O16   S    
C16   C22   A    
C64   O13   S    
N3    Zn4   S    
C32   C46   S    
O4    Zn4   S    
C8    O14   S    
C5    C8    A    
C5    C11   A    
C6    C7    A    
C20   C27   A    
C34   O22   A    
C22   C36   A    
C4    C64   A    
C59   C63   S    
C49   C59   T    
O24   Zn3   S    
H14   O14   S    
O5    Zn4   S    
H13   O13   S    
C2    C3    A    
C1    C55   S    
C19   C35   A    
C1    O19   A    
C6    C13   A    
O20   Zn2   S    
C37   C50   S    
C45   O4    A    
C45   O24   A    
C5    O17   S    
C2    O11   S    
C33   C47   S    
C46   C53   T    
C42   N4    T    
C25   H24   S    
C14   C25   A    
C18   C33   A    
C22   H3    S    
C24   H4    S    
C23   O23   A    
C44   C54   T    
N1    Zn2   S    
C1    O1    A    
C6    O16   S    
C56   C61   S    
C16   H1    S    
C40   N2    T    
C19   C30   A    
C36   C49   S    
