data_mof_unit_47176.cif
_audit_creation_date              2012-12-10T17:58:19-0500
_audit_creation_method            fapswitch 2.2
_symmetry_space_group_name_H-M    P1
_symmetry_Int_Tables_number       1
_space_group_crystal_system       triclinic
_cell_length_a                    9.512337
_cell_length_b                    10.872367
_cell_length_c                    15.497924
_cell_angle_alpha                 89.58499
_cell_angle_beta                  74.507557
_cell_angle_gamma                 89.111197
_cell_volume                      1544.3891884

loop_
_atom_site_label
_atom_site_type_symbol
_atom_type_description
_atom_site_fract_x
_atom_site_fract_y
_atom_site_fract_z
_atom_type_partial_charge
C1    C     C_R   0.001333 0.262089 0.500044 0.825655
C2    C     C_R   0.998676 0.737909 0.499932 0.825695
C3    C     C_R   0.586316 0.481572 0.094869 -0.225205
C4    C     C_R   0.422743 0.575847 0.910672 -0.227126
C5    C     C_R   0.732372 0.466990 0.049667 -0.243825
C6    C     C_R   0.277093 0.592641 0.956213 -0.242921
C7    C     C_R   0.869764 0.067859 0.521214 -0.305588
C8    C     C_R   0.130254 0.932131 0.478701 -0.305157
C9    C     C_R   0.864478 0.940435 0.519910 0.263610
C10   C     C_R   0.135544 0.059556 0.480001 0.263365
C11   C     C_R   0.996423 0.871777 0.499221 -0.100048
C12   C     C_R   0.003595 0.128216 0.500715 -0.100438
C13   C     C_R   0.546977 0.439084 0.565109 -0.032093
C14   C     C_R   0.453028 0.560897 0.434877 -0.032499
C15   C     C_R   0.398111 0.439536 0.565265 -0.020459
C16   C     C_R   0.601892 0.560454 0.434726 -0.020112
C17   C     C_R   0.918287 0.499566 0.672161 0.793964
C18   C     C_R   0.081689 0.501782 0.327907 0.794167
C19   C     C_R   0.873513 0.497331 0.770376 -0.046705
C20   C     C_R   0.126893 0.514746 0.230221 -0.044639
C21   C     C_R   0.926104 0.461189 0.912606 -0.215390
C22   C     C_R   0.080426 0.583053 0.091663 -0.219876
C23   C     C_R   0.973745 0.470849 0.819803 -0.199800
C24   C     C_R   0.029870 0.558078 0.182852 -0.203393
C25   C     C_R   0.726486 0.517843 0.814699 -0.255119
C26   C     C_R   0.273506 0.494000 0.185414 -0.254272
C27   C     C_R   0.676031 0.511963 0.908516 0.091132
C28   C     C_R   0.328691 0.523224 0.094268 0.091305
C29   C     C_R   0.778353 0.480334 0.957156 0.167697
C30   C     C_R   0.228544 0.565981 0.047106 0.167562
C31   C     C_R   0.526557 0.532677 0.954892 0.066739
C32   C     C_R   0.479882 0.511305 0.048962 0.068300
Cu1   Cu    Cu3+1 0.140660 0.500020 0.500000 0.949377
Cu2   Cu    Cu3+1 0.859340 0.499980 0.500000 0.949127
H1    H     H_    0.809750 0.443511 0.087567 0.151129
H2    H     H_    0.201689 0.626674 0.919748 0.150038
H3    H     H_    0.342087 0.454525 0.223723 0.149005
H4    H     H_    0.652744 0.534676 0.773953 0.149740
H5    H     H_    0.916105 0.575559 0.216591 0.145449
H6    H     H_    0.087942 0.454258 0.786690 0.148552
H7    H     H_    0.004559 0.436826 0.949495 0.145094
H8    H     H_    0.004169 0.618080 0.056227 0.142734
H9    H     H_    0.561587 0.471617 0.166478 0.140236
H10   H     H_    0.450636 0.601361 0.840997 0.143521
H11   H     H_    0.767732 0.119544 0.538084 0.165950
H12   H     H_    0.232285 0.880443 0.461819 0.166046
H13   H     H_    0.580956 0.389599 0.617059 0.118552
H14   H     H_    0.419060 0.610351 0.382907 0.119199
H15   H     H_    0.320095 0.391066 0.617524 0.110638
H16   H     H_    0.679908 0.608914 0.382460 0.109635
N1    N     N_R   0.352080 0.500030 0.499980 -0.149249
N2    N     N_R   0.647920 0.499970 0.500020 -0.149124
O1    O     O_R   0.118740 0.319660 0.500000 -0.543515
O2    O     O_R   0.881260 0.680340 0.500000 -0.543762
O3    O     O_R   0.881170 0.319630 0.500010 -0.593801
O4    O     O_R   0.118830 0.680370 0.499990 -0.594063
O5    O     O_R   0.055570 0.500030 0.629830 -0.591956
O6    O     O_R   0.944430 0.499970 0.370170 -0.591581
O7    O     O_R   0.818000 0.500000 0.629840 -0.590236
O8    O     O_R   0.182000 0.500000 0.370160 -0.589105
N3    N     N_2   0.726011 0.882922 0.541284 -0.400673
H17   H     H_    0.654547 0.918152 0.598247 0.240513
C33   C     C_3   0.660260 0.878899 0.467268 -0.675237
H18   H     H_    0.635150 0.973516 0.447556 0.212396
H19   H     H_    0.557037 0.826840 0.487589 0.219257
H20   H     H_    0.734836 0.832210 0.408793 0.232462
N4    N     N_2   0.274017 0.117064 0.458574 -0.400493
H21   H     H_    0.345411 0.081863 0.401568 0.240977
C34   C     C_3   0.339919 0.121007 0.532528 -0.675481
H22   H     H_    0.365071 0.026373 0.552180 0.212090
H23   H     H_    0.265421 0.167654 0.591057 0.232489
H24   H     H_    0.443139 0.173065 0.512162 0.219546

loop_
_geom_bond_atom_site_label_1
_geom_bond_atom_site_label_2
_ccdc_geom_bond_type
C34   H24   S    
C19   C23   A    
C33   H19   S    
C26   H3    S    
C15   N1    A    
C25   H4    S    
Cu1   N1    S    
C13   N2    A    
C4    H10   S    
Cu1   O5    S    
Cu2   N2    S    
C31   C32   A    
C13   C15   A    
C3    C5    A    
C26   C28   A    
N3    H17   S    
Cu1   O4    S    
C28   C30   A    
Cu1   Cu2   S    
C1    O3    A    
C33   H20   S    
Cu2   O3    S    
C2    O4    A    
C10   N4    S    
C20   C24   A    
Cu2   O6    S    
C9    C11   A    
C3    H9    S    
C22   H8    S    
C1    C12   S    
C20   C26   A    
C17   O7    A    
C8    C11   A    
C9    N3    S    
C2    C11   S    
C7    H11   S    
C22   C24   A    
C8    C10   A    
C13   H13   S    
C17   C19   S    
C6    H2    S    
Cu2   O2    S    
Cu1   O8    S    
C18   C20   S    
C34   H22   S    
C15   H15   S    
C21   C23   A    
Cu1   O1    S    
C3    C32   A    
C10   C12   A    
C14   C16   A    
C7    C12   A    
C2    O2    A    
C4    C31   A    
C27   C29   A    
C19   C25   A    
C27   C31   A    
N4    H21   S    
C5    C29   A    
C5    H1    S    
C28   C32   A    
C24   H5    S    
C14   N1    A    
C34   H23   S    
C4    C6    A    
C21   H7    S    
C18   O8    A    
C16   N2    A    
C7    C9    A    
C1    O1    A    
C14   H14   S    
C22   C30   A    
C8    H12   S    
C6    C30   A    
C17   O5    A    
Cu2   O7    S    
C21   C29   A    
C18   O6    A    
N3    C33   S    
C23   H6    S    
C16   H16   S    
C33   H18   S    
N4    C34   S    
C25   C27   A    
