data_mof_unit_52247.cif
_audit_creation_date              2012-12-10T17:44:38-0500
_audit_creation_method            fapswitch 2.2
_symmetry_space_group_name_H-M    P1
_symmetry_Int_Tables_number       1
_space_group_crystal_system       triclinic
_cell_length_a                    10.018939
_cell_length_b                    10.59991
_cell_length_c                    15.501877
_cell_angle_alpha                 95.60177
_cell_angle_beta                  67.418968
_cell_angle_gamma                 91.01274
_cell_volume                      1512.47675661

loop_
_atom_site_label
_atom_site_type_symbol
_atom_type_description
_atom_site_fract_x
_atom_site_fract_y
_atom_site_fract_z
_atom_type_partial_charge
C1    C     C_R   0.509275 0.736478 0.485769 0.937518
C2    C     C_R   0.711925 0.378707 0.035650 -0.020811
C3    C     C_R   0.593584 0.465645 0.081950 0.101313
C4    C     C_R   0.408674 0.490986 0.675234 0.921542
C5    C     C_R   0.817562 0.368033 0.076703 -0.035081
C6    C     C_R   0.793783 0.434686 0.165776 0.027105
C7    C     C_R   0.560677 0.506054 0.176181 -0.161977
C8    C     C_R   0.330402 0.863233 0.395078 -0.154785
C9    C     C_R   0.263076 0.928232 0.348081 -0.146045
C10   C     C_R   0.313759 0.046038 0.318253 -0.194302
C11   C     C_R   0.418713 0.105495 0.346073 0.008333
C12   C     C_R   0.412610 0.458452 0.912453 0.068632
C13   C     C_R   0.450569 0.055643 0.417418 0.096756
C14   C     C_R   0.432098 0.925513 0.426883 0.060749
C15   C     C_R   0.529518 0.864344 0.457429 -0.137153
C16   C     C_R   0.504941 0.258999 0.491837 0.915949
C17   C     C_R   0.650794 0.932034 0.461010 -0.000601
C18   C     C_R   0.634882 0.061391 0.481344 -0.254943
C19   C     C_R   0.524404 0.123484 0.467271 -0.083284
C20   C     C_R   0.771426 0.626361 0.655069 -0.032880
C21   C     C_R   0.784838 0.640271 0.742090 -0.062499
C22   C     C_R   0.922109 0.647071 0.741761 -0.212178
C23   C     C_R   0.281020 0.521652 0.968088 0.161746
C24   C     C_R   0.042847 0.626205 0.658205 -0.059540
C25   C     C_R   0.028216 0.562425 0.576274 0.082897
C26   C     C_R   0.884032 0.562141 0.575835 0.049934
C27   C     C_R   0.968212 0.442249 0.428591 -0.112122
C28   C     C_R   0.592597 0.500568 0.323648 0.902465
C29   C     C_R   0.110016 0.443700 0.427369 0.027969
C30   C     C_R   0.351805 0.474111 0.776410 -0.155763
C31   C     C_R   0.654289 0.486265 0.219899 -0.174322
C32   C     C_R   0.173060 0.529199 0.932434 -0.173314
C33   C     C_R   0.204820 0.491493 0.837166 -0.016392
C34   C     C_R   0.509017 0.425646 0.954101 -0.059895
C35   C     C_R   0.451809 0.447043 0.815300 -0.255230
C36   C     C_2   0.951431 0.289629 0.028013 0.497022
C37   C     C_2   0.798627 0.876902 0.431816 0.421442
C38   C     C_2   0.525524 0.184600 0.279200 0.413362
C39   C     C_2   0.690482 0.731762 0.641440 0.523207
C40   C     C_1   0.667551 0.689513 0.827373 0.302092
C41   C     C_1   0.158004 0.706978 0.661165 0.284476
C42   C     C_1   0.217454 0.389242 0.341591 0.226401
C43   C     C_2   0.913212 0.461045 0.199912 0.402239
C44   C     C_1   0.803236 0.186622 0.919817 0.258888
C45   C     C_R   0.497249 0.495686 0.039334 0.092510
C46   C     C_2   0.085536 0.456560 0.806324 0.342374
C47   C     C_2   0.395851 0.709284 0.136760 0.377432
C48   C     C_2   0.596113 0.227841 0.841628 0.379959
C49   C     C_R   0.384729 0.591247 0.080182 -0.019426
C50   C     C_R   0.266417 0.586538 0.053499 -0.233691
C51   C     C_R   0.610576 0.322799 0.915301 -0.044688
C52   C     C_R   0.713030 0.300833 0.954917 -0.002366
H1    H     H_    0.173391 0.649309 0.090601 0.138734
H2    H     H_    0.563365 0.425226 0.769864 0.188693
H3    H     H_    0.021231 0.302751 0.956464 0.064311
H4    H     H_    0.876327 0.924741 0.456141 0.043044
H5    H     H_    0.510846 0.207406 0.216774 0.090572
H6    H     H_    0.747252 0.793810 0.588780 0.027420
H7    H     H_    0.907593 0.546285 0.246065 0.109580
H8    H     H_    0.106831 0.409816 0.736935 0.125223
H9    H     H_    0.298820 0.763893 0.179946 0.063383
H10   H     H_    0.489445 0.202110 0.844093 0.091168
H11   H     H_    0.306849 0.764123 0.399165 0.173649
H12   H     H_    0.183951 0.881114 0.325231 0.151324
H13   H     H_    0.281355 0.084241 0.266792 0.164242
H14   H     H_    0.714975 0.113649 0.500606 0.177136
H15   H     H_    0.946922 0.395119 0.370133 0.178156
H16   H     H_    0.455423 0.546694 0.219131 0.166130
H17   H     H_    0.934714 0.688254 0.805244 0.194546
H18   H     H_    0.065046 0.562079 0.978761 0.169985
N1    N     N_R   0.856800 0.501200 0.500850 -0.118586
N2    N     N_R   0.142390 0.501280 0.500880 -0.138883
N3    N     N_1   0.574422 0.730483 0.895290 -0.143426
N4    N     N_1   0.243210 0.776109 0.670762 -0.159993
N5    N     N_1   0.297858 0.346014 0.269478 -0.244712
N6    N     N_1   0.874322 0.095157 0.891524 -0.154777
O1    O     O_R   0.385310 0.683220 0.500000 -0.644722
O2    O     O_2   0.838238 0.782673 0.375686 -0.585548
O3    O     O_2   0.638629 0.214438 0.287337 -0.568231
O4    O     O_2   0.563952 0.755247 0.692020 -0.573419
O5    O     O_2   0.019429 0.391523 0.176745 -0.542239
O6    O     O_2   0.959886 0.472556 0.860658 -0.609132
O7    O     O_2   0.513163 0.750806 0.130981 -0.540871
O8    O     O_2   0.702133 0.181524 0.776223 -0.557956
O9    O     O_R   0.614640 0.683250 0.500010 -0.586825
O10   O     O_R   0.319840 0.499980 0.632240 -0.643066
O11   O     O_R   0.549160 0.500000 0.632250 -0.590807
O12   O     O_R   0.385360 0.316750 0.499990 -0.623017
O13   O     O_R   0.614690 0.316780 0.500000 -0.605350
O14   O     O_R   0.450840 0.500000 0.367750 -0.633219
O15   O     O_R   0.680160 0.500020 0.367760 -0.605340
O16   O     O_2   0.979628 0.203809 0.065816 -0.484784
Zn1   Zn    Zn3+2 0.346880 0.499980 0.499990 0.949864
Zn2   Zn    Zn3+2 0.653120 0.500020 0.500010 1.006717

loop_
_geom_bond_atom_site_label_1
_geom_bond_atom_site_label_2
_ccdc_geom_bond_type
C5    C36   S    
C33   C46   S    
C29   C42   S    
C27   C29   A    
C9    H12   S    
C1    O1    A    
C47   C49   S    
C4    O11   A    
C12   C23   A    
C42   N5    T    
C30   C35   A    
C3    C7    A    
C5    C6    A    
C4    O10   A    
C38   O3    D    
O11   Zn2   S    
C40   N3    T    
C18   C19   A    
O13   Zn2   S    
C44   N6    T    
C7    H16   S    
C46   O6    D    
C37   H4    S    
C48   C51   S    
C8    C9    A    
C1    C15   S    
C47   O7    D    
C9    C10   A    
C22   H17   S    
C43   H7    S    
C29   N2    A    
C36   O16   D    
C6    C31   A    
C41   N4    T    
C16   O13   A    
C21   C22   A    
C35   H2    S    
C26   N1    A    
C24   C41   S    
C1    O9    A    
C50   H1    S    
C7    C31   A    
C13   C19   A    
C51   C52   A    
C24   C25   A    
C25   N2    A    
C20   C39   S    
C23   C50   A    
C32   H18   S    
C25   C26   A    
C39   H6    S    
C3    C45   A    
C48   O8    D    
C32   C33   A    
C11   C38   S    
O10   Zn1   S    
C38   H5    S    
O9    Zn2   S    
C48   H10   S    
C45   C49   A    
C17   C18   A    
C34   C51   A    
C34   C45   A    
C17   C37   S    
C12   C35   A    
C2    C52   A    
N2    Zn1   S    
C6    C43   S    
C43   O5    D    
C22   C24   A    
C2    C5    A    
C12   C34   A    
C27   N1    A    
O14   Zn1   S    
C10   H13   S    
C15   C17   A    
O12   Zn1   S    
C8    C14   A    
C30   C33   A    
C46   H8    S    
C28   C31   S    
C47   H9    S    
C28   O14   A    
C18   H14   S    
C37   O2    D    
C39   O4    D    
C2    C3    A    
C36   H3    S    
C23   C32   A    
O15   Zn2   S    
C11   C13   A    
C44   C52   S    
C21   C40   S    
C20   C26   A    
C16   C19   S    
O1    Zn1   S    
C28   O15   A    
C27   H15   S    
C10   C11   A    
C8    H11   S    
C20   C21   A    
C49   C50   A    
C16   O12   A    
C14   C15   A    
N1    Zn2   S    
C13   C14   A    
C4    C30   S    
