data_mof_unit_47867.cif
_audit_creation_date              2013-03-05T16:06:22-0500
_audit_creation_method            fapswitch 2.2
_symmetry_space_group_name_H-M    P1
_symmetry_Int_Tables_number       1
_space_group_crystal_system       triclinic
_cell_length_a                    10.782665
_cell_length_b                    9.61579
_cell_length_c                    27.796154
_cell_angle_alpha                 89.214017
_cell_angle_beta                  92.001754
_cell_angle_gamma                 89.12514
_cell_volume                      2879.62468803

loop_
_atom_site_label
_atom_site_type_symbol
_atom_site_description
_atom_site_fract_x
_atom_site_fract_y
_atom_site_fract_z
_atom_type_partial_charge
O1    O     O_R   0.319640 0.618740 0.500000 -0.599544
O2    O     O_R   0.680360 0.381260 0.500000 -0.596924
O3    O     O_R   0.680360 0.618740 0.500000 -0.544480
O4    O     O_R   0.319640 0.381260 0.500000 -0.546697
C1    C     C_R   0.262692 0.500814 0.499708 0.900490
C2    C     C_R   0.737310 0.499199 0.500316 0.902261
O5    O     O_R   0.500020 0.618770 0.430260 -0.554418
O6    O     O_R   0.499980 0.381230 0.569740 -0.594616
O7    O     O_R   0.499980 0.618770 0.569740 -0.569527
O8    O     O_R   0.500020 0.381230 0.430260 -0.575051
C3    C     C_R   0.499787 0.501020 0.407415 0.841630
C4    C     C_R   0.498624 0.498770 0.592605 0.815583
Cu1   Cu    Cu3+1 0.500000 0.640660 0.500000 0.977051
Cu2   Cu    Cu3+1 0.500000 0.359340 0.500000 0.968025
C5    C     C_R   0.375738 0.511110 0.176446 0.563088
C6    C     C_R   0.582255 0.420886 0.822865 0.567016
O9    O     O_2   0.271314 0.525135 0.201412 -0.493196
O10   O     O_2   0.687310 0.405994 0.798332 -0.489362
N1    N     N_R   0.486640 0.495653 0.201195 -0.482781
N2    N     N_R   0.472918 0.446041 0.797797 -0.483185
C7    C     C_R   0.595813 0.483987 0.178226 0.551236
C8    C     C_R   0.363138 0.458394 0.820400 0.550113
C9    C     C_R   0.476361 0.372863 0.279460 0.194155
C10   C     C_R   0.440587 0.350932 0.716273 0.193094
C11   C     C_R   0.480537 0.376525 0.329652 -0.232576
C12   C     C_R   0.447600 0.367169 0.666518 -0.201099
C13   C     C_R   0.511283 0.626754 0.326916 0.125525
C14   C     C_R   0.524270 0.602005 0.676556 0.116259
C15   C     C_R   0.506661 0.622389 0.276570 -0.183540
C16   C     C_R   0.515276 0.585808 0.726310 -0.093944
C17   C     C_R   0.489191 0.496758 0.252812 0.290038
C18   C     C_R   0.474242 0.461389 0.746377 0.248735
C19   C     C_R   0.481798 0.489839 0.101022 -0.147413
C20   C     C_R   0.473854 0.434428 0.897900 -0.147730
C21   C     C_R   0.370702 0.511595 0.125509 -0.043210
C22   C     C_R   0.585284 0.412268 0.873708 -0.043352
C23   C     C_R   0.259754 0.540019 0.098570 0.136110
C24   C     C_R   0.694463 0.376544 0.900805 0.137427
C25   C     C_R   0.596383 0.482755 0.127521 -0.002472
C26   C     C_R   0.360466 0.448379 0.870992 0.001451
C27   C     C_R   0.497580 0.502516 0.354082 -0.088891
C28   C     C_R   0.489802 0.491628 0.645762 -0.140500
H1    H     H_    0.517283 0.717230 0.255720 0.148244
H2    H     H_    0.543149 0.669621 0.749800 0.161350
C29   C     C_R   0.362758 0.464641 0.972844 0.067089
C30   C     C_R   0.591165 0.453316 0.026050 0.067781
C31   C     C_R   0.588907 0.426424 0.975765 0.032578
C32   C     C_R   0.364592 0.489842 0.023368 0.031870
C33   C     C_R   0.475448 0.442798 0.948967 0.004064
C34   C     C_R   0.478802 0.476272 0.050055 0.003896
C35   C     C_R   0.251083 0.449735 0.945648 -0.218923
C36   C     C_R   0.703488 0.470301 0.052522 -0.219638
C37   C     C_R   0.248499 0.447341 0.895505 0.162466
C38   C     C_R   0.707522 0.479998 0.102453 0.163034
O11   O     O_2   0.257857 0.483362 0.793822 -0.497183
O12   O     O_2   0.702788 0.471923 0.204723 -0.492635
C39   C     C_R   0.258639 0.538447 0.047808 0.084887
C40   C     C_R   0.694187 0.375317 0.951553 0.082795
H3    H     H_    0.420527 0.280753 0.644056 0.188377
H4    H     H_    0.469929 0.279928 0.349487 0.182117
H5    H     H_    0.163817 0.434265 0.962556 0.165055
H6    H     H_    0.790359 0.482571 0.034986 0.163682
C41   C     C_R   0.070030 0.444101 0.539725 0.066168
C42   C     C_R   0.929982 0.556134 0.460347 0.064279
C43   C     C_R   0.939934 0.442697 0.539831 0.049441
C44   C     C_R   0.060074 0.557532 0.460239 0.049970
C45   C     C_R   0.871323 0.498112 0.500028 -0.067909
C46   C     C_R   0.128685 0.501980 0.500019 -0.065472
C47   C     C_R   0.414121 0.078517 0.472928 0.259751
C48   C     C_R   0.587868 0.921974 0.526057 0.258529
C49   C     C_R   0.588693 0.069741 0.525987 0.150873
C50   C     C_R   0.411948 0.930609 0.473591 0.159720
N3    N     N_R   0.500000 0.852070 0.500000 -0.193200
N4    N     N_R   0.500000 0.147930 0.500000 -0.196326
N5    N     N_3   0.531254 0.757320 0.349943 -0.559058
H7    H     H_    0.615156 0.797030 0.338460 0.227129
H8    H     H_    0.460068 0.826258 0.338353 0.221801
N6    N     N_3   0.575527 0.728242 0.659020 -0.581755
H9    H     H_    0.509070 0.780018 0.636840 0.248878
H10   H     H_    0.653243 0.702079 0.639441 0.237031
N7    N     N_3   0.325763 0.156294 0.443368 -0.514113
H11   H     H_    0.236623 0.131708 0.454076 0.215442
H12   H     H_    0.334484 0.125566 0.407694 0.210114
N8    N     N_3   0.681848 0.845366 0.553130 -0.526064
H13   H     H_    0.767331 0.866618 0.538209 0.216423
H14   H     H_    0.684937 0.882942 0.588210 0.213946
N9    N     N_3   0.688828 0.132989 0.552207 -0.616595
H15   H     H_    0.657451 0.213733 0.573259 0.283017
H16   H     H_    0.755184 0.165016 0.528174 0.249046
N10   N     N_3   0.311844 0.867796 0.447237 -0.619680
H17   H     H_    0.343253 0.786949 0.426252 0.288284
H18   H     H_    0.245642 0.835337 0.471264 0.246908
N11   N     N_3   0.148207 0.575004 0.122663 -0.506263
H19   H     H_    0.117408 0.674581 0.111946 0.214414
H20   H     H_    0.081056 0.502592 0.113002 0.211373
N12   N     N_3   0.805349 0.337753 0.876895 -0.507707
H21   H     H_    0.831770 0.236179 0.886935 0.213880
H22   H     H_    0.875286 0.405818 0.887505 0.210961
N13   N     N_3   0.402232 0.220231 0.735566 -0.581520
H23   H     H_    0.322307 0.236898 0.755011 0.252424
H24   H     H_    0.472329 0.182186 0.759377 0.232795
N14   N     N_3   0.459449 0.242325 0.256139 -0.592454
H25   H     H_    0.534956 0.224650 0.234314 0.234022
H26   H     H_    0.379252 0.249774 0.233959 0.239598
N15   N     N_3   0.131277 0.437464 0.870025 -0.505745
H27   H     H_    0.089340 0.345875 0.881303 0.203927
H28   H     H_    0.075575 0.521851 0.879671 0.225260
N16   N     N_3   0.825701 0.491841 0.127062 -0.504033
H29   H     H_    0.879588 0.404541 0.118907 0.220477
H30   H     H_    0.868668 0.580412 0.113709 0.204436
N17   N     N_3   0.155103 0.601866 0.021446 -0.616787
H31   H     H_    0.148208 0.706577 0.030756 0.227144
H32   H     H_    0.073507 0.551772 0.030406 0.199023
N18   N     N_3   0.795036 0.307148 0.978107 -0.614759
H33   H     H_    0.878410 0.354478 0.969780 0.199453
H34   H     H_    0.799198 0.202764 0.968198 0.227097
N19   N     N_3   0.143773 0.389394 0.579869 -0.595633
H35   H     H_    0.120910 0.443371 0.610791 0.230155
H36   H     H_    0.123048 0.284450 0.584767 0.228575
N20   N     N_3   0.856244 0.611042 0.420235 -0.587214
H37   H     H_    0.879161 0.557268 0.389278 0.228356
H38   H     H_    0.876938 0.716027 0.415419 0.227805
N21   N     N_3   0.876445 0.389826 0.580609 -0.613165
H39   H     H_    0.904910 0.286738 0.587141 0.230625
H40   H     H_    0.901395 0.448594 0.610677 0.232953
N22   N     N_3   0.123562 0.610582 0.419486 -0.613224
H41   H     H_    0.095097 0.713694 0.413005 0.227780
H42   H     H_    0.098608 0.551953 0.389386 0.233707

loop_
_geom_bond_atom_site_label_1
_geom_bond_atom_site_label_2
_geom_bond_distance
_ccdc_geom_bond_type
C44   C46   1.403511 A    
N9    H15   1.038252 S    
C41   C43   1.403158 A    
N11   H19   1.044709 S    
C13   C15   1.399803 A    
C10   N13   1.432135 S    
N17   H31   1.045224 S    
C35   H5    1.077802 S    
O3    C2    1.294706 A    
N1    C17   1.434234 S    
N18   H33   1.045483 S    
C32   C39   1.425398 A    
C31   C33   1.415472 A    
C5    N1    1.363683 A    
N15   H28   1.045663 S    
N22   H41   1.044832 S    
O1    C1    1.297745 A    
Cu2   N4    2.032875 S    
C21   C23   1.410096 A    
C10   C12   1.394475 A    
N19   H36   1.045007 S    
C41   N19   1.436412 S    
N6    H10   1.044441 S    
N21   H40   1.045043 S    
C25   C38   1.407189 A    
C29   C35   1.409477 A    
C30   C36   1.407858 A    
N16   H29   1.045567 S    
C14   C28   1.418456 A    
O7    Cu1   1.947033 S    
C4    C28   1.484661 S    
C24   C40   1.410591 A    
C36   C38   1.391512 A    
C43   C45   1.403522 A    
N12   H22   1.043476 S    
O6    Cu2   1.952774 S    
C48   C49   1.421030 A    
C11   H4    1.083256 S    
C14   N6    1.428147 S    
C12   H3    1.083703 S    
O3    Cu1   1.952948 S    
C6    N2    1.364990 A    
C32   C34   1.418617 A    
N11   H20   1.043149 S    
Cu1   Cu2   2.705114 S    
C15   H1    1.083534 S    
C16   H2    1.083646 S    
O2    C2    1.297863 A    
C1    C46   1.445157 S    
C13   N5    1.432818 S    
C5    C21   1.414938 A    
N7    H12   1.045537 S    
N20   H38   1.045024 S    
N7    H11   1.045622 S    
C42   C45   1.403754 A    
N21   H39   1.044834 S    
N8    H13   1.045719 S    
O8    Cu2   1.947033 S    
C11   C27   1.408295 A    
N6    H9    1.044660 S    
C50   N3    1.387391 A    
C19   C34   1.423759 A    
C44   N22   1.435639 S    
C35   C37   1.393612 A    
C9    C17   1.405378 A    
C47   C50   1.422688 A    
O5    C3    1.305737 A    
N5    H7    1.045720 S    
C10   C18   1.405332 A    
C49   N4    1.384390 A    
C50   N10   1.429436 S    
C13   C27   1.416907 A    
N10   H18   1.042778 S    
N13   H23   1.044618 S    
C7    C25   1.409846 A    
C29   C33   1.418961 A    
O6    C4    1.304386 A    
C8    C26   1.409573 A    
N12   H21   1.044738 S    
C48   N3    1.363427 A    
C23   N11   1.434722 S    
C47   N4    1.361324 A    
N17   H32   1.045514 S    
C19   C25   1.416401 A    
N14   H26   1.045296 S    
N5    H8    1.045809 S    
C49   N9    1.429720 S    
C2    C45   1.445199 S    
N13   H24   1.045547 S    
Cu1   N3    2.032874 S    
N9    H16   1.042845 S    
C20   C26   1.414410 A    
O1    Cu1   1.959347 S    
C48   N8    1.429892 S    
N20   H37   1.044999 S    
C12   C28   1.410032 A    
N2    C18   1.435449 S    
C29   C32   1.427900 A    
C5    O9    1.349112 S    
C30   C34   1.419218 A    
C30   C31   1.424377 A    
C20   C33   1.422359 A    
N22   H42   1.045028 S    
N1    C7    1.362490 A    
N2    C8    1.363722 A    
O4    C1    1.294816 A    
C7    O12   1.349316 S    
N18   H34   1.045202 S    
C8    O11   1.349201 S    
N15   H27   1.045411 S    
C41   C46   1.403750 A    
C42   N20   1.436390 S    
C38   N16   1.431902 S    
C22   C24   1.410602 A    
C15   C17   1.396825 A    
C36   H6    1.078241 S    
N19   H35   1.045012 S    
C6    C22   1.413732 A    
C31   C40   1.424265 A    
C16   C18   1.397630 A    
N10   H17   1.038028 S    
C39   N17   1.436995 S    
C14   C16   1.396485 A    
C19   C21   1.412533 A    
N16   H30   1.045541 S    
C3    C27   1.481678 S    
C20   C22   1.412014 A    
C43   N21   1.435596 S    
O4    Cu2   1.952948 S    
N14   H25   1.045423 S    
O2    Cu2   1.959347 S    
O7    C4    1.310215 A    
C47   N7    1.431381 S    
O8    C3    1.307583 A    
C9    N14   1.431818 S    
C37   N15   1.432213 S    
O5    Cu1   1.952774 S    
C9    C11   1.395246 A    
C6    O10   1.349218 S    
C26   C37   1.406966 A    
C24   N12   1.434960 S    
C40   N18   1.437309 S    
N8    H14   1.044116 S    
C23   C39   1.410921 A    
C42   C44   1.403123 A    
