data_mof_unit_66102.cif
_audit_creation_date              2012-12-10T17:09:25-0500
_audit_creation_method            fapswitch 2.2
_symmetry_space_group_name_H-M    P1
_symmetry_Int_Tables_number       1
_space_group_crystal_system       monoclinic
_cell_length_a                    44.214903
_cell_length_b                    30.162568
_cell_length_c                    30.274461
_cell_angle_alpha                 90.0
_cell_angle_beta                  133.522008
_cell_angle_gamma                 90.0
_cell_volume                      29276.3716942

loop_
_atom_site_label
_atom_site_type_symbol
_atom_type_description
_atom_site_fract_x
_atom_site_fract_y
_atom_site_fract_z
_atom_type_partial_charge
C1    C     C_R   0.500048 0.500008 0.914500 0.807497
C2    C     C_R   0.499952 0.500008 0.085500 0.807476
C3    C     C_R   0.000048 0.000008 0.914501 0.807497
C4    C     C_R   0.999952 0.000008 0.085499 0.807494
C5    C     C_3   0.225519 0.516576 0.769530 -0.428584
C6    C     C_3   0.774481 0.516765 0.230543 -0.428595
C7    C     C_3   0.725517 0.016923 0.769394 -0.428604
C8    C     C_3   0.274482 0.016934 0.230608 -0.428606
C9    C     C_3   0.273998 0.518378 0.817891 -0.178019
C10   C     C_3   0.726002 0.518567 0.182189 -0.177997
C11   C     C_3   0.773996 0.018725 0.817743 -0.177982
C12   C     C_3   0.226002 0.018735 0.182261 -0.177980
C13   C     C_1   0.162249 0.499055 0.662333 -0.061056
C14   C     C_1   0.837751 0.499052 0.337663 -0.061051
C15   C     C_1   0.662249 0.999050 0.662339 -0.061046
C16   C     C_1   0.337751 0.999050 0.337659 -0.061046
C17   C     C_1   0.337764 0.499187 0.837896 -0.060118
C18   C     C_1   0.662236 0.499186 0.162101 -0.060117
C19   C     C_1   0.837764 0.999186 0.837904 -0.060113
C20   C     C_1   0.162236 0.999185 0.162097 -0.060113
C21   C     C_1   0.375365 0.499844 0.875429 -0.116494
C22   C     C_1   0.624634 0.499844 0.124570 -0.116493
C23   C     C_1   0.875366 0.999843 0.875432 -0.116482
C24   C     C_1   0.124635 0.999843 0.124568 -0.116483
C25   C     C_R   0.528778 0.468586 0.685778 0.087466
C26   C     C_R   0.471226 0.468582 0.314226 0.087456
C27   C     C_R   0.028780 0.968588 0.685781 0.087470
C28   C     C_R   0.971220 0.968587 0.314220 0.087469
C29   C     C_R   0.500472 0.496102 0.634346 -0.105768
C30   C     C_R   0.499528 0.496103 0.365654 -0.105760
C31   C     C_R   0.000472 0.996101 0.634346 -0.105773
C32   C     C_R   0.999528 0.996102 0.365654 -0.105770
C33   C     C_R   0.471930 0.522355 0.628675 -0.274737
C34   C     C_R   0.528065 0.522361 0.371321 -0.274744
C35   C     C_R   0.971929 0.022352 0.628674 -0.274745
C36   C     C_R   0.028071 0.022353 0.371325 -0.274747
C37   C     C_R   0.471682 0.522807 0.674369 0.111458
C38   C     C_R   0.528313 0.522814 0.325627 0.111460
C39   C     C_R   0.971681 0.022805 0.674367 0.111463
C40   C     C_R   0.028319 0.022806 0.325632 0.111462
C41   C     C_R   0.500823 0.497044 0.727306 0.049024
C42   C     C_R   0.499177 0.497044 0.272694 0.049021
C43   C     C_R   0.000823 0.997044 0.727307 0.049024
C44   C     C_R   0.999177 0.997044 0.272693 0.049024
C45   C     C_R   0.420098 0.499988 0.920094 0.825792
C46   C     C_R   0.579902 0.499988 0.079906 0.825797
C47   C     C_R   0.920098 0.999988 0.920094 0.825805
C48   C     C_R   0.079902 0.999988 0.079906 0.825805
C49   C     C_R   0.529678 0.469976 0.733295 0.064926
C50   C     C_R   0.470326 0.469971 0.266710 0.064929
C51   C     C_R   0.029680 0.969978 0.733298 0.064919
C52   C     C_R   0.970320 0.969978 0.266703 0.064921
C53   C     C_R   0.442781 0.549046 0.667833 -0.192338
C54   C     C_R   0.557210 0.549058 0.332159 -0.192348
C55   C     C_R   0.942778 0.049041 0.667829 -0.192355
C56   C     C_R   0.057221 0.049043 0.332170 -0.192356
C57   C     C_R   0.442335 0.549833 0.713262 -0.189475
C58   C     C_R   0.557656 0.549845 0.286729 -0.189500
C59   C     C_R   0.942331 0.049829 0.713259 -0.189509
C60   C     C_R   0.057668 0.049830 0.286740 -0.189510
C61   C     C_R   0.471151 0.524580 0.766828 0.063019
C62   C     C_R   0.528844 0.524586 0.233168 0.063012
C63   C     C_R   0.971150 0.024578 0.766827 0.063019
C64   C     C_R   0.028850 0.024578 0.233173 0.063018
C65   C     C_R   0.500827 0.498175 0.774017 0.050790
C66   C     C_R   0.499173 0.498176 0.225984 0.050788
C67   C     C_R   0.000827 0.998176 0.774018 0.050787
C68   C     C_R   0.999172 0.998176 0.225982 0.050787
C69   C     C_R   0.530444 0.472877 0.827570 0.063707
C70   C     C_R   0.469560 0.472872 0.172435 0.063701
C71   C     C_R   0.030447 0.972881 0.827573 0.063705
C72   C     C_R   0.969553 0.972880 0.172428 0.063705
C73   C     C_R   0.559203 0.446626 0.833080 -0.193251
C74   C     C_R   0.440806 0.446614 0.166929 -0.193281
C75   C     C_R   0.059208 0.946632 0.833086 -0.193229
C76   C     C_R   0.940793 0.946631 0.166915 -0.193232
C77   C     C_R   0.558665 0.445041 0.786708 -0.167363
C78   C     C_R   0.441344 0.445030 0.213301 -0.167373
C79   C     C_R   0.058670 0.945046 0.786713 -0.167357
C80   C     C_R   0.941331 0.945045 0.213288 -0.167360
C81   C     C_R   0.470781 0.524908 0.813000 -0.086009
C82   C     C_R   0.529214 0.524914 0.186996 -0.086013
C83   C     C_R   0.970780 0.024906 0.812999 -0.086009
C84   C     C_R   0.029219 0.024907 0.187001 -0.086010
C85   C     C_R   0.500566 0.499895 0.866549 -0.147263
C86   C     C_R   0.499434 0.499895 0.133451 -0.147273
C87   C     C_R   0.000567 0.999896 0.866550 -0.147261
C88   C     C_R   0.999433 0.999896 0.133450 -0.147262
C89   C     C_3   0.274679 0.527589 0.736778 -0.443831
C90   C     C_3   0.725321 0.527420 0.263342 -0.443848
C91   C     C_3   0.774679 0.027280 0.736560 -0.443860
C92   C     C_3   0.225322 0.027269 0.263448 -0.443859
C93   C     C_R   0.530695 0.474381 0.874314 -0.090296
C94   C     C_R   0.469309 0.474374 0.125691 -0.090307
C95   C     C_R   0.030699 0.974385 0.874318 -0.090291
C96   C     C_R   0.969302 0.974384 0.125683 -0.090292
C97   C     C_R   0.000000 0.585490 0.500000 0.803675
C98   C     C_R   0.500000 0.085490 0.500000 0.803661
C99   C     C_R   0.079868 0.499857 0.579945 0.818328
C100  C     C_R   0.920132 0.499857 0.420054 0.818335
C101  C     C_R   0.579868 0.999857 0.579946 0.818338
C102  C     C_R   0.420132 0.999857 0.420054 0.818340
C103  C     C_R   1.000000 0.414258 0.500000 0.802510
C104  C     C_R   0.500000 0.914258 0.500000 0.802540
C105  C     C_R   0.500000 0.414150 0.500000 0.833735
C106  C     C_R   0.000000 0.914150 0.500000 0.833725
C107  C     C_R   0.500107 0.498207 0.585782 0.838733
C108  C     C_R   0.499893 0.498207 0.414218 0.838735
C109  C     C_R   0.000107 0.998207 0.585782 0.838730
C110  C     C_R   0.999893 0.998207 0.414218 0.838730
C111  C     C_R   0.500000 0.585786 0.500000 0.804195
C112  C     C_R   1.000000 0.085786 0.500000 0.804200
C113  C     C_R   0.472670 0.342776 0.500363 -0.210826
C114  C     C_R   0.527330 0.342776 0.499637 -0.210823
C115  C     C_R   0.972669 0.842776 0.500361 -0.210828
C116  C     C_R   0.027331 0.842776 0.499640 -0.210824
C117  C     C_R   0.500000 0.365836 0.500000 -0.043516
C118  C     C_R   0.000000 0.865836 0.500000 -0.043520
C119  C     C_R   0.527035 0.296450 0.498591 0.107517
C120  C     C_R   0.472965 0.296450 0.501409 0.107517
C121  C     C_R   0.027036 0.796450 0.498593 0.107519
C122  C     C_R   0.972964 0.796450 0.501407 0.107521
C123  C     C_3   0.274427 0.448937 0.767116 -0.063502
C124  C     C_3   0.725571 0.448902 0.232661 -0.063518
C125  C     C_3   0.774430 0.948875 0.767525 -0.063528
C126  C     C_3   0.225570 0.948872 0.232462 -0.063530
C127  C     C_R   0.500000 0.273167 0.500000 0.062042
C128  C     C_R   0.000000 0.773167 0.500000 0.062046
C129  C     C_R   0.553177 0.273011 0.496010 -0.190215
C130  C     C_R   0.446823 0.273011 0.503989 -0.190214
C131  C     C_R   0.053180 0.773011 0.496015 -0.190208
C132  C     C_R   0.946821 0.773011 0.503986 -0.190213
C133  C     C_R   0.052499 0.726722 0.494633 -0.192795
C134  C     C_R   0.947502 0.726722 0.505368 -0.192811
C135  C     C_R   0.552496 0.226722 0.494628 -0.192831
C136  C     C_R   0.447504 0.226722 0.505372 -0.192832
C137  C     C_R   0.026105 0.703279 0.496707 0.106500
C138  C     C_R   0.973895 0.703279 0.503294 0.106496
C139  C     C_R   0.526104 0.203279 0.496704 0.106486
C140  C     C_R   0.473896 0.203279 0.503296 0.106485
C141  C     C_R   0.000000 0.726562 0.500000 0.063480
C142  C     C_R   0.500000 0.226562 0.500000 0.063486
C143  C     C_R   0.025395 0.656950 0.495707 -0.227847
C144  C     C_R   0.974605 0.656950 0.504294 -0.227870
C145  C     C_R   0.525393 0.156950 0.495704 -0.227891
C146  C     C_R   0.474606 0.156950 0.504296 -0.227891
C147  C     C_R   0.000000 0.633857 0.500000 -0.058996
C148  C     C_R   0.500000 0.133858 0.500000 -0.059011
C149  C     C_R   0.528396 0.657160 0.555191 -0.236469
C150  C     C_R   0.471604 0.657160 0.444809 -0.236472
C151  C     C_R   0.028393 0.157160 0.555191 -0.236476
C152  C     C_R   0.971607 0.157160 0.444809 -0.236472
C153  C     C_R   0.500000 0.634100 0.500000 -0.060775
C154  C     C_R   1.000000 0.134100 0.500000 -0.060772
C155  C     C_R   0.471877 0.703471 0.444315 0.107566
C156  C     C_R   0.528122 0.703471 0.555685 0.107564
C157  C     C_R   0.971880 0.203471 0.444314 0.107564
C158  C     C_R   0.028119 0.203471 0.555686 0.107566
C159  C     C_3   0.224947 0.449539 0.719694 -0.243412
C160  C     C_3   0.775052 0.449513 0.280084 -0.243403
C161  C     C_3   0.724950 0.949494 0.720099 -0.243392
C162  C     C_3   0.275050 0.949492 0.279888 -0.243393
C163  C     C_R   0.500000 0.726745 0.500000 0.062448
C164  C     C_R   1.000000 0.226745 0.500000 0.062442
C165  C     C_R   0.444646 0.726899 0.389199 -0.199701
C166  C     C_R   0.555354 0.726899 0.610801 -0.199699
C167  C     C_R   0.944652 0.226899 0.389198 -0.199701
C168  C     C_R   0.055348 0.226899 0.610802 -0.199706
C169  C     C_R   0.945326 0.273178 0.389126 -0.198181
C170  C     C_R   0.054674 0.273178 0.610874 -0.198204
C171  C     C_R   0.445320 0.773178 0.389126 -0.198160
C172  C     C_R   0.554680 0.773178 0.610874 -0.198160
C173  C     C_R   0.972796 0.296606 0.444215 0.108288
C174  C     C_R   0.027203 0.296606 0.555785 0.108292
C175  C     C_R   0.472794 0.796606 0.444215 0.108295
C176  C     C_R   0.527206 0.796606 0.555784 0.108294
C177  C     C_R   1.000000 0.273331 0.500000 0.061603
C178  C     C_R   0.500000 0.773331 0.500000 0.061599
C179  C     C_R   0.973514 0.342917 0.444607 -0.230831
C180  C     C_R   0.026486 0.342917 0.555393 -0.230867
C181  C     C_R   0.473511 0.842917 0.444607 -0.230809
C182  C     C_R   0.526489 0.842917 0.555393 -0.230811
C183  C     C_R   1.000000 0.365963 0.500000 -0.053151
C184  C     C_R   0.500000 0.865963 0.500000 -0.053151
C185  C     C_1   0.124629 0.499529 0.624876 -0.145269
C186  C     C_1   0.875371 0.499527 0.375123 -0.145267
C187  C     C_1   0.624629 0.999527 0.624878 -0.145267
C188  C     C_1   0.375371 0.999527 0.375122 -0.145266
C189  C     C_3   0.291505 0.497664 0.791711 0.149936
C190  C     C_3   0.708495 0.497661 0.208279 0.149934
C191  C     C_3   0.791505 0.997661 0.791731 0.149927
C192  C     C_3   0.208495 0.997660 0.208270 0.149930
C193  C     C_3   0.226082 0.526803 0.686672 -0.147798
C194  C     C_3   0.773918 0.526627 0.313445 -0.147793
C195  C     C_3   0.726082 0.026481 0.686459 -0.147791
C196  C     C_3   0.273919 0.026471 0.313548 -0.147791
C197  C     C_3   0.208511 0.498218 0.707962 0.172535
C198  C     C_3   0.791489 0.498212 0.292030 0.172532
C199  C     C_3   0.708511 0.998208 0.707976 0.172528
C200  C     C_3   0.291489 0.998208 0.292023 0.172529
Cu1   Cu    Cu3+1 0.500000 0.544470 0.000000 1.006715
Cu2   Cu    Cu3+1 0.000000 0.044470 0.000000 1.006753
Cu3   Cu    Cu3+1 0.500000 0.455530 0.000000 1.023671
Cu4   Cu    Cu3+1 1.000000 0.955530 0.000000 1.023622
Cu5   Cu    Cu3+1 0.999980 0.499850 0.455510 0.979050
Cu6   Cu    Cu3+1 0.000020 0.499850 0.544490 0.979051
Cu7   Cu    Cu3+1 0.499980 0.999850 0.455510 0.979039
Cu8   Cu    Cu3+1 0.500020 0.999850 0.544490 0.979039
Cu9   Cu    Cu3+1 0.458680 0.499970 0.458630 0.999034
Cu10  Cu    Cu3+1 0.541320 0.499970 0.541370 0.999037
Cu11  Cu    Cu3+1 0.958680 0.999970 0.458630 0.999035
Cu12  Cu    Cu3+1 0.041320 0.999970 0.541370 0.999034
H1    H     H_    0.216065 0.511674 0.644813 0.146433
H2    H     H_    0.783935 0.511357 0.355237 0.146441
H3    H     H_    0.716066 0.011096 0.644723 0.146447
H4    H     H_    0.283935 0.011078 0.355281 0.146447
H5    H     H_    0.286700 0.561988 0.753332 0.185555
H6    H     H_    0.713302 0.561838 0.246939 0.185570
H7    H     H_    0.786697 0.061715 0.752840 0.185584
H8    H     H_    0.213303 0.061705 0.247177 0.185584
H9    H     H_    0.213822 0.495578 0.785414 0.177243
H10   H     H_    0.786178 0.495889 0.214568 0.177257
H11   H     H_    0.713820 0.996148 0.785444 0.177269
H12   H     H_    0.286178 0.996165 0.214552 0.177270
H13   H     H_    0.450071 0.542986 0.588615 0.159869
H14   H     H_    0.549921 0.542995 0.411378 0.159862
H15   H     H_    0.950068 0.042981 0.588612 0.159870
H16   H     H_    0.049931 0.042982 0.411387 0.159869
H17   H     H_    0.420313 0.568983 0.627309 0.149621
H18   H     H_    0.579674 0.568999 0.372679 0.149619
H19   H     H_    0.920308 0.068976 0.627304 0.149618
H20   H     H_    0.079691 0.068978 0.372695 0.149617
H21   H     H_    0.419280 0.570582 0.706029 0.160494
H22   H     H_    0.580707 0.570599 0.293958 0.160493
H23   H     H_    0.919275 0.070576 0.706025 0.160494
H24   H     H_    0.080724 0.070577 0.293974 0.160494
H25   H     H_    0.582358 0.426756 0.873256 0.167285
H26   H     H_    0.417655 0.426739 0.126757 0.167286
H27   H     H_    0.082364 0.926764 0.873263 0.167283
H28   H     H_    0.917637 0.926762 0.126738 0.167283
H29   H     H_    0.287043 0.516474 0.716718 0.183938
H30   H     H_    0.712957 0.516164 0.283353 0.183915
H31   H     H_    0.787045 0.015907 0.716591 0.183901
H32   H     H_    0.212957 0.015888 0.283415 0.183898
H33   H     H_    0.581695 0.424357 0.794004 0.186297
H34   H     H_    0.418318 0.424342 0.206009 0.186297
H35   H     H_    0.081701 0.924365 0.794011 0.186299
H36   H     H_    0.918300 0.924363 0.205990 0.186299
H37   H     H_    0.451870 0.360976 0.501117 0.148781
H38   H     H_    0.548130 0.360976 0.498883 0.148781
H39   H     H_    0.951868 0.860975 0.501114 0.148778
H40   H     H_    0.048132 0.860976 0.498887 0.148777
H41   H     H_    0.573974 0.290487 0.494724 0.153258
H42   H     H_    0.426026 0.290487 0.505275 0.153260
H43   H     H_    0.073977 0.790487 0.494731 0.153249
H44   H     H_    0.926023 0.790487 0.505270 0.153252
H45   H     H_    0.072773 0.709248 0.492285 0.154699
H46   H     H_    0.927227 0.709248 0.507715 0.154716
H47   H     H_    0.572770 0.209248 0.492278 0.154732
H48   H     H_    0.427230 0.209248 0.507721 0.154734
H49   H     H_    0.045182 0.638777 0.492875 0.151415
H50   H     H_    0.954818 0.638777 0.507125 0.151429
H51   H     H_    0.545180 0.138777 0.492870 0.151444
H52   H     H_    0.454820 0.138777 0.507129 0.151444
H53   H     H_    0.550033 0.638976 0.597699 0.149280
H54   H     H_    0.449967 0.638976 0.402300 0.149278
H55   H     H_    0.050028 0.138976 0.597700 0.149278
H56   H     H_    0.949972 0.138976 0.402300 0.149279
H57   H     H_    0.423007 0.709422 0.346157 0.151495
H58   H     H_    0.576993 0.709422 0.653843 0.151497
H59   H     H_    0.923015 0.209422 0.346156 0.151500
H60   H     H_    0.076984 0.209422 0.653844 0.151499
H61   H     H_    0.924209 0.290656 0.346029 0.150806
H62   H     H_    0.075790 0.290656 0.653971 0.150801
H63   H     H_    0.424201 0.790656 0.346029 0.150806
H64   H     H_    0.575799 0.790656 0.653971 0.150807
H65   H     H_    0.952911 0.361115 0.402000 0.146049
H66   H     H_    0.047088 0.361115 0.597999 0.146042
H67   H     H_    0.452906 0.861116 0.402001 0.146049
H68   H     H_    0.547094 0.861116 0.597999 0.146049
H69   H     H_    0.214466 0.431257 0.739180 0.138460
H70   H     H_    0.785532 0.431364 0.260517 0.138466
H71   H     H_    0.714470 0.931453 0.739731 0.138469
H72   H     H_    0.285530 0.931459 0.260251 0.138468
H73   H     H_    0.283404 0.553905 0.828459 0.146509
H74   H     H_    0.716596 0.554098 0.171775 0.146521
H75   H     H_    0.783401 0.054259 0.828029 0.146532
H76   H     H_    0.216598 0.054270 0.171984 0.146533
H77   H     H_    0.213036 0.550476 0.762999 0.183031
H78   H     H_    0.786965 0.550692 0.237221 0.183021
H79   H     H_    0.713033 0.050871 0.762592 0.183013
H80   H     H_    0.286966 0.050883 0.237418 0.183013
O1    O     O_R   0.499980 0.537560 0.935110 -0.577856
O2    O     O_R   0.500020 0.537560 0.064890 -0.577860
O3    O     O_R   0.999980 0.037560 0.935110 -0.577839
O4    O     O_R   0.000020 0.037560 0.064890 -0.577840
O5    O     O_R   0.465080 0.499990 0.529910 -0.593211
O6    O     O_R   0.534920 0.499990 0.470090 -0.593210
O7    O     O_R   0.965080 0.999990 0.529910 -0.593216
O8    O     O_R   0.034920 0.999990 0.470090 -0.593217
O9    O     O_R   0.534860 0.499980 0.599740 -0.558326
O10   O     O_R   0.465140 0.499980 0.400260 -0.558330
O11   O     O_R   0.034860 0.999980 0.599740 -0.558322
O12   O     O_R   0.965140 0.999980 0.400260 -0.558322
O13   O     O_R   0.465120 0.564850 0.465070 -0.587028
O14   O     O_R   0.534880 0.564850 0.534930 -0.587029
O15   O     O_R   0.965120 0.064850 0.465070 -0.587026
O16   O     O_R   0.034880 0.064850 0.534930 -0.587028
O17   O     O_R   0.499970 0.462450 0.935080 -0.576364
O18   O     O_R   0.500030 0.462450 0.064920 -0.576359
O19   O     O_R   0.999970 0.962450 0.935080 -0.576382
O20   O     O_R   0.000030 0.962450 0.064920 -0.576381
O21   O     O_R   0.439720 0.537550 0.939720 -0.577345
O22   O     O_R   0.560280 0.537550 0.060280 -0.577335
O23   O     O_R   0.939720 0.037550 0.939720 -0.577328
O24   O     O_R   0.060280 0.037550 0.060280 -0.577327
O25   O     O_R   0.439710 0.462440 0.939690 -0.568660
O26   O     O_R   0.560290 0.462440 0.060310 -0.568673
O27   O     O_R   0.939710 0.962440 0.939690 -0.568686
O28   O     O_R   0.060290 0.962440 0.060310 -0.568688
O29   O     O_R   0.999990 0.564740 0.462430 -0.583028
O30   O     O_R   0.000010 0.564740 0.537570 -0.583014
O31   O     O_R   0.499990 0.064740 0.462430 -0.583021
O32   O     O_R   0.500010 0.064740 0.537570 -0.583021
O33   O     O_R   0.060270 0.499850 0.522700 -0.574107
O34   O     O_R   0.939730 0.499850 0.477300 -0.574111
O35   O     O_R   0.560270 0.999850 0.522700 -0.574113
O36   O     O_R   0.439730 0.999850 0.477300 -0.574113
O37   O     O_R   0.060290 0.499870 0.597820 -0.581168
O38   O     O_R   0.939710 0.499870 0.402180 -0.581173
O39   O     O_R   0.560290 0.999870 0.597820 -0.581176
O40   O     O_R   0.439710 0.999870 0.402180 -0.581177
O41   O     O_R   0.999980 0.434970 0.462420 -0.582437
O42   O     O_R   0.000020 0.434970 0.537580 -0.582437
O43   O     O_R   0.499980 0.934970 0.462420 -0.582438
O44   O     O_R   0.500020 0.934970 0.537580 -0.582437
O45   O     O_R   0.465090 0.435080 0.465060 -0.572923
O46   O     O_R   0.534910 0.435080 0.534940 -0.572926
O47   O     O_R   0.965090 0.935080 0.465060 -0.572926
O48   O     O_R   0.034910 0.935080 0.534940 -0.572926
C201  C     C_1   0.209360 0.572474 0.670221 0.252219
N1    N     N_1   0.196244 0.608217 0.657336 -0.277269
C202  C     C_1   0.790642 0.572298 0.330097 0.252256
N2    N     N_1   0.803760 0.608041 0.343139 -0.277295
C203  C     C_1   0.709357 0.072152 0.669641 0.252286
N3    N     N_1   0.696238 0.107896 0.656469 -0.277312
C204  C     C_1   0.290644 0.072142 0.330376 0.252290
N4    N     N_1   0.303762 0.107885 0.343557 -0.277313
I1    I     I_    0.566524 0.421746 0.688015 -0.361760
I2    I     I_    0.433487 0.421737 0.311997 -0.361778
I3    I     I_    0.066529 0.921750 0.688021 -0.361735
I4    I     I_    0.933473 0.921749 0.311981 -0.361751
C205  C     C_1   0.438962 0.549517 0.804828 0.248133
N5    N     N_1   0.413603 0.569052 0.798346 -0.277003
C206  C     C_1   0.561030 0.549530 0.195164 0.248104
N6    N     N_1   0.586384 0.569069 0.201643 -0.277020
C207  C     C_1   0.938959 0.049513 0.804825 0.248060
N7    N     N_1   0.913600 0.069046 0.798343 -0.277041
C208  C     C_1   0.061040 0.049514 0.195174 0.248058
N8    N     N_1   0.086399 0.069047 0.201656 -0.277041
C209  C     C_1   0.562669 0.450992 0.931318 0.253102
N9    N     N_1   0.588148 0.432453 0.976759 -0.241745
C210  C     C_1   0.437341 0.450978 0.068693 0.253063
N10   N     N_1   0.411865 0.432431 0.023256 -0.241734
C211  C     C_1   0.062674 0.951001 0.931324 0.253144
N11   N     N_1   0.088157 0.932464 0.976768 -0.241757
C212  C     C_1   0.937326 0.950999 0.068677 0.253140
N12   N     N_1   0.911844 0.932462 0.023234 -0.241758
C213  C     C_1   0.290732 0.418080 0.817335 0.235848
N13   N     N_1   0.303492 0.393796 0.856515 -0.233204
C214  C     C_1   0.709264 0.418193 0.182307 0.235862
N14   N     N_1   0.696503 0.394025 0.143020 -0.233158
C215  C     C_1   0.790737 0.918291 0.817990 0.235869
N15   N     N_1   0.803499 0.894219 0.857364 -0.233125
C216  C     C_1   0.209263 0.918297 0.181989 0.235868
N16   N     N_1   0.196501 0.894233 0.142608 -0.233123
C217  C     C_1   0.290236 0.431461 0.740262 0.247080
N17   N     N_1   0.302603 0.417893 0.719416 -0.257144
C218  C     C_1   0.709764 0.431240 0.259440 0.247103
N18   N     N_1   0.697396 0.417527 0.280228 -0.257130
C219  C     C_1   0.790239 0.931060 0.740812 0.247123
N19   N     N_1   0.802607 0.917227 0.720075 -0.257123
C220  C     C_1   0.209762 0.931045 0.259172 0.247124
N20   N     N_1   0.197394 0.917203 0.279906 -0.257123
C221  C     C_1   0.204423 0.426054 0.661809 0.247066
N21   N     N_1   0.188363 0.407774 0.616666 -0.253839
C222  C     C_1   0.795575 0.425863 0.337866 0.247033
N22   N     N_1   0.811636 0.407455 0.382928 -0.253871
C223  C     C_1   0.704427 0.925708 0.662404 0.247004
N23   N     N_1   0.688368 0.907195 0.617409 -0.253903
C224  C     C_1   0.295574 0.925697 0.337577 0.247001
N24   N     N_1   0.311634 0.907176 0.382567 -0.253906
C225  C     C_1   0.291503 0.498377 0.875988 0.261663
N25   N     N_1   0.305254 0.482869 0.921610 -0.244581
C226  C     C_1   0.708497 0.498742 0.124006 0.261662
N26   N     N_1   0.694745 0.483374 0.078316 -0.244666
C227  C     C_1   0.791501 0.999047 0.875997 0.261665
N27   N     N_1   0.805253 0.983794 0.921742 -0.244737
C228  C     C_1   0.208496 0.999069 0.124000 0.261664
N28   N     N_1   0.194742 0.983825 0.078250 -0.244742

loop_
_geom_bond_atom_site_label_1
_geom_bond_atom_site_label_2
_ccdc_geom_bond_type
C111  O14   A    
Cu9   O45   S    
C101  O35   A    
C193  C201  S    
C207  N7    T    
C55   C59   A    
C97   C147  S    
C149  H53   S    
C136  C140  A    
Cu10  O14   S    
C99   O37   A    
C133  C137  A    
C15   C187  T    
C35   H15   S    
C33   H13   S    
C26   C50   A    
C170  C174  A    
C139  C142  A    
C131  H43   S    
C71   C95   A    
C10   C226  S    
C173  C179  A    
C29   C33   A    
Cu2   O23   S    
C32   C110  S    
C149  C153  A    
C64   C84   A    
Cu5   O29   S    
C83   C207  S    
C109  O7    A    
C110  O8    A    
C136  H48   S    
Cu9   O5    S    
C125  C215  S    
C12   C228  S    
C106  C118  S    
C124  C214  S    
C21   C45   S    
C9    C189  S    
C45   O25   A    
C25   C29   A    
Cu8   O32   S    
C13   C185  T    
C116  C121  A    
C27   C31   A    
C151  C158  A    
C28   C32   A    
C121  C128  A    
C180  H66   S    
C16   C188  T    
C104  O43   A    
C181  H67   S    
C62   C66   A    
C182  H68   S    
Cu12  O8    S    
C91   C191  S    
C17   C21   T    
C176  C182  A    
C194  H2    S    
C113  C120  A    
C7    H11   S    
C82   C206  S    
C206  N6    T    
Cu6   O37   S    
C156  C166  A    
C68   C72   A    
C115  C118  A    
C89   C193  S    
C163  C178  A    
C8    H80   S    
C125  C191  S    
C126  C192  S    
C174  C177  A    
C134  H46   S    
Cu2   Cu4   S    
C162  C224  S    
C130  H42   S    
C143  C147  A    
C108  O6    A    
C47   O27   A    
C219  N19   T    
C103  C183  S    
C48   O28   A    
C220  N20   T    
Cu3   O17   S    
C99   C185  S    
C145  C148  A    
Cu6   O30   S    
C5    H77   S    
C152  C157  A    
C18   C190  S    
C93   C209  S    
C59   C63   A    
C160  C222  S    
C59   H23   S    
C84   C88   A    
C92   C196  S    
C138  C141  A    
C39   C43   A    
C216  N16   T    
C193  H1    S    
C116  H40   S    
C225  N25   T    
C69   C93   A    
C103  O42   A    
C9    H73   S    
C60   C64   A    
C11   H75   S    
Cu4   O27   S    
Cu11  O12   S    
C66   C70   A    
C123  C159  S    
C155  C165  A    
Cu7   O43   S    
C124  C160  S    
C116  C118  A    
C102  C188  S    
C171  H63   S    
C132  H44   S    
C72   C96   A    
C61   C65   A    
Cu1   O1    S    
C208  N8    T    
C73   C77   A    
C211  N11   T    
C75   C79   A    
C6    H78   S    
C19   C191  S    
C6    H10   S    
C165  C171  A    
Cu6   O42   S    
C166  C172  A    
C162  C200  S    
C120  C127  A    
C167  C169  A    
C152  H56   S    
C5    C9    S    
C13   C197  S    
C3    C87   S    
C106  O47   A    
C64   C68   A    
Cu8   O39   S    
C115  H39   S    
C228  N28   T    
C113  H37   S    
Cu12  O16   S    
C107  O9    A    
C129  C135  A    
C85   C93   A    
C87   C95   A    
Cu5   O41   S    
Cu1   O21   S    
C114  C119  A    
C16   C200  S    
Cu11  O15   S    
C175  C181  A    
C37   C53   A    
C99   O33   A    
C176  C178  A    
C112  C154  S    
Cu1   Cu3   S    
C144  C147  A    
C27   C51   A    
C195  C199  S    
C23   C47   S    
C30   C34   A    
C24   C48   S    
Cu3   O26   S    
C105  O45   A    
C84   C208  S    
C5    C197  S    
C155  C163  A    
Cu5   O33   S    
Cu10  O46   S    
C79   H35   S    
C74   H26   S    
C25   I1    S    
C126  C220  S    
C27   I3    S    
C8    C12   S    
Cu2   O4    S    
Cu9   Cu10  S    
C146  H52   S    
C111  C153  S    
C157  C164  A    
C45   O21   A    
C42   C50   A    
C113  C117  A    
C132  C134  A    
Cu8   O44   S    
C129  H41   S    
C98   O31   A    
C26   C30   A    
C150  C155  A    
C90   H30   S    
C8    C200  S    
C161  C223  S    
C90   C190  S    
C111  O13   A    
C102  O40   A    
C18   C22   T    
C76   C80   A    
C91   H31   S    
C97   O30   A    
C4    C88   S    
C135  H47   S    
C1    O1    A    
C3    O3    A    
C138  C144  A    
C227  N27   T    
C12   H76   S    
C125  C219  S    
C194  C198  S    
C160  H70   S    
C168  C170  A    
C78   H34   S    
C49   C77   A    
C48   O24   A    
C124  C218  S    
C11   C191  S    
C37   C41   A    
C51   C79   A    
C90   H6    S    
C114  C117  A    
C6    C10   S    
C40   C44   A    
C43   C67   A    
Cu7   O40   S    
C95   C211  S    
C169  C173  A    
C29   C107  S    
C101  C187  S    
C54   H18   S    
C81   C85   A    
C172  C176  A    
C119  C127  A    
C58   C62   A    
C83   C87   A    
C88   C96   A    
C174  C180  A    
C10   H74   S    
C75   H27   S    
Cu10  O9    S    
C144  H50   S    
C157  C167  A    
C124  C190  S    
C205  N5    T    
C158  C168  A    
C218  N18   T    
C165  H57   S    
C70   C94   A    
C140  C142  A    
C137  C141  A    
C104  O44   A    
C101  O39   A    
C196  H4    S    
C214  N14   T    
C41   C49   A    
C7    H79   S    
C39   C55   A    
C156  C163  A    
C40   C56   A    
C150  C153  A    
C145  H51   S    
C210  N10   T    
C80   H36   S    
C69   C73   A    
Cu12  O11   S    
C128  C141  A    
C150  H54   S    
C195  H3    S    
C8    H12   S    
C72   C76   A    
C28   I4    S    
C133  H45   S    
C62   C82   A    
C105  C117  S    
C81   C205  S    
C12   C192  S    
C50   C78   A    
C172  H64   S    
C175  C178  A    
C146  C148  A    
Cu7   O35   S    
Cu7   Cu8   S    
C55   H19   S    
C169  H61   S    
C107  O5    A    
C140  C146  A    
C204  N4    T    
C53   C57   A    
C160  C198  S    
C82   C86   A    
C33   C37   A    
C103  O41   A    
C63   C83   A    
C35   C39   A    
Cu10  O6    S    
Cu4   O28   S    
C14   C198  S    
Cu11  Cu12  S    
C38   C54   A    
Cu5   O38   S    
C31   C109  S    
C46   O26   A    
C151  H55   S    
C22   C46   S    
C31   C35   A    
C32   C36   A    
C221  N21   T    
C181  C184  A    
C1    O17   A    
C30   C108  S    
C3    O19   A    
C125  C161  S    
C58   H22   S    
C20   C192  S    
C226  N26   T    
C161  H71   S    
C162  H72   S    
C34   H14   S    
C135  C139  A    
C76   H28   S    
C106  O48   A    
C4    O20   A    
C43   C51   A    
C98   C148  S    
C112  O15   A    
C65   C69   A    
C159  H69   S    
C67   C71   A    
C122  C128  A    
C25   C49   A    
C94   C210  S    
Cu9   O13   S    
C56   C60   A    
C159  C197  S    
C74   C78   A    
C89   C189  S    
C61   C81   A    
C52   C80   A    
Cu3   O18   S    
C92   C192  S    
C53   H17   S    
Cu8   O36   S    
C5    H9    S    
C202  N2    T    
C109  O11   A    
C110  O12   A    
C28   C52   A    
C2    O2    A    
C19   C23   T    
C212  N12   T    
C60   H24   S    
C196  C200  S    
Cu7   O31   S    
C224  N24   T    
Cu5   Cu6   S    
C7    C11   S    
C11   C227  S    
C10   C190  S    
C120  C130  A    
Cu3   O25   S    
C149  C156  A    
C167  H59   S    
C38   C42   A    
C168  H60   S    
C14   C186  T    
C114  H38   S    
C91   C195  S    
C56   H20   S    
C151  C154  A    
C57   C61   A    
C92   H8    S    
C70   C74   A    
C36   C40   A    
C86   C94   A    
C119  C129  A    
C20   C24   T    
Cu1   O2    S    
C90   C194  S    
C123  C217  S    
C143  H49   S    
C102  O36   A    
C123  C189  S    
Cu4   O19   S    
Cu2   O24   S    
C180  C183  A    
C112  O16   A    
C137  C143  A    
C98   O32   A    
C36   H16   S    
C115  C122  A    
C7    C199  S    
C166  H58   S    
C121  C131  A    
C122  C132  A    
C179  C183  A    
C1    C85   S    
C63   C67   A    
C161  C199  S    
C47   O23   A    
C195  C203  S    
C196  C204  S    
C159  C221  S    
C97   O29   A    
C6    C198  S    
C41   C65   A    
Cu6   O34   S    
C17   C189  S    
C171  C175  A    
Cu11  O47   S    
C100  O34   A    
C127  C142  A    
C26   I2    S    
C100  C186  S    
C73   H25   S    
C15   C199  S    
C173  C177  A    
Cu1   O22   S    
C123  C213  S    
C217  N17   T    
C152  C154  A    
C100  O38   A    
C89   H29   S    
C44   C68   A    
Cu4   O20   S    
C170  H62   S    
C213  N13   T    
C54   C58   A    
C194  C202  S    
C139  C145  A    
C182  C184  A    
C104  C184  S    
C34   C38   A    
C9    C225  S    
C130  C136  A    
C105  O46   A    
C4    O4    A    
C131  C133  A    
Cu11  O7    S    
C134  C138  A    
C57   H21   S    
Cu12  O48   S    
C158  C164  A    
C209  N9    T    
Cu9   O10   S    
C126  C216  S    
C215  N15   T    
C46   O22   A    
C71   C75   A    
C92   H32   S    
C44   C52   A    
C223  N23   T    
C193  C197  S    
Cu2   O3    S    
C2    C86   S    
C77   H33   S    
C91   H7    S    
C96   C212  S    
C89   H5    S    
C179  H65   S    
C2    O18   A    
C42   C66   A    
C201  N1    T    
C203  N3    T    
C126  C162  S    
C164  C177  A    
C222  N22   T    
C108  O10   A    
