data_mof_unit_36802.cif
_audit_creation_date              2012-12-11T15:19:38-0500
_audit_creation_method            fapswitch 2.2
_symmetry_space_group_name_H-M    P1
_symmetry_Int_Tables_number       1
_space_group_crystal_system       triclinic
_cell_length_a                    19.984153
_cell_length_b                    6.884402
_cell_length_c                    18.180395
_cell_angle_alpha                 90.00006
_cell_angle_beta                  104.182337
_cell_angle_gamma                 90.0006
_cell_volume                      2425.00406198

loop_
_atom_site_label
_atom_site_type_symbol
_atom_type_description
_atom_site_fract_x
_atom_site_fract_y
_atom_site_fract_z
_atom_type_partial_charge
O1    O     O_R   0.312200 0.620210 0.189560 -0.541849
O2    O     O_R   0.687800 0.379790 0.810440 -0.537524
O3    O     O_R   0.187800 0.120210 0.310440 -0.541859
O4    O     O_R   0.812200 0.879790 0.689560 -0.537525
O5    O     O_R   0.171590 0.286140 0.165000 -0.535392
O6    O     O_R   0.828410 0.713860 0.835000 -0.529922
O7    O     O_R   0.328410 0.786140 0.335000 -0.535416
O8    O     O_R   0.671590 0.213860 0.665000 -0.529967
C1    C     C_R   0.145731 0.459538 0.143764 0.719502
C2    C     C_R   0.854288 0.540492 0.856214 0.715195
C3    C     C_R   0.354268 0.959539 0.356237 0.719607
C4    C     C_R   0.645712 0.040491 0.643786 0.715089
O9    O     O_R   0.310670 0.290220 0.180540 -0.539021
O10   O     O_R   0.689330 0.709780 0.819460 -0.543663
O11   O     O_R   0.189330 0.790220 0.319460 -0.539009
O12   O     O_R   0.810670 0.209780 0.680540 -0.543674
O13   O     O_R   0.327870 0.124170 0.326080 -0.527956
O14   O     O_R   0.672130 0.875830 0.673920 -0.533261
O15   O     O_R   0.172130 0.624170 0.173920 -0.527956
O16   O     O_R   0.827870 0.375830 0.826080 -0.533313
C5    C     C_R   0.331099 0.459409 0.164391 0.726130
C6    C     C_R   0.668831 0.540549 0.835451 0.726162
C7    C     C_R   0.168902 0.959408 0.335607 0.726151
C8    C     C_R   0.831164 0.040551 0.664541 0.726126
O17   O     O_3   0.255480 0.455050 0.297740 -0.368215
O18   O     O_3   0.744520 0.544950 0.702260 -0.366662
O19   O     O_3   0.244520 0.955050 0.202260 -0.368228
O20   O     O_3   0.755480 0.044950 0.797740 -0.366644
V1    V     V_3+5 0.248980 0.178550 0.241140 1.471499
V2    V     V_3+5 0.751020 0.821450 0.758860 1.474879
V3    V     V_3+5 0.251020 0.678550 0.258860 1.471472
V4    V     V_3+5 0.748980 0.321450 0.741140 1.474728
C9    C     C_R   0.952021 0.000855 0.650613 -0.131325
C10   C     C_R   0.049199 0.918912 0.353384 -0.130750
C11   C     C_R   0.547940 0.501529 0.849346 -0.131330
C12   C     C_R   0.450759 0.418258 0.146543 -0.130713
C13   C     C_R   0.881450 0.029323 0.616513 -0.113217
C14   C     C_R   0.118873 0.968305 0.384091 -0.114939
C15   C     C_R   0.618542 0.529305 0.883472 -0.113154
C16   C     C_R   0.381132 0.468289 0.115906 -0.115029
C17   C     C_R   0.858328 0.039826 0.537088 0.079491
C18   C     C_R   0.141091 0.023412 0.460742 0.082622
C19   C     C_R   0.641697 0.539017 0.962907 0.079581
C20   C     C_R   0.358960 0.523953 0.039314 0.082526
C21   C     C_R   0.904455 0.990179 0.491325 0.055334
C22   C     C_R   0.095841 0.997523 0.509635 0.055628
C23   C     C_R   0.595531 0.489356 0.008622 0.055342
C24   C     C_R   0.404167 0.497978 0.990381 0.055635
C25   C     C_R   0.976656 0.989191 0.524666 0.018398
C26   C     C_R   0.023915 0.976590 0.477256 0.018556
C27   C     C_R   0.523327 0.489023 0.975299 0.018367
C28   C     C_R   0.476073 0.476429 0.022715 0.018583
C29   C     C_R   0.001418 0.000040 0.605264 0.017312
C30   C     C_R   0.999488 0.942524 0.397676 0.016734
C31   C     C_R   0.498553 0.500513 0.894711 0.017344
C32   C     C_R   0.500481 0.441760 0.102257 0.016724
C33   C     C_R   0.880689 0.938895 0.413776 -0.099945
C34   C     C_R   0.120302 0.989103 0.589603 -0.102530
C35   C     C_R   0.619262 0.437421 0.086107 -0.099876
C36   C     C_R   0.379673 0.489991 0.910412 -0.102577
C37   C     C_R   0.926872 0.925669 0.366631 -0.112003
C38   C     C_R   0.074221 0.000859 0.636893 -0.112202
C39   C     C_R   0.573083 0.424211 0.133258 -0.111948
C40   C     C_R   0.425743 0.501719 0.863107 -0.112238
C41   C     C_1   0.583199 0.027564 0.581579 -0.150527
C42   C     C_1   0.416756 0.972572 0.418473 -0.147986
C43   C     C_1   0.916800 0.527568 0.918422 -0.150412
C44   C     C_1   0.083242 0.472568 0.081529 -0.148050
C45   C     C_1   0.530843 0.011022 0.530194 0.051337
C46   C     C_1   0.469101 0.989218 0.469866 0.053137
C47   C     C_1   0.969155 0.511025 0.969808 0.051351
C48   C     C_1   0.030897 0.489217 0.030136 0.053145
C49   C     C_1   0.970832 0.967662 0.732007 0.299504
N1    N     N_1   0.984725 0.940580 0.796841 -0.327911
C50   C     C_1   0.031567 0.840457 0.276886 0.305133
N2    N     N_1   0.018541 0.777354 0.215996 -0.331658
C51   C     C_1   0.529090 0.469338 0.767891 0.299307
N3    N     N_1   0.515173 0.443060 0.703007 -0.327829
C52   C     C_1   0.468332 0.339350 0.222970 0.305292
N4    N     N_1   0.481311 0.275894 0.283803 -0.331720
C53   C     C_3   0.786386 0.118703 0.503242 -0.728569
H1    H     H_    0.774795 0.242224 0.537283 0.205945
H2    H     H_    0.781626 0.181288 0.445984 0.226278
H3    H     H_    0.747280 0.003132 0.501528 0.206787
C54   C     C_3   0.210723 0.122812 0.487205 -0.733404
H4    H     H_    0.218396 0.230544 0.444700 0.211003
H5    H     H_    0.214330 0.210376 0.539202 0.220010
H6    H     H_    0.252893 0.013762 0.496283 0.205667
C55   C     C_3   0.713733 0.617152 0.996834 -0.728690
H7    H     H_    0.725488 0.740689 0.962903 0.205800
H8    H     H_    0.718551 0.679474 0.054146 0.226354
H9    H     H_    0.752698 0.501237 0.998459 0.206848
C56   C     C_3   0.289436 0.623990 0.012960 -0.733117
H10   H     H_    0.281944 0.731792 0.055525 0.211142
H11   H     H_    0.285869 0.711595 0.960981 0.219921
H12   H     H_    0.247141 0.515330 0.003896 0.205558
C57   C     C_1   0.810058 0.873044 0.383430 0.337326
N5    N     N_1   0.754064 0.819798 0.358965 -0.308276
C58   C     C_1   0.192070 0.941341 0.624399 0.339978
N6    N     N_1   0.248996 0.902781 0.652425 -0.302638
C59   C     C_1   0.689827 0.370909 0.116353 0.337183
N7    N     N_1   0.745765 0.317132 0.140739 -0.308189
C60   C     C_1   0.307866 0.442655 0.875621 0.340044
N8    N     N_1   0.250908 0.404432 0.847601 -0.302751
C61   C     C_1   0.896632 0.907488 0.285600 0.355714
N9    N     N_1   0.871563 0.893755 0.221265 -0.291088
C62   C     C_1   0.104530 0.025643 0.717618 0.353147
N10   N     N_1   0.129640 0.045913 0.781663 -0.285878
C63   C     C_1   0.603328 0.405271 0.214260 0.355785
N11   N     N_1   0.628403 0.390926 0.278572 -0.291319
C64   C     C_1   0.395413 0.526706 0.782397 0.353075
N12   N     N_1   0.370284 0.547126 0.718364 -0.285645

loop_
_geom_bond_atom_site_label_1
_geom_bond_atom_site_label_2
_ccdc_geom_bond_type
C34   C38   A    
O18   V4    S    
C56   H10   S    
O19   V1    S    
O13   V1    S    
C49   N1    T    
C61   N9    T    
O3    C7    A    
C64   N12   T    
O15   V3    S    
C53   H1    S    
C2    C43   S    
O1    C5    A    
C21   C33   A    
C59   N7    T    
O9    V1    S    
C14   C18   A    
C54   H4    S    
O4    C8    A    
C25   C29   A    
C57   N5    T    
O1    V3    S    
O2    V4    S    
C18   C22   A    
O3    V1    S    
C12   C16   A    
C20   C56   S    
C1    O15   A    
C2    O16   A    
O2    C6    A    
C62   N10   T    
O14   V2    S    
C55   H8    S    
C36   C60   S    
C37   C61   S    
C16   C20   A    
C27   C31   A    
C3    C42   S    
C44   C48   T    
C10   C50   S    
O11   C7    A    
C33   C57   S    
O12   C8    A    
C22   C34   A    
C9    C29   A    
O10   V2    S    
C53   H2    S    
C24   C36   A    
O5    V1    S    
C54   H5    S    
O17   V1    S    
O7    V3    S    
O19   V3    S    
C27   C28   A    
O8    V4    S    
O20   V4    S    
C40   C64   S    
C15   C19   A    
C38   C62   S    
C51   N3    T    
C11   C31   A    
C11   C51   S    
C9    C13   A    
C35   C59   S    
C39   C63   S    
C11   C15   A    
C50   N2    T    
O5    C1    A    
C12   C32   A    
C29   C38   A    
O7    C3    A    
C58   N6    T    
C21   C25   A    
O8    C4    A    
C17   C53   S    
C31   C40   A    
C8    C13   S    
C32   C39   A    
O9    C5    A    
C18   C54   S    
C19   C55   S    
C55   H9    S    
C33   C37   A    
C9    C49   S    
O6    V2    S    
C10   C30   A    
C56   H12   S    
C53   H3    S    
O16   V4    S    
C54   H6    S    
C3    O13   A    
C10   C14   A    
O17   V3    S    
C34   C58   S    
C12   C52   S    
O6    C2    A    
C23   C27   A    
O11   V3    S    
C30   C37   A    
O12   V4    S    
C7    C14   S    
C4    C41   S    
C22   C26   A    
C35   C39   A    
C36   C40   A    
O10   C6    A    
O20   V2    S    
C1    C44   S    
C47   C48   S    
C26   C30   A    
C63   N11   T    
C42   C46   T    
C5    C16   S    
C41   C45   T    
C6    C15   S    
C43   C47   T    
C13   C17   A    
C45   C46   S    
C23   C35   A    
C52   N4    T    
C28   C32   A    
C24   C28   A    
C56   H11   S    
C25   C26   A    
C4    O14   A    
C60   N8    T    
C17   C21   A    
C55   H7    S    
C19   C23   A    
O4    V2    S    
C20   C24   A    
O18   V2    S    
