data_mof_unit_37828.cif
_audit_creation_date              2012-12-10T17:21:14-0500
_audit_creation_method            fapswitch 2.2
_symmetry_space_group_name_H-M    P1
_symmetry_Int_Tables_number       1
_space_group_crystal_system       triclinic
_cell_length_a                    9.662178
_cell_length_b                    10.759787
_cell_length_c                    13.856694
_cell_angle_alpha                 93.09097
_cell_angle_beta                  84.016059
_cell_angle_gamma                 90.687396
_cell_volume                      1430.61979503

loop_
_atom_site_label
_atom_site_type_symbol
_atom_type_description
_atom_site_fract_x
_atom_site_fract_y
_atom_site_fract_z
_atom_type_partial_charge
C1    C     C_R   0.500304 0.737281 0.503220 0.779505
C2    C     C_R   0.583764 0.932751 0.438724 -0.200251
C3    C     C_R   0.583039 0.060975 0.438726 -0.218836
C4    C     C_R   0.476522 0.500433 0.682861 0.790700
C5    C     C_R   0.498476 0.129751 0.509628 -0.093913
C6    C     C_R   0.872921 0.365934 0.352706 -0.111203
C7    C     C_R   0.948724 0.335527 0.264654 -0.258453
C8    C     C_R   0.091554 0.344839 0.257572 -0.250259
C9    C     C_R   0.156735 0.367402 0.342607 0.323691
C10   C     C_R   0.083308 0.433754 0.425273 0.101072
C11   C     C_R   0.934064 0.433726 0.427221 0.153833
C12   C     C_1   0.461348 0.499974 0.786425 -0.182204
C13   C     C_R   0.916335 0.565292 0.568404 -0.110480
C14   C     C_R   0.063759 0.564403 0.569709 0.335605
C15   C     C_R   0.499160 0.263174 0.503112 0.786751
C16   C     C_R   0.523443 0.499840 0.317154 0.797818
C17   C     C_1   0.538261 0.499013 0.213541 -0.189490
C18   C     C_2   0.557246 0.497837 0.022319 -0.159859
C19   C     C_2   0.441487 0.498980 0.977586 -0.168046
C20   C     C_1   0.450784 0.499491 0.873586 -0.002717
C21   C     C_1   0.548252 0.498339 0.126344 -0.001846
C22   C     C_3   0.217477 0.161317 0.379072 -0.666980
C23   C     C_R   0.349026 0.879877 0.665242 -0.190850
C24   C     C_3   0.093276 0.594288 0.740038 -0.699109
C25   C     C_R   0.270736 0.948683 0.739319 -0.144852
C26   C     C_R   0.265382 0.077677 0.737359 -0.134493
C27   C     C_R   0.339322 0.138672 0.661792 -0.181442
C28   C     C_R   0.418274 0.070593 0.585417 0.092675
C29   C     C_R   0.421445 0.939353 0.586482 0.095917
C30   C     C_R   0.501295 0.871689 0.510327 -0.098417
Cu1   Cu    Cu3+1 0.359340 0.500010 0.500010 0.967132
Cu2   Cu    Cu3+1 0.640660 0.499990 0.499990 0.938176
H1    H     H_    0.339399 0.499892 0.018778 0.153099
H2    H     H_    0.335702 0.239144 0.665045 0.144828
H3    H     H_    0.645858 0.106819 0.381485 0.138173
H4    H     H_    0.853066 0.619996 0.623743 0.147881
H5    H     H_    0.338834 0.278279 0.291631 0.225575
H6    H     H_    0.307265 0.098730 0.380727 0.224928
H7    H     H_    0.150625 0.119157 0.325271 0.212136
H8    H     H_    0.157917 0.167203 0.452232 0.241481
H9    H     H_    0.102490 0.730584 0.640317 0.234352
H10   H     H_    0.981759 0.609063 0.766255 0.200985
H11   H     H_    0.157622 0.647367 0.790106 0.221812
H12   H     H_    0.767664 0.334209 0.359653 0.190333
H13   H     H_    0.117997 0.493834 0.741572 0.245988
H14   H     H_    0.897800 0.293765 0.204745 0.158692
H15   H     H_    0.149710 0.304292 0.192603 0.146538
H16   H     H_    0.659304 0.497006 0.981093 0.154844
H17   H     H_    0.646661 0.880633 0.381344 0.151545
H18   H     H_    0.354598 0.780393 0.671371 0.156817
H19   H     H_    0.215282 0.901811 0.799017 0.134527
H20   H     H_    0.205534 0.130910 0.795464 0.132652
N1    N     N_R   0.852210 0.498790 0.499090 -0.203058
N2    N     N_R   0.148080 0.498710 0.499060 -0.203661
N3    N     N_2   0.266173 0.284099 0.351838 -0.368715
N4    N     N_2   0.124098 0.637270 0.642837 -0.385462
O1    O     O_R   0.381190 0.680360 0.500010 -0.563768
O2    O     O_R   0.618760 0.680340 0.500000 -0.572318
O3    O     O_R   0.364420 0.499990 0.637850 -0.553397
O4    O     O_R   0.601990 0.499960 0.637840 -0.573086
O5    O     O_R   0.381240 0.319660 0.500000 -0.544477
O6    O     O_R   0.618810 0.319640 0.499990 -0.596383
O7    O     O_R   0.398010 0.500040 0.362160 -0.565674
O8    O     O_R   0.635580 0.500010 0.362150 -0.586360

loop_
_geom_bond_atom_site_label_1
_geom_bond_atom_site_label_2
_ccdc_geom_bond_type
C14   N4    S    
C25   H19   S    
H9    N4    S    
C6    C7    A    
C9    N3    S    
C16   O7    A    
C26   H20   S    
C4    C12   S    
C5    C28   A    
C24   H10   S    
C9    C10   A    
Cu1   O5    S    
C13   N1    A    
Cu1   Cu2   S    
C11   N1    A    
C3    H3    S    
Cu2   O2    S    
C2    C30   A    
C22   H8    S    
Cu1   O1    S    
C2    C3    A    
C15   O5    A    
C8    H15   S    
Cu2   O6    S    
C7    C8    A    
C27   H2    S    
C6    H12   S    
C1    O2    A    
C4    O4    A    
C26   C27   A    
C29   C30   A    
C12   C20   T    
C24   H13   S    
C23   C29   A    
C4    O3    A    
C1    C30   S    
C2    H17   S    
C15   O6    A    
C1    O1    A    
C23   C25   A    
Cu1   N2    S    
C10   N2    A    
C5    C15   S    
C24   N4    S    
C10   C11   A    
Cu2   O4    S    
C18   C21   S    
C7    H14   S    
Cu1   O7    S    
Cu2   N1    S    
C27   C28   A    
Cu2   O8    S    
C13   H4    S    
C18   C19   D    
C19   H1    S    
Cu1   O3    S    
C6    C11   A    
C24   H11   S    
C28   C29   A    
C23   H18   S    
C22   N3    S    
C16   O8    A    
C14   N2    A    
C25   C26   A    
C13   C14   A    
C22   H7    S    
C17   C21   T    
C19   C20   S    
C16   C17   S    
C18   H16   S    
C8    C9    A    
C3    C5    A    
C22   H6    S    
H5    N3    S    
