data_mof_unit_21693.cif
_audit_creation_date              2013-03-05T16:33:11-0500
_audit_creation_method            fapswitch 2.2
_symmetry_space_group_name_H-M    P1
_symmetry_Int_Tables_number       1
_space_group_crystal_system       triclinic
_cell_length_a                    27.775979
_cell_length_b                    10.804283
_cell_length_c                    9.60826
_cell_angle_alpha                 90.495501
_cell_angle_beta                  90.477633
_cell_angle_gamma                 91.203486
_cell_volume                      2882.58588859

loop_
_atom_site_label
_atom_site_type_symbol
_atom_site_description
_atom_site_fract_x
_atom_site_fract_y
_atom_site_fract_z
_atom_type_partial_charge
O1    O     O_R   0.500000 0.319640 0.618810 -0.583888
O2    O     O_R   0.500010 0.319680 0.381230 -0.573674
C1    C     C_R   0.498225 0.262479 0.499400 0.780488
O3    O     O_R   0.430260 0.500000 0.618780 -0.606074
O4    O     O_R   0.430270 0.500040 0.381190 -0.465205
C2    C     C_R   0.407429 0.500342 0.499479 0.876792
Cu1   Cu    Cu3+1 0.500000 0.499980 0.640670 0.986716
Cu2   Cu    Cu3+1 0.500000 0.500020 0.359330 1.069607
O5    O     O_R   0.499990 0.680320 0.618770 -0.582796
O6    O     O_R   0.500000 0.680360 0.381190 -0.536755
O7    O     O_R   0.569730 0.499960 0.618810 -0.529748
O8    O     O_R   0.569740 0.500000 0.381220 -0.566915
C3    C     C_R   0.498024 0.737499 0.500206 0.806851
C4    C     C_R   0.592112 0.497640 0.500384 0.852859
C5    C     C_R   0.176977 0.389310 0.545285 0.697403
O9    O     O_2   0.202117 0.289901 0.584948 -0.390336
N1    N     N_R   0.201098 0.494251 0.503920 -0.459286
C6    C     C_R   0.177013 0.596274 0.460376 0.646469
C7    C     C_R   0.277322 0.506224 0.376754 -0.241127
C8    C     C_R   0.327515 0.508952 0.374254 0.655057
C9    C     C_R   0.329314 0.491330 0.625939 -0.353112
C10   C     C_R   0.279094 0.490003 0.628001 0.724318
C11   C     C_R   0.252857 0.496592 0.503131 0.088918
C12   C     C_R   0.100813 0.487990 0.498602 -0.203353
C13   C     C_R   0.126297 0.384434 0.545420 -0.151781
C14   C     C_R   0.100470 0.278348 0.588127 0.678133
C15   C     C_R   0.126378 0.594890 0.455008 -0.141109
C16   C     C_R   0.354183 0.500273 0.499235 -0.276452
H1    H     H_    0.348657 0.485322 0.723901 0.222865
C17   C     C_R   0.644450 0.491234 0.500834 -0.087000
C18   C     C_R   0.973252 0.387043 0.563957 0.004706
C19   C     C_R   0.973802 0.572533 0.416190 -0.110559
C20   C     C_R   0.948169 0.478702 0.488868 -0.047863
C21   C     C_R   0.946379 0.305883 0.650516 0.592109
C22   C     C_R   0.896339 0.308382 0.651960 -0.169601
C23   C     C_R   0.871279 0.391659 0.569331 -0.062029
C24   C     C_R   0.897071 0.477010 0.487133 -0.137012
C25   C     C_R   0.871738 0.561011 0.403926 -0.232279
C26   C     C_R   0.821030 0.557569 0.405250 0.636679
N2    N     N_R   0.796716 0.476481 0.489577 -0.461696
C27   C     C_R   0.820778 0.394079 0.570518 0.600681
C28   C     C_R   0.716743 0.376513 0.455952 -0.068272
C29   C     C_R   0.666593 0.381956 0.458856 -0.291772
C30   C     C_R   0.672549 0.595305 0.538368 0.517621
C31   C     C_R   0.722603 0.589470 0.537355 -0.185930
C32   C     C_R   0.745042 0.480306 0.495469 0.242997
O10   O     O_2   0.795932 0.315863 0.653469 -0.521786
C33   C     C_R   0.024146 0.382250 0.551812 -0.007088
C34   C     C_R   0.049683 0.484590 0.495120 0.075631
C35   C     C_R   0.024471 0.583569 0.434854 0.029105
C36   C     C_R   0.050398 0.277622 0.590990 -0.175371
H2    H     H_    0.645061 0.301441 0.427838 0.158570
H3    H     H_    0.733612 0.292199 0.421807 0.172101
H4    H     H_    0.877264 0.245174 0.720097 0.220838
H5    H     H_    0.032863 0.191274 0.618024 0.242410
O11   O     O_2   0.202178 0.698618 0.422716 -0.407945
C37   C     C_R   0.100664 0.697684 0.409135 0.675441
H6    H     H_    0.257241 0.511883 0.279986 0.220036
C38   C     C_R   0.947748 0.650172 0.325851 0.512358
C39   C     C_R   0.897647 0.644754 0.320606 0.612541
O12   O     O_2   0.796061 0.634353 0.322937 -0.452953
C40   C     C_R   0.050698 0.691776 0.399513 -0.173286
H7    H     H_    0.744051 0.670724 0.566039 0.178447
H8    H     H_    0.033099 0.775809 0.370236 0.241403
C41   C     C_R   0.490967 0.064951 0.623690 0.152849
C42   C     C_R   0.491408 0.129287 0.498673 -0.095434
C43   C     C_R   0.482513 0.062818 0.374198 -0.203558
H9    H     H_    0.478632 0.109931 0.275822 0.185356
C44   C     C_R   0.481556 0.933343 0.375378 -0.187194
H10   H     H_    0.475994 0.883450 0.278415 0.212642
C45   C     C_R   0.490833 0.870261 0.499981 -0.096656
C46   C     C_R   0.490947 0.937784 0.624004 0.153109
C47   C     C_3   0.523910 0.934392 0.746406 -0.507023
C48   C     C_3   0.523926 0.074769 0.746906 -0.457845
H11   H     H_    0.505147 0.892917 0.836501 0.207045
H12   H     H_    0.559460 0.895789 0.720158 0.207186
H13   H     H_    0.505950 0.114750 0.839434 0.209209
H14   H     H_    0.559550 0.117409 0.721599 0.206340
C49   C     C_R   0.540338 0.534307 0.074134 0.043683
N3    N     N_R   0.500300 0.500930 0.147930 -0.250847
C50   C     C_R   0.462563 0.449539 0.072314 0.714832
C51   C     C_R   0.462277 0.451435 0.924032 -0.153421
H15   H     H_    0.431450 0.413198 0.867874 0.183148
N4    N     N_R   0.500310 0.500890 0.852020 -0.238800
C52   C     C_R   0.540803 0.530997 0.928314 0.106795
C53   C     C_3   0.571613 0.645629 0.921805 0.170098
C54   C     C_3   0.570041 0.651573 0.082971 0.788975
H16   H     H_    0.552862 0.718824 0.864089 0.083134
F1    F     F_    0.123421 0.804954 0.372784 -0.555748
F2    F     F_    0.970100 0.724697 0.232364 -0.600549
F3    F     F_    0.651508 0.705006 0.564589 -0.725681
F4    F     F_    0.874837 0.722215 0.232395 -0.550691
F5    F     F_    0.255952 0.483122 0.751610 -0.593100
F6    F     F_    0.424977 0.394803 0.138054 -0.594112
O13   O     O_3   0.617486 0.615942 0.869828 -0.527556
C55   C     C_3   0.646498 0.724214 0.860516 -0.115574
H17   H     H_    0.655075 0.764359 0.963923 0.137177
H18   H     H_    0.629601 0.794948 0.793892 0.165990
H19   H     H_    0.681474 0.699500 0.814326 0.213406
O14   O     O_3   0.614786 0.625358 0.149242 -0.579703
C56   C     C_3   0.631819 0.719308 0.240801 -0.132748
H20   H     H_    0.606311 0.734574 0.327431 0.212507
H21   H     H_    0.640289 0.806683 0.186176 0.123243
H22   H     H_    0.666529 0.689619 0.285191 0.199468
O15   O     O_3   0.541987 0.747115 0.142953 -0.600938
C57   C     C_3   0.555176 0.867915 0.099248 -0.453285
H23   H     H_    0.522401 0.915435 0.063981 0.198028
H24   H     H_    0.582311 0.872554 0.015341 0.143977
H25   H     H_    0.569338 0.921782 0.190070 0.203850
F7    F     F_    0.123219 0.174125 0.627636 -0.555044
F8    F     F_    0.967664 0.231281 0.744566 -0.638530
F9    F     F_    0.349548 0.521327 0.249565 -0.574108

loop_
_geom_bond_atom_site_label_1
_geom_bond_atom_site_label_2
_geom_bond_distance
_ccdc_geom_bond_type
C56   H20   1.111026 S    
C47   C48   1.516630 S    
C7    C8    1.394267 A    
C12   C15   1.411572 A    
C49   C54   1.498730 S    
C50   C51   1.425015 A    
C37   C40   1.390246 A    
C31   C32   1.402980 A    
Cu1   O7    1.949918 S    
N1    C11   1.437430 S    
C37   F1    1.358193 S    
C23   C24   1.407701 A    
C28   H3    1.082745 S    
O4    C2    1.306246 A    
O7    C4    1.301474 A    
C53   H16   1.106459 S    
C29   H2    1.083488 S    
C5    C13   1.407567 A    
C57   H23   1.106653 S    
C5    O9    1.349285 S    
C55   H19   1.108194 S    
Cu1   O5    1.961587 S    
C21   C22   1.390927 A    
C28   C32   1.403644 A    
C44   C45   1.407347 A    
O5    C3    1.301899 A    
C40   H8    1.078498 S    
C8    F9    1.356196 S    
C33   C36   1.410214 A    
C2    C16   1.478929 S    
O13   C55   1.410401 S    
C48   H13   1.111791 S    
C55   H18   1.110239 S    
C18   C20   1.421136 A    
C14   F7    1.358185 S    
C6    O11   1.349394 S    
C42   C43   1.407100 A    
C38   C39   1.392063 A    
C56   H21   1.106029 S    
C9    C10   1.394990 A    
C22   H4    1.083520 S    
C21   F8    1.356288 S    
C47   H11   1.107338 S    
C17   C30   1.398182 A    
C23   C27   1.403652 A    
C4    C17   1.456795 S    
O3    Cu1   1.946745 S    
C39   F4    1.358599 S    
C7    H6    1.083106 S    
C26   O12   1.349488 S    
C43   H9    1.083101 S    
Cu1   Cu2   2.703191 S    
N4    C52   1.369296 A    
O3    C2    1.305430 A    
C15   C37   1.405133 A    
C26   N2    1.369920 A    
C53   C54   1.550322 S    
N3    C50   1.375029 A    
C8    C16   1.410518 A    
C13   C14   1.405435 A    
C52   C53   1.492616 S    
C9    H1    1.083009 S    
C31   H7    1.082890 S    
C20   C24   1.418977 A    
C41   C48   1.492183 S    
C43   C44   1.398720 A    
C38   F2    1.356996 S    
C7    C11   1.400008 A    
C24   C25   1.409953 A    
C54   O15   1.426850 S    
Cu2   O8    1.946740 S    
C55   H17   1.102863 S    
N1    C6    1.368168 A    
C27   O10   1.349800 S    
C18   C21   1.418875 A    
C12   C13   1.411335 A    
C19   C35   1.419688 A    
C30   F3    1.355074 S    
C25   C39   1.404357 A    
N2    C27   1.368353 A    
C9    C16   1.407768 A    
O8    C4    1.298860 A    
C34   C35   1.415885 A    
C56   H22   1.105801 S    
C51   N4    1.369332 A    
C18   C33   1.421379 A    
C35   C40   1.409957 A    
C47   H12   1.110062 S    
C17   C29   1.400485 A    
C1    C42   1.447453 S    
C28   C29   1.395944 A    
N2    C32   1.438333 S    
C49   C52   1.401396 A    
C30   C31   1.393172 A    
C54   O14   1.426534 S    
C12   C34   1.419991 A    
C5    N1    1.368471 A    
C33   C34   1.416466 A    
O1    Cu1   1.957925 S    
O2    Cu2   1.961589 S    
C6    C15   1.406716 A    
C46   C47   1.485583 S    
O6    C3    1.296951 A    
O4    Cu2   1.949921 S    
C51   H15   1.081005 S    
C41   C46   1.373959 A    
C3    C45   1.452394 S    
O15   C57   1.416323 S    
C19   C20   1.418632 A    
O2    C1    1.298208 A    
C45   C46   1.391783 A    
C14   C36   1.391142 A    
C50   F6    1.352829 S    
C25   C26   1.408324 A    
C57   H24   1.108949 S    
O14   C56   1.409097 S    
C10   F5    1.357030 S    
Cu1   N4    2.030591 S    
C36   H5    1.078095 S    
C44   H10   1.080660 S    
C53   O13   1.414495 S    
C49   N3    1.367576 A    
Cu2   O6    1.957924 S    
C41   C42   1.393023 A    
C48   H14   1.112337 S    
Cu2   N3    2.031382 S    
C10   C11   1.401695 A    
C22   C23   1.397796 A    
C19   C38   1.417175 A    
O1    C1    1.298346 A    
C57   H25   1.109418 S    
