data_mof_unit_22458.cif
_audit_creation_date              2012-12-10T17:10:26-0500
_audit_creation_method            fapswitch 2.2
_symmetry_space_group_name_H-M    P1
_symmetry_Int_Tables_number       1
_space_group_crystal_system       triclinic
_cell_length_a                    10.942686
_cell_length_b                    13.011391
_cell_length_c                    11.672825
_cell_angle_alpha                 100.905617
_cell_angle_beta                  95.549135
_cell_angle_gamma                 90.634337
_cell_volume                      1623.57551135

loop_
_atom_site_label
_atom_site_type_symbol
_atom_type_description
_atom_site_fract_x
_atom_site_fract_y
_atom_site_fract_z
_atom_type_partial_charge
C1    C     C_R   0.497957 0.298369 0.477246 0.892679
C2    C     C_R   0.497245 0.701076 0.522131 0.825257
C3    C     C_R   0.487843 0.814515 0.534509 -0.151332
C4    C     C_R   0.496147 0.183629 0.461726 -0.154051
C5    C     C_R   0.516054 0.009762 0.346046 -0.330127
C6    C     C_R   0.453668 0.986712 0.646996 -0.295094
C7    C     C_R   0.515589 0.119090 0.352830 0.496598
C8    C     C_R   0.454050 0.878077 0.637941 0.481383
C9    C     C_R   0.477243 0.138993 0.559147 -0.344844
C10   C     C_R   0.507501 0.859396 0.437735 -0.316994
C11   C     C_R   0.477277 0.031206 0.550855 0.098536
C12   C     C_R   0.500067 0.966725 0.444522 0.119889
C13   C     C_R   0.405535 0.386395 0.014717 -0.404369
C14   C     C_R   0.588557 0.616694 0.985607 -0.446948
C15   C     C_R   0.409665 0.398442 0.139459 0.743310
C16   C     C_R   0.582911 0.605406 0.861005 0.699071
C17   C     C_R   0.536529 0.551965 0.160549 -0.051830
C18   C     C_R   0.467216 0.446335 0.840038 -0.049985
C19   C     C_R   0.531212 0.542876 0.037031 0.024045
C20   C     C_R   0.467896 0.457779 0.963543 -0.002093
C21   C     C_R   0.261752 0.490039 0.496522 0.826828
C22   C     C_R   0.738689 0.496227 0.501725 0.840882
C23   C     C_R   0.140931 0.421532 0.686624 0.449387
C24   C     C_R   0.850617 0.366047 0.306286 0.494680
C25   C     C_R   0.110147 0.451993 0.800267 -0.257359
C26   C     C_R   0.887720 0.346254 0.193626 -0.366088
C27   C     C_R   0.005774 0.509628 0.822172 0.484292
C28   C     C_R   0.002395 0.385891 0.172706 0.497283
C29   C     C_R   0.924568 0.527017 0.724894 -0.317479
C30   C     C_R   0.080871 0.437497 0.269366 -0.196732
C31   C     C_R   0.955329 0.492759 0.608443 -0.049593
C32   C     C_R   0.045299 0.452527 0.384993 -0.083929
C33   C     C_R   0.076595 0.462592 0.595553 -0.030541
C34   C     C_R   0.920195 0.436583 0.396545 -0.053360
C35   C     C_R   0.872736 0.479398 0.503773 -0.126795
C36   C     C_R   0.127177 0.469850 0.490291 -0.125188
Cu1   Cu    Cu3+1 0.509250 0.507730 0.615930 1.009473
Cu2   Cu    Cu3+1 0.490750 0.492270 0.384070 1.018305
H1    H     H_    0.352783 0.323407 0.956520 0.142343
H2    H     H_    0.639506 0.681331 0.042923 0.135827
H3    H     H_    0.166921 0.429317 0.872062 0.196794
H4    H     H_    0.827927 0.297023 0.125471 0.151929
H5    H     H_    0.842595 0.569702 0.741070 0.215353
H6    H     H_    0.168894 0.462345 0.249814 0.223289
H7    H     H_    0.529557 0.810767 0.356566 0.168109
H8    H     H_    0.461827 0.188313 0.642078 0.180964
H9    H     H_    0.528716 0.957096 0.264755 0.135623
H10   H     H_    0.432429 0.035675 0.728190 0.145048
H11   H     H_    0.422272 0.378409 0.784168 0.197111
H12   H     H_    0.588879 0.616142 0.217322 0.136900
N1    N     N_R   0.523180 0.519350 0.790130 -0.217124
N2    N     N_R   0.476820 0.480650 0.209870 -0.218214
O1    O     O_R   0.506570 0.354460 0.582000 -0.607666
O2    O     O_R   0.493430 0.645540 0.418000 -0.618735
O3    O     O_R   0.490940 0.341410 0.386200 -0.466496
O4    O     O_R   0.509060 0.658590 0.613800 -0.492684
O5    O     O_R   0.327470 0.506520 0.597900 -0.554790
O6    O     O_R   0.672530 0.493480 0.402100 -0.564986
O7    O     O_R   0.311840 0.493460 0.402100 -0.591691
O8    O     O_R   0.688160 0.506540 0.597900 -0.585062
O9    O     O_3   0.045931 0.374281 0.062575 -0.544606
C37   C     C_3   0.986795 0.291566 0.978965 -0.346231
H13   H     H_    0.893086 0.313496 0.948428 0.172195
H14   H     H_    0.984830 0.217388 0.013229 0.140255
H15   H     H_    0.039745 0.276612 0.901486 0.176761
O10   O     O_3   0.991141 0.546656 0.939717 -0.542769
C38   C     C_3   0.867635 0.556802 0.961519 -0.259455
H16   H     H_    0.808529 0.489367 0.912555 0.146881
H17   H     H_    0.835222 0.632205 0.941746 0.174591
H18   H     H_    0.861522 0.559331 0.056323 0.188044
O11   O     O_3   0.228867 0.346805 0.664706 -0.587045
C39   C     C_3   0.170041 0.252135 0.604375 -0.386437
H19   H     H_    0.140299 0.256593 0.511684 0.175215
H20   H     H_    0.090480 0.230166 0.648573 0.150213
H21   H     H_    0.236126 0.188288 0.603579 0.193529
O12   O     O_3   0.759125 0.302563 0.332236 -0.532534
C40   C     C_3   0.816734 0.226062 0.388886 -0.334137
H22   H     H_    0.871739 0.261540 0.472497 0.146888
H23   H     H_    0.875377 0.175616 0.329952 0.147634
H24   H     H_    0.746327 0.174794 0.412644 0.185030
O13   O     O_3   0.423711 0.835251 0.731358 -0.582715
C41   C     C_3   0.295897 0.814412 0.717907 -0.305395
H25   H     H_    0.266987 0.757690 0.635345 0.150565
H26   H     H_    0.244059 0.887836 0.720702 0.145991
H27   H     H_    0.271729 0.778373 0.791911 0.192995
O14   O     O_3   0.532804 0.166840 0.257676 -0.526023
C42   C     C_3   0.594831 0.105346 0.169539 -0.305337
H28   H     H_    0.531277 0.044833 0.113708 0.138016
H29   H     H_    0.677889 0.069637 0.206526 0.150281
H30   H     H_    0.626358 0.157001 0.112081 0.189626
O15   O     O_3   0.645864 0.673964 0.807549 -0.571882
C43   C     C_3   0.653644 0.778003 0.871404 -0.311076
H31   H     H_    0.566969 0.802352 0.910144 0.194299
H32   H     H_    0.671449 0.831089 0.810490 0.204886
H33   H     H_    0.732324 0.788806 0.940469 0.122998
O16   O     O_3   0.343419 0.333442 0.195065 -0.551145
C44   C     C_3   0.305203 0.236089 0.123940 -0.296707
H34   H     H_    0.381274 0.197026 0.077710 0.169079
H35   H     H_    0.226144 0.245345 0.060401 0.176187
H36   H     H_    0.273950 0.183903 0.180940 0.192333

loop_
_geom_bond_atom_site_label_1
_geom_bond_atom_site_label_2
_ccdc_geom_bond_type
C42   H28   S    
C27   C29   A    
C19   C20   A    
C16   N1    A    
C44   H34   S    
C21   C36   S    
C40   H22   S    
C22   C35   S    
C5    H9    S    
C6    C11   A    
C37   H13   S    
C6    H10   S    
C32   C36   A    
C24   C26   A    
C21   O7    A    
C39   H21   S    
C22   O8    A    
Cu1   N1    S    
C7    O14   S    
Cu2   N2    S    
C33   C36   A    
C34   C35   A    
C1    O1    A    
C37   H14   S    
Cu2   O6    S    
Cu1   O4    S    
Cu2   O3    S    
C23   C33   A    
C31   C33   A    
C18   C20   A    
C13   C20   A    
Cu1   O1    S    
C28   O9    S    
O10   C38   S    
C9    H8    S    
C29   H5    S    
C30   H6    S    
C4    C7    A    
C17   N2    A    
C44   H35   S    
C18   N1    A    
O13   C41   S    
C40   H23   S    
C8    O13   S    
C23   O11   S    
O12   C40   S    
C5    C12   A    
C39   H20   S    
C3    C8    A    
C2    O2    A    
C25   H3    S    
O15   C43   S    
C5    C7    A    
O14   C42   S    
C24   O12   S    
C6    C8    A    
C43   H33   S    
C24   C34   A    
C38   H16   S    
C38   H17   S    
C32   C34   A    
C21   O5    A    
Cu1   Cu2   S    
Cu2   O2    S    
O16   C44   S    
C10   H7    S    
C43   H32   S    
C15   N2    A    
C9    C11   A    
C10   C12   A    
C41   H26   S    
C13   C15   A    
C14   C16   A    
C15   O16   S    
C44   H36   S    
C26   H4    S    
C40   H24   S    
C37   H15   S    
C14   C19   A    
C39   H19   S    
C17   H12   S    
C22   O6    A    
C11   C12   A    
C25   C27   A    
C41   H27   S    
C26   C28   A    
C1    C4    S    
C38   H18   S    
C28   C30   A    
C2    C3    S    
C1    O3    A    
O11   C39   S    
C29   C31   A    
C27   O10   S    
C2    O4    A    
C30   C32   A    
C43   H31   S    
C17   C19   A    
C31   C35   A    
C23   C25   A    
O9    C37   S    
C13   H1    S    
Cu1   O8    S    
C14   H2    S    
Cu2   O7    S    
C16   O15   S    
C41   H25   S    
C42   H30   S    
C3    C10   A    
C42   H29   S    
C4    C9    A    
Cu1   O5    S    
C18   H11   S    
