data_mof_unit_65935.cif
_audit_creation_date              2012-10-26T18:09:44-0400
_audit_creation_method            fapswitch 2.2
_symmetry_space_group_name_H-M    P1
_symmetry_Int_Tables_number       1
_space_group_crystal_system       triclinic
_cell_length_a                    21.803663
_cell_length_b                    21.803663
_cell_length_c                    23.677957
_cell_angle_alpha                 90.000557
_cell_angle_beta                  90.000556
_cell_angle_gamma                 89.99946
_cell_volume                      11256.4941316

loop_
_atom_site_label
_atom_site_type_symbol
_atom_type_description
_atom_site_fract_x
_atom_site_fract_y
_atom_site_fract_z
_atom_type_partial_charge
C1    C     C_R   0.381326 0.000000 0.500002 0.515004
C2    C     C_R   0.039150 0.282115 0.462413 -0.047701
C3    C     C_R   0.381700 0.219176 0.889056 0.455534
C4    C     C_R   0.780824 0.618301 0.110944 0.455534
C5    C     C_R   0.618265 0.219171 0.110962 0.455544
C6    C     C_R   0.219181 0.381699 0.110941 0.455533
C7    C     C_R   0.381753 0.780835 0.110972 0.455542
C8    C     C_R   0.218376 0.873200 0.397515 0.450005
C9    C     C_R   0.126834 0.218366 0.397541 0.449992
C10   C     C_R   0.781618 0.126780 0.397501 0.450012
C11   C     C_R   0.873169 0.781630 0.397536 0.449997
C12   C     C_R   0.218370 0.126831 0.602464 0.449998
C13   C     C_R   0.717879 0.039135 0.462407 -0.047717
C14   C     C_R   0.126800 0.781624 0.602485 0.450005
C15   C     C_R   0.781634 0.873166 0.602459 0.449994
C16   C     C_R   0.873220 0.218382 0.602499 0.450011
C17   C     C_R   0.718376 0.373200 0.897515 0.450005
C18   C     C_R   0.626834 0.718366 0.897541 0.449994
C19   C     C_R   0.281618 0.626780 0.897501 0.450012
C20   C     C_R   0.373169 0.281630 0.897536 0.449997
C21   C     C_R   0.718370 0.626831 0.102464 0.449997
C22   C     C_R   0.626799 0.281624 0.102485 0.450005
C23   C     C_R   0.281634 0.373167 0.102459 0.449992
C24   C     C_R   0.960850 0.717883 0.462412 -0.047699
C25   C     C_R   0.373220 0.718382 0.102499 0.450011
C26   C     C_R   0.186897 0.910416 0.435524 -0.124860
C27   C     C_R   0.089602 0.186890 0.435541 -0.124866
C28   C     C_R   0.813099 0.089572 0.435513 -0.124858
C29   C     C_R   0.910400 0.813107 0.435536 -0.124867
C30   C     C_R   0.186892 0.089599 0.564464 -0.124867
C31   C     C_R   0.089584 0.813103 0.564476 -0.124860
C32   C     C_R   0.813110 0.910398 0.564459 -0.124866
C33   C     C_R   0.910428 0.186901 0.564487 -0.124858
C34   C     C_R   0.686897 0.410416 0.935524 -0.124860
C35   C     C_R   0.282116 0.039150 0.537588 -0.047700
C36   C     C_R   0.589602 0.686890 0.935541 -0.124866
C37   C     C_R   0.313099 0.589572 0.935513 -0.124858
C38   C     C_R   0.410401 0.313107 0.935536 -0.124867
C39   C     C_R   0.686892 0.589599 0.064464 -0.124866
C40   C     C_R   0.589584 0.313103 0.064476 -0.124861
C41   C     C_R   0.313110 0.410398 0.064459 -0.124866
C42   C     C_R   0.410428 0.686901 0.064487 -0.124858
C43   C     C_R   0.217677 0.957103 0.466146 -0.047544
C44   C     C_R   0.042904 0.217673 0.466152 -0.047518
C45   C     C_R   0.782321 0.042891 0.466141 -0.047555
C46   C     C_R   0.039140 0.717882 0.537590 -0.047711
C47   C     C_R   0.957096 0.782325 0.466150 -0.047521
C48   C     C_R   0.217675 0.042904 0.533850 -0.047521
C49   C     C_R   0.042896 0.782323 0.533853 -0.047544
C50   C     C_R   0.782327 0.957096 0.533848 -0.047517
C51   C     C_R   0.957109 0.217679 0.533858 -0.047556
C52   C     C_R   0.717677 0.457104 0.966147 -0.047544
C53   C     C_R   0.542904 0.717673 0.966152 -0.047517
C54   C     C_R   0.282321 0.542891 0.966141 -0.047555
C55   C     C_R   0.457096 0.282325 0.966150 -0.047521
C56   C     C_R   0.717675 0.542904 0.033850 -0.047521
C57   C     C_R   0.717885 0.960850 0.537587 -0.047701
C58   C     C_R   0.542896 0.282323 0.033853 -0.047544
C59   C     C_R   0.282327 0.457096 0.033848 -0.047518
C60   C     C_R   0.457109 0.717679 0.033858 -0.047556
C61   C     C_R   0.960865 0.282121 0.537593 -0.047717
C62   C     C_R   0.782118 0.460859 0.962410 -0.047711
C63   C     C_R   0.539150 0.782115 0.962412 -0.047701
C64   C     C_R   0.217879 0.539135 0.962407 -0.047717
C65   C     C_R   0.000000 0.381326 0.499996 0.515003
C66   C     C_R   0.460850 0.217883 0.962412 -0.047700
C67   C     C_R   0.782116 0.539150 0.037588 -0.047700
C68   C     C_R   0.539140 0.217882 0.037590 -0.047711
C69   C     C_R   0.217885 0.460850 0.037587 -0.047701
C70   C     C_R   0.460865 0.782121 0.037593 -0.047717
C71   C     C_R   0.185662 0.000000 0.500000 0.038533
C72   C     C_R   0.000001 0.185662 0.500003 0.038529
C73   C     C_R   0.814338 0.999999 0.499997 0.038529
C74   C     C_R   1.000000 0.814338 0.500000 0.038532
C75   C     C_R   0.685662 0.500000 1.000000 0.038533
C76   C     C_R   0.618674 1.000000 0.500004 0.515003
C77   C     C_R   0.500001 0.685662 0.000003 0.038529
C78   C     C_R   0.314337 0.499999 0.999997 0.038529
C79   C     C_R   0.500000 0.314338 0.000000 0.038532
C80   C     C_R   0.314313 0.000002 0.500001 0.038912
C81   C     C_R   0.000002 0.314313 0.499999 0.038911
C82   C     C_R   0.685687 0.999998 0.500001 0.038911
C83   C     C_R   0.999998 0.685687 0.499999 0.038912
C84   C     C_R   0.814313 0.500002 0.000001 0.038912
C85   C     C_R   0.500002 0.814313 0.999999 0.038911
C86   C     C_R   0.185687 0.499998 0.000001 0.038911
C87   C     C_R   1.000000 0.618674 0.499998 0.515004
C88   C     C_R   0.499998 0.185687 0.999999 0.038912
C89   C     C_R   0.999997 0.118862 0.500001 0.506478
C90   C     C_R   0.881138 0.000002 0.499999 0.506478
C91   C     C_R   0.000002 0.881138 0.500000 0.506476
C92   C     C_R   0.118862 0.999998 0.500000 0.506477
C93   C     C_R   0.499997 0.618862 0.000001 0.506478
C94   C     C_R   0.381137 0.500003 0.999999 0.506478
C95   C     C_R   0.500002 0.381138 1.000000 0.506476
C96   C     C_R   0.618862 0.499998 0.000000 0.506477
C97   C     C_R   0.500000 1.000000 0.391965 0.531579
C98   C     C_R   0.881326 0.500000 0.000002 0.515004
C99   C     C_R   1.000000 0.500000 0.391965 0.531576
C100  C     C_R   0.500000 0.000000 0.608035 0.531576
C101  C     C_R   0.000000 0.500000 0.608035 0.531579
C102  C     C_R   1.000000 0.500000 0.891965 0.531579
C103  C     C_R   0.500000 1.000000 0.891965 0.531576
C104  C     C_R   1.000000 0.500000 0.108035 0.531576
C105  C     C_R   0.500000 1.000000 0.108035 0.531579
C106  C     C_1   0.500000 0.999999 0.331060 0.038526
C107  C     C_1   0.999999 0.500000 0.331060 0.038501
C108  C     C_1   0.500000 0.000001 0.668940 0.038501
C109  C     C_R   0.500000 0.881326 0.999996 0.515003
C110  C     C_1   0.000001 0.500000 0.668940 0.038525
C111  C     C_1   0.000000 0.499999 0.831060 0.038525
C112  C     C_1   0.499999 0.000000 0.831060 0.038501
C113  C     C_1   1.000000 0.500001 0.168940 0.038501
C114  C     C_1   0.500001 1.000000 0.168940 0.038525
C115  C     C_1   0.500001 0.999999 0.279963 0.037351
C116  C     C_1   0.999999 0.500001 0.279963 0.037314
C117  C     C_1   0.499999 0.000001 0.720037 0.037314
C118  C     C_1   0.000001 0.499999 0.720037 0.037351
C119  C     C_1   0.000001 0.499999 0.779963 0.037351
C120  C     C_R   0.118674 0.499999 0.000003 0.515003
C121  C     C_1   0.499999 0.000001 0.779963 0.037314
C122  C     C_1   0.999999 0.500001 0.220037 0.037314
C123  C     C_1   0.500001 0.999999 0.220037 0.037351
C124  C     C_R   0.312539 0.925084 0.420922 -0.118271
C125  C     C_R   0.074938 0.312533 0.420930 -0.118289
C126  C     C_R   0.687456 0.074905 0.420917 -0.118272
C127  C     C_R   0.925060 0.687464 0.420930 -0.118289
C128  C     C_R   0.312536 0.074940 0.579070 -0.118289
C129  C     C_R   0.074916 0.687460 0.579078 -0.118271
C130  C     C_R   0.687467 0.925062 0.579070 -0.118289
C131  C     C_R   0.500000 0.118674 0.999998 0.515004
C132  C     C_R   0.925095 0.312544 0.579082 -0.118273
C133  C     C_R   0.812540 0.425084 0.920922 -0.118271
C134  C     C_R   0.574938 0.812533 0.920930 -0.118289
C135  C     C_R   0.187456 0.574905 0.920917 -0.118273
C136  C     C_R   0.425061 0.187464 0.920930 -0.118289
C137  C     C_R   0.812536 0.574939 0.079070 -0.118289
C138  C     C_R   0.574916 0.187460 0.079078 -0.118271
C139  C     C_R   0.187467 0.425062 0.079070 -0.118289
C140  C     C_R   0.425095 0.812544 0.079082 -0.118272
C141  C     C_R   0.280828 0.881734 0.389038 0.455543
C142  C     C_R   0.282118 0.960859 0.462410 -0.047711
C143  C     C_R   0.118301 0.280819 0.389059 0.455533
C144  C     C_R   0.719165 0.118247 0.389028 0.455542
C145  C     C_R   0.881699 0.719176 0.389056 0.455534
C146  C     C_R   0.280824 0.118301 0.610943 0.455533
C147  C     C_R   0.118266 0.719171 0.610962 0.455543
C148  C     C_R   0.719181 0.881699 0.610941 0.455532
C149  C     C_R   0.881753 0.280835 0.610972 0.455543
C150  C     C_R   0.780828 0.381734 0.889038 0.455543
C151  C     C_R   0.618301 0.780819 0.889059 0.455532
C152  C     C_R   0.219165 0.618247 0.889027 0.455542
Cu1   Cu    Cu3+1 0.500000 0.061820 0.500000 1.085478
Cu2   Cu    Cu3+1 1.000000 1.000000 0.444190 1.062522
Cu3   Cu    Cu3+1 0.500000 0.500000 0.055810 1.062522
Cu4   Cu    Cu3+1 0.500000 0.500000 0.944190 1.062522
Cu5   Cu    Cu3+1 0.938180 0.500000 0.500000 1.085477
Cu6   Cu    Cu3+1 0.500000 0.938180 0.500000 1.085482
Cu7   Cu    Cu3+1 0.061820 0.500000 0.500000 1.085482
Cu8   Cu    Cu3+1 0.000000 0.561820 0.000000 1.085477
Cu9   Cu    Cu3+1 0.438180 0.000000 0.000000 1.085477
Cu10  Cu    Cu3+1 0.000000 0.438180 0.000000 1.085482
Cu11  Cu    Cu3+1 0.561820 0.000000 0.000000 1.085482
Cu12  Cu    Cu3+1 1.000000 1.000000 0.555810 1.062521
F1    F     F_    0.311158 0.152791 0.649573 -0.519760
F2    F     F_    0.347287 0.811173 0.149615 -0.519766
F3    F     F_    0.188848 0.347208 0.149571 -0.519760
F4    F     F_    0.652738 0.188836 0.149602 -0.519755
F5    F     F_    0.811164 0.347262 0.850398 -0.519755
F6    F     F_    0.347210 0.188842 0.850426 -0.519760
F7    F     F_    0.188827 0.652713 0.850385 -0.519767
F8    F     F_    0.652792 0.811152 0.850429 -0.519760
F9    F     F_    0.187778 0.829552 0.368001 -0.535646
F10   F     F_    0.170500 0.187766 0.368045 -0.535639
F11   F     F_    0.812215 0.170420 0.367980 -0.535646
F12   F     F_    0.847286 0.311173 0.649615 -0.519766
F13   F     F_    0.829506 0.812229 0.368037 -0.535640
F14   F     F_    0.187771 0.170494 0.631963 -0.535640
F15   F     F_    0.170448 0.812222 0.631998 -0.535646
F16   F     F_    0.812234 0.829500 0.631955 -0.535640
F17   F     F_    0.829580 0.187785 0.632020 -0.535646
F18   F     F_    0.687778 0.329552 0.868001 -0.535647
F19   F     F_    0.670500 0.687766 0.868045 -0.535640
F20   F     F_    0.312215 0.670420 0.867980 -0.535646
F21   F     F_    0.329507 0.312229 0.868037 -0.535640
F22   F     F_    0.687771 0.670493 0.131963 -0.535640
F23   F     F_    0.688848 0.847208 0.649571 -0.519760
F24   F     F_    0.670448 0.312222 0.131999 -0.535646
F25   F     F_    0.312234 0.329500 0.131955 -0.535639
F26   F     F_    0.329580 0.687785 0.132020 -0.535646
F27   F     F_    0.152738 0.688836 0.649601 -0.519755
F28   F     F_    0.311164 0.847262 0.350399 -0.519755
F29   F     F_    0.847209 0.688842 0.350426 -0.519760
F30   F     F_    0.688827 0.152713 0.350385 -0.519766
F31   F     F_    0.152792 0.311152 0.350429 -0.519760
F32   F     F_    0.811158 0.652791 0.149573 -0.519760
H1    H     H_    0.138447 0.901684 0.440738 0.163480
H2    H     H_    0.598333 0.638439 0.940762 0.163462
H3    H     H_    0.361549 0.598304 0.940724 0.163495
H4    H     H_    0.401671 0.361558 0.940754 0.163466
H5    H     H_    0.638441 0.598329 0.059246 0.163466
H6    H     H_    0.598316 0.361553 0.059262 0.163480
H7    H     H_    0.361560 0.401667 0.059238 0.163462
H8    H     H_    0.401696 0.638451 0.059276 0.163495
H9    H     H_    0.360824 0.930406 0.412020 0.169680
H10   H     H_    0.069620 0.360817 0.412026 0.169680
H11   H     H_    0.639171 0.069582 0.412018 0.169679
H12   H     H_    0.098333 0.138439 0.440762 0.163462
H13   H     H_    0.930378 0.639179 0.412027 0.169683
H14   H     H_    0.360821 0.069622 0.587973 0.169683
H15   H     H_    0.069594 0.639176 0.587980 0.169680
H16   H     H_    0.639183 0.930380 0.587974 0.169680
H17   H     H_    0.930417 0.360829 0.587982 0.169679
H18   H     H_    0.860824 0.430406 0.912020 0.169680
H19   H     H_    0.569620 0.860817 0.912026 0.169680
H20   H     H_    0.139171 0.569582 0.912018 0.169679
H21   H     H_    0.430378 0.139179 0.912027 0.169683
H22   H     H_    0.860821 0.569622 0.087973 0.169683
H23   H     H_    0.861549 0.098304 0.440724 0.163495
H24   H     H_    0.569593 0.139176 0.087980 0.169680
H25   H     H_    0.139183 0.430380 0.087974 0.169679
H26   H     H_    0.430418 0.860829 0.087982 0.169679
H27   H     H_    0.901671 0.861558 0.440754 0.163465
H28   H     H_    0.138441 0.098329 0.559246 0.163466
H29   H     H_    0.098316 0.861553 0.559262 0.163480
H30   H     H_    0.861560 0.901667 0.559238 0.163462
H31   H     H_    0.901696 0.138451 0.559276 0.163495
H32   H     H_    0.638447 0.401684 0.940738 0.163480
O1    O     O_R   0.409810 0.052200 0.500010 -0.507111
O2    O     O_R   0.447800 0.909810 0.000010 -0.507115
O3    O     O_R   0.090190 0.447800 0.000010 -0.507111
O4    O     O_R   0.552200 0.090190 0.000010 -0.507113
O5    O     O_R   0.909810 0.447800 0.999990 -0.507113
O6    O     O_R   0.447800 0.090190 0.999990 -0.507111
O7    O     O_R   0.090190 0.552200 0.999990 -0.507114
O8    O     O_R   0.552200 0.909810 0.999990 -0.507110
O9    O     O_R   0.499980 0.052200 0.418610 -0.492180
O10   O     O_R   0.947800 0.499980 0.418610 -0.492192
O11   O     O_R   0.500020 0.947800 0.418610 -0.492181
O12   O     O_R   0.947800 0.409810 0.500010 -0.507115
O13   O     O_R   0.052200 0.500020 0.418610 -0.492189
O14   O     O_R   0.499980 0.947800 0.581390 -0.492189
O15   O     O_R   0.947800 0.500020 0.581390 -0.492181
O16   O     O_R   0.500020 0.052200 0.581390 -0.492192
O17   O     O_R   0.052200 0.499980 0.581390 -0.492181
O18   O     O_R   0.999980 0.552200 0.918610 -0.492180
O19   O     O_R   0.447800 0.999980 0.918610 -0.492192
O20   O     O_R   0.000020 0.447800 0.918610 -0.492181
O21   O     O_R   0.552200 0.000020 0.918610 -0.492189
O22   O     O_R   0.999980 0.447800 0.081390 -0.492189
O23   O     O_R   0.590190 0.947800 0.500010 -0.507111
O24   O     O_R   0.447800 0.000020 0.081390 -0.492181
O25   O     O_R   0.000020 0.552200 0.081390 -0.492192
O26   O     O_R   0.552200 0.999980 0.081390 -0.492181
O27   O     O_R   0.999980 0.090160 0.547150 -0.507163
O28   O     O_R   0.909840 0.999980 0.547150 -0.507145
O29   O     O_R   0.000020 0.909840 0.547150 -0.507155
O30   O     O_R   0.090160 0.000020 0.547150 -0.507149
O31   O     O_R   0.999980 0.909840 0.452850 -0.507149
O32   O     O_R   0.909840 0.000020 0.452850 -0.507163
O33   O     O_R   0.000020 0.090160 0.452850 -0.507145
O34   O     O_R   0.052200 0.590190 0.500010 -0.507113
O35   O     O_R   0.090160 0.999980 0.452850 -0.507155
O36   O     O_R   0.499980 0.590160 0.047150 -0.507163
O37   O     O_R   0.409840 0.499980 0.047150 -0.507145
O38   O     O_R   0.500020 0.409840 0.047150 -0.507154
O39   O     O_R   0.590160 0.500020 0.047150 -0.507149
O40   O     O_R   0.499980 0.409840 0.952850 -0.507149
O41   O     O_R   0.409840 0.500020 0.952850 -0.507163
O42   O     O_R   0.500020 0.590160 0.952850 -0.507145
O43   O     O_R   0.590160 0.499980 0.952850 -0.507155
O44   O     O_R   0.409810 0.947800 0.499990 -0.507113
O45   O     O_R   0.947800 0.590190 0.499990 -0.507111
O46   O     O_R   0.590190 0.052200 0.499990 -0.507114
O47   O     O_R   0.052200 0.409810 0.499990 -0.507111
O48   O     O_R   0.909810 0.552200 0.000010 -0.507111

loop_
_geom_bond_atom_site_label_1
_geom_bond_atom_site_label_2
_ccdc_geom_bond_type
C131  O4    A    
C69   C139  A    
C71   C92   S    
C83   C87   S    
C70   C140  A    
C77   C93   S    
C4    C21   A    
Cu12  O30   S    
C124  H9    S    
C65   O47   A    
C8    C26   A    
C35   C80   A    
C128  C146  A    
C12   F14   S    
C17   C150  A    
C102  O18   A    
C23   F25   S    
C14   C31   A    
C113  C122  T    
C52   C75   A    
C101  O17   A    
C110  C118  T    
C46   C129  A    
C9    C143  A    
Cu2   O32   S    
C21   F22   S    
C1    O44   A    
C96   O43   A    
C46   C49   A    
Cu11  O8    S    
C116  C122  S    
C29   C47   A    
C133  H18   S    
C62   C133  A    
Cu2   Cu12  S    
C24   C83   A    
C36   H2    S    
C73   C90   S    
Cu9   O19   S    
C85   C109  S    
C25   F26   S    
C120  O7    A    
Cu5   O45   S    
C7    C140  A    
C93   O42   A    
C150  F5    S    
Cu4   O42   S    
C134  C151  A    
Cu6   O44   S    
C24   C47   A    
C135  C152  A    
C125  H10   S    
C6    C139  A    
C55   C79   A    
C120  O3    A    
C45   C73   A    
C27   H12   S    
Cu6   O14   S    
C5    F4    S    
C12   C146  A    
Cu1   Cu6   S    
C26   H1    S    
C117  C121  S    
C118  C119  S    
Cu7   O17   S    
C90   O28   A    
C36   C53   A    
C19   C37   A    
C61   C132  A    
C128  H14   S    
C4    C137  A    
C99   O10   A    
C42   H8    S    
C17   F18   S    
C127  H13   S    
C5    C22   A    
C39   C56   A    
C2    C44   A    
Cu8   O7    S    
Cu4   O40   S    
C137  H22   S    
C75   C96   S    
C24   C127  A    
Cu2   O31   S    
C65   O12   A    
C44   C72   A    
Cu1   O46   S    
Cu8   O48   S    
C13   C45   A    
C41   H7    S    
C145  F29   S    
C14   F15   S    
C100  O16   A    
C61   C81   A    
Cu6   O11   S    
C30   C48   A    
C93   O36   A    
C139  H25   S    
C96   O39   A    
C20   F21   S    
C64   C135  A    
C22   C40   A    
C67   C84   A    
Cu5   Cu7   S    
C56   C75   A    
C15   F16   S    
C63   C85   A    
Cu10  O20   S    
C132  C149  A    
Cu10  O5    S    
Cu1   O1    S    
C102  C111  S    
Cu12  O28   S    
C141  F28   S    
C105  O26   A    
C31   C49   A    
C101  O15   A    
C35   C48   A    
C27   C44   A    
C59   C78   A    
C64   C86   A    
Cu9   Cu11  S    
C26   C43   A    
C2    C81   A    
C131  O6    A    
C97   O11   A    
C34   H32   S    
C60   C77   A    
C100  C108  S    
C40   C58   A    
C115  C123  S    
Cu9   O6    S    
C130  C148  A    
C103  O21   A    
C63   C134  A    
C57   C130  A    
C5    C138  A    
C102  O20   A    
Cu6   O23   S    
C41   C59   A    
C104  O25   A    
Cu11  O4    S    
Cu5   O15   S    
C50   C73   A    
C147  F27   S    
Cu4   O43   S    
C152  F7    S    
C8    F9    S    
C11   C145  A    
C95   O38   A    
C30   H28   S    
Cu4   O41   S    
C101  C110  S    
C94   O41   A    
C13   C82   A    
C52   C62   A    
C103  O19   A    
C151  F8    S    
C46   C83   A    
C16   C149  A    
C103  C112  S    
C148  F23   S    
C87   O34   A    
Cu8   Cu10  S    
Cu8   O25   S    
C99   O13   A    
Cu11  O26   S    
C53   C77   A    
C99   C107  S    
C109  O8    A    
C79   C95   S    
C91   O29   A    
C16   C33   A    
C20   C38   A    
C109  O2    A    
C105  C114  S    
Cu5   O12   S    
C65   C81   S    
C135  H20   S    
C21   C39   A    
C51   C61   A    
C60   C70   A    
C126  H11   S    
C143  F31   S    
C47   C74   A    
C19   C152  A    
C76   O46   A    
C9    F10   S    
C49   C74   A    
Cu2   O35   S    
C7    C25   A    
C11   F13   S    
C32   H30   S    
C74   C91   S    
C32   C50   A    
Cu3   O37   S    
C98   O48   A    
C58   C79   A    
C127  C145  A    
C66   C136  A    
C114  C123  T    
C111  C119  T    
C58   C68   A    
C146  F1    S    
C40   H6    S    
C28   H23   S    
C80   C142  A    
C31   H29   S    
C90   O32   A    
C68   C88   A    
C8    C141  A    
C38   H4    S    
C124  C141  A    
Cu12  O27   S    
C129  H15   S    
C51   C72   A    
C13   C126  A    
C48   C71   A    
C76   C82   S    
C18   C151  A    
C42   C60   A    
C3    C136  A    
C55   C66   A    
C100  O14   A    
C9    C27   A    
C38   C55   A    
C78   C94   S    
C59   C69   A    
C10   C28   A    
C10   F11   S    
C29   H27   S    
C94   O37   A    
C62   C84   A    
C6    F3    S    
Cu11  O21   S    
C43   C71   A    
Cu3   O38   S    
C12   C30   A    
C10   C144  A    
C50   C57   A    
C108  C117  T    
C7    F2    S    
C104  O22   A    
C133  C150  A    
Cu10  O3    S    
C105  O24   A    
Cu8   O18   S    
C17   C34   A    
C33   H31   S    
C15   C32   A    
C25   C42   A    
Cu9   O24   S    
C37   C54   A    
C19   F20   S    
C3    F6    S    
C136  H21   S    
C92   O30   A    
C33   C51   A    
C56   C67   A    
C97   O9    A    
C89   O33   A    
C34   C52   A    
C23   C41   A    
Cu1   O9    S    
C106  C115  T    
C149  F12   S    
C84   C98   S    
C16   F17   S    
C39   H5    S    
Cu3   O36   S    
Cu7   O47   S    
C112  C121  T    
Cu10  O22   S    
Cu2   O33   S    
C3    C20   A    
C66   C88   A    
C72   C89   S    
C53   C63   A    
C140  H26   S    
C95   O40   A    
C15   C148  A    
C98   O5    A    
C54   C64   A    
C18   F19   S    
C125  C143  A    
Cu7   O34   S    
C76   O23   A    
C6    C23   A    
C14   C147  A    
C126  C144  A    
C104  C113  S    
Cu7   O13   S    
C28   C45   A    
C68   C138  A    
C37   H3    S    
C22   F24   S    
C35   C128  A    
C67   C137  A    
C107  C116  T    
C129  C147  A    
C92   O35   A    
C91   O31   A    
C4    F32   S    
C134  H19   S    
C138  H24   S    
Cu9   O2    S    
C2    C125  A    
C1    O1    A    
Cu5   O10   S    
C144  F30   S    
C11   C29   A    
C89   O27   A    
Cu1   O16   S    
Cu3   Cu4   S    
C1    C80   S    
C57   C82   A    
C43   C142  A    
C86   C120  S    
C132  H17   S    
C87   O45   A    
C88   C131  S    
C130  H16   S    
Cu12  O29   S    
C70   C85   A    
C18   C36   A    
C124  C142  A    
Cu3   O39   S    
C69   C86   A    
C54   C78   A    
C97   C106  S    
