data_mof_unit_33894.cif
_audit_creation_date              2012-12-10T17:11:04-0500
_audit_creation_method            fapswitch 2.2
_symmetry_space_group_name_H-M    P1
_symmetry_Int_Tables_number       1
_space_group_crystal_system       triclinic
_cell_length_a                    10.031816
_cell_length_b                    10.692078
_cell_length_c                    16.541036
_cell_angle_alpha                 89.840635
_cell_angle_beta                  85.032865
_cell_angle_gamma                 90.026399
_cell_volume                      1767.53712321

loop_
_atom_site_label
_atom_site_type_symbol
_atom_type_description
_atom_site_fract_x
_atom_site_fract_y
_atom_site_fract_z
_atom_type_partial_charge
C1    C     C_R   0.499197 0.737135 0.506877 0.856023
C2    C     C_R   0.529961 0.526193 0.259313 -0.047910
C3    C     C_2   0.609365 0.067211 0.515454 -0.086806
C4    C     C_R   0.481050 0.502411 0.653470 0.930475
C5    C     C_2   0.502390 0.129615 0.494663 -0.288288
C6    C     C_2   0.609125 0.932914 0.511634 -0.247567
C7    C     C_2   0.498225 0.865628 0.532323 -0.183074
C8    C     C_2   0.078037 0.403300 0.480371 -0.146827
C9    C     C_2   0.931721 0.412390 0.467737 -0.155170
C10   C     C_R   0.500370 0.262308 0.498584 0.962362
C11   C     C_R   0.518786 0.502591 0.346277 0.857800
C12   C     C_R   0.367527 0.480715 0.793068 -0.123231
C13   C     C_R   0.466070 0.536656 0.738563 -0.126910
C14   C     C_R   0.533238 0.644598 0.759837 -0.226379
C15   C     C_R   0.505318 0.699428 0.835454 -0.091103
C16   C     C_R   0.413180 0.640389 0.892498 0.007080
C17   C     C_R   0.341211 0.533020 0.871056 -0.021980
C18   C     C_R   0.758192 0.709192 0.107672 0.077977
C19   C     C_R   0.889873 0.670405 0.117452 -0.154215
C20   C     C_R   0.998716 0.743483 0.087242 -0.082819
C21   C     C_R   0.977523 0.855104 0.046243 -0.102377
C22   C     C_R   0.847278 0.894894 0.036461 -0.088504
C23   C     C_R   0.422966 0.537026 0.135031 -0.151482
C24   C     C_R   0.738031 0.823119 0.067621 -0.136994
C25   C     C_2   0.384573 0.911748 0.589098 0.902150
C26   C     C_R   0.886081 0.562327 0.570261 0.272591
C27   C     C_R   0.889316 0.693468 0.570949 -0.193693
C28   C     C_R   0.915024 0.757562 0.641518 -0.102024
C29   C     C_R   0.935522 0.691111 0.712262 -0.056312
C30   C     C_R   0.929373 0.560540 0.712703 -0.143852
C31   C     C_R   0.904326 0.496076 0.642133 -0.125023
C32   C     C_2   0.247651 0.469720 0.932688 0.940317
C33   C     C_2   0.293729 0.367745 0.768595 0.965643
C34   C     C_R   0.422022 0.498116 0.214768 -0.205227
C35   C     C_2   0.576466 0.816808 0.854384 0.968865
C36   C     C_R   0.640745 0.591562 0.222880 -0.242663
C37   C     C_R   0.642428 0.633430 0.142462 0.037244
C38   C     C_R   0.530946 0.606738 0.098625 0.133274
C39   C     C_2   0.419494 0.666853 0.978838 -0.256463
C40   C     C_2   0.531962 0.636448 0.012171 -0.211178
H1    H     H_    0.603297 0.690086 0.715424 0.181552
H2    H     H_    0.623590 0.618210 0.973918 0.182544
H3    H     H_    0.339371 0.510661 0.101468 0.158284
H4    H     H_    0.327413 0.684130 0.016545 0.184836
H5    H     H_    0.908413 0.583509 0.148350 0.127273
H6    H     H_    0.099598 0.713432 0.095607 0.141174
H7    H     H_    0.062000 0.911127 0.022520 0.141544
H8    H     H_    0.830864 0.982007 0.005353 0.166004
H9    H     H_    0.637887 0.857303 0.061272 0.168652
H10   H     H_    0.323480 0.023287 0.683362 0.363677
H11   H     H_    0.873843 0.745597 0.516401 0.136473
H12   H     H_    0.700253 0.114045 0.530270 0.170891
H13   H     H_    0.918700 0.858742 0.641407 0.165509
H14   H     H_    0.955219 0.740797 0.766901 0.177878
H15   H     H_    0.943005 0.509423 0.767918 0.195986
H16   H     H_    0.897909 0.394981 0.643421 0.143909
H17   H     H_    0.086024 0.484018 0.013366 0.337440
H18   H     H_    0.117452 0.276770 0.768611 0.343526
H19   H     H_    0.413394 0.897258 0.913607 0.313219
H20   H     H_    0.414484 0.082470 0.475473 0.137298
H21   H     H_    0.697959 0.891042 0.480632 0.164136
H22   H     H_    0.127317 0.313792 0.470271 0.168749
H23   H     H_    0.106043 0.585525 0.493474 0.193331
H24   H     H_    0.890515 0.341985 0.429901 0.154624
H25   H     H_    0.336021 0.447155 0.241944 0.156071
H26   H     H_    0.722635 0.616130 0.258485 0.157224
N1    N     N_2   0.147950 0.498670 0.499150 -0.180225
N2    N     N_2   0.852290 0.498640 0.499130 -0.137650
O1    O     O_R   0.386960 0.680940 0.500010 -0.574673
O2    O     O_R   0.407750 0.000746 0.648139 -0.744301
O3    O     O_2   0.262442 0.358909 0.948113 -0.606390
O4    O     O_R   0.142792 0.537157 0.972845 -0.829127
O5    O     O_2   0.353421 0.284466 0.730008 -0.610169
O6    O     O_R   0.156054 0.357116 0.789184 -0.808169
O7    O     O_2   0.692547 0.832286 0.827519 -0.603885
O8    O     O_R   0.512891 0.911596 0.901368 -0.753003
O9    O     O_R   0.613100 0.680900 0.499990 -0.629967
O10   O     O_R   0.373570 0.500040 0.615810 -0.590170
O11   O     O_R   0.599710 0.500000 0.615790 -0.612070
O12   O     O_R   0.386900 0.319100 0.500010 -0.609702
O13   O     O_R   0.613040 0.319060 0.499990 -0.624329
O14   O     O_R   0.400290 0.500000 0.384210 -0.613462
O15   O     O_R   0.626430 0.499960 0.384190 -0.616200
O16   O     O_2   0.271886 0.869487 0.585682 -0.633022
Zn1   Zn    Zn3+2 0.349000 0.500030 0.500020 0.987104
Zn2   Zn    Zn3+2 0.651000 0.499970 0.499980 0.943875

loop_
_geom_bond_atom_site_label_1
_geom_bond_atom_site_label_2
_ccdc_geom_bond_type
C22   H8    S    
C9    H24   S    
C1    O9    A    
C19   C20   A    
C3    C6    S    
C23   H3    S    
C32   O4    S    
C35   O7    D    
C26   C27   A    
O12   Zn1   S    
C18   C24   A    
C6    H21   S    
C36   C37   A    
C18   C37   S    
C30   C31   A    
C36   H26   S    
C29   H14   S    
C15   C16   A    
N2    Zn2   S    
C18   C19   A    
C4    C13   S    
C8    C9    S    
C12   C17   A    
C25   O16   D    
C31   H16   S    
C29   C30   A    
O13   Zn2   S    
C2    C34   A    
C40   H2    S    
C26   C31   A    
C13   C14   A    
C2    C11   S    
C34   H25   S    
C15   C35   S    
C27   H11   S    
C32   O3    D    
C11   O14   A    
H23   N1    S    
C35   O8    S    
N1    Zn1   S    
C4    O11   A    
C39   C40   D    
C10   O12   A    
C16   C17   A    
C11   O15   A    
C1    O1    A    
C4    O10   A    
C37   C38   A    
C28   H13   S    
C23   C34   A    
C20   C21   A    
C39   H4    S    
C14   H1    S    
O10   Zn1   S    
C33   O5    D    
O9    Zn2   S    
C22   C24   A    
O14   Zn1   S    
O1    Zn1   S    
H18   O6    S    
C2    C36   A    
C24   H9    S    
C28   C29   A    
C5    H20   S    
C1    C7    S    
C3    C5    D    
C3    H12   S    
C19   H5    S    
C6    C7    D    
C23   C38   A    
C30   H15   S    
C10   O13   A    
C7    C25   S    
C26   N2    S    
H10   O2    S    
C9    N2    D    
C5    C10   S    
C38   C40   S    
H17   O4    S    
C16   C39   S    
C33   O6    S    
O15   Zn2   S    
C12   C13   A    
C8    N1    D    
C27   C28   A    
C17   C32   S    
C14   C15   A    
C25   O2    S    
C12   C33   S    
C21   C22   A    
H19   O8    S    
O11   Zn2   S    
C20   H6    S    
C8    H22   S    
C21   H7    S    
