data_mof_unit_23178.cif
_audit_creation_date              2013-03-05T15:58:34-0500
_audit_creation_method            fapswitch 2.2
_symmetry_space_group_name_H-M    P1
_symmetry_Int_Tables_number       1
_space_group_crystal_system       triclinic
_cell_length_a                    15.172642
_cell_length_b                    13.886726
_cell_length_c                    10.972564
_cell_angle_alpha                 90.422702
_cell_angle_beta                  85.88854
_cell_angle_gamma                 89.17145
_cell_volume                      2305.62789482

loop_
_atom_site_label
_atom_site_type_symbol
_atom_site_description
_atom_site_fract_x
_atom_site_fract_y
_atom_site_fract_z
_atom_type_partial_charge
O1    O     O_R   0.370260 0.582280 0.500030 -0.589719
O2    O     O_R   0.629740 0.417720 0.499970 -0.583321
O3    O     O_R   0.629740 0.582280 0.499970 -0.585109
O4    O     O_R   0.370260 0.417720 0.500030 -0.553745
C1    C     C_R   0.328469 0.500619 0.501565 0.879330
C2    C     C_R   0.671159 0.499392 0.501852 0.878767
O5    O     O_R   0.499980 0.582260 0.316850 -0.539839
O6    O     O_R   0.500020 0.417740 0.683150 -0.550488
O7    O     O_R   0.500020 0.582260 0.683150 -0.522776
O8    O     O_R   0.499980 0.417740 0.316850 -0.569072
C3    C     C_R   0.503463 0.499547 0.259800 0.932138
C4    C     C_R   0.494869 0.500953 0.740757 0.936355
Cu1   Cu    Cu3+1 0.500000 0.597420 0.500000 1.062219
Cu2   Cu    Cu3+1 0.500000 0.402580 0.500000 1.057969
C5    C     C_3   0.468362 0.584408 0.050580 0.209803
C6    C     C_3   0.527512 0.418558 0.952268 0.153798
C7    C     C_3   0.547364 0.573519 0.955289 0.239293
C8    C     C_3   0.447891 0.429756 0.047747 0.193471
C9    C     C_3   0.414253 0.516050 0.974774 0.161596
C10   C     C_3   0.581335 0.487683 0.027813 0.153933
C11   C     C_3   0.493625 0.504406 0.877434 -0.400433
C12   C     C_3   0.502245 0.498610 0.124539 -0.401635
C13   C     C_R   0.820587 0.490327 0.394213 0.094564
C14   C     C_R   0.178400 0.512698 0.611186 0.098124
C15   C     C_R   0.768405 0.499932 0.504238 -0.164439
C16   C     C_R   0.230751 0.503847 0.500677 -0.175579
C17   C     C_R   0.808961 0.513449 0.614644 0.272988
C18   C     C_R   0.189907 0.500252 0.389496 0.275060
C19   C     C_R   0.900487 0.532126 0.612650 -0.098199
C20   C     C_R   0.097647 0.515880 0.387382 -0.097254
C21   C     C_R   0.952405 0.524676 0.500603 0.002370
C22   C     C_R   0.045715 0.525636 0.499146 -0.000105
C23   C     C_R   0.911827 0.508812 0.390863 0.042599
C24   C     C_R   0.086523 0.529702 0.610281 0.049464
C25   C     C_R   0.942475 0.555889 0.719999 0.351243
C26   C     C_R   0.054919 0.519970 0.276785 0.354904
C27   C     C_R   0.034455 0.550009 0.718644 -0.215409
C28   C     C_R   0.963411 0.511285 0.279757 -0.218902
H1    H     H_    0.064929 0.564725 0.802741 0.216678
H2    H     H_    0.932864 0.510304 0.193799 0.218133
C29   C     C_R   0.443735 0.795774 0.581995 0.384986
C30   C     C_R   0.561225 0.203533 0.426852 0.411162
C31   C     C_R   0.555816 0.792646 0.417130 0.388187
C32   C     C_R   0.434449 0.208136 0.565449 0.417050
N1    N     N_R   0.500000 0.743810 0.500000 -0.192597
N2    N     N_R   0.500000 0.256190 0.500000 -0.215589
C33   C     C_R   0.564010 0.895347 0.426766 -0.172918
C34   C     C_R   0.428624 0.104962 0.559184 -0.163702
C35   C     C_R   0.434383 0.898459 0.571605 -0.173379
C36   C     C_R   0.567256 0.101241 0.436349 -0.139347
C37   C     C_R   0.499039 0.948238 0.499276 -0.001046
C38   C     C_R   0.498538 0.051385 0.499015 -0.034275
C39   C     C_R   0.635164 0.947160 0.367827 0.253817
C40   C     C_R   0.355882 0.053916 0.612518 0.274714
C41   C     C_R   0.362037 0.953205 0.628360 0.271668
C42   C     C_R   0.639642 0.048036 0.380919 0.283298
N3    N     N_R   0.322501 0.539605 0.956578 0.147307
O9    O     O_R   0.261258 0.480313 0.993814 -0.232135
O10   O     O_R   0.300354 0.628908 0.939522 -0.309855
N4    N     N_R   0.673703 0.470012 0.048926 0.145702
O11   O     O_R   0.730073 0.539043 0.032085 -0.255829
O12   O     O_R   0.703220 0.381809 0.049983 -0.320186
N5    N     N_R   0.434767 0.677239 0.100025 0.191648
O13   O     O_R   0.458398 0.756907 0.046220 -0.287848
O14   O     O_R   0.371733 0.680400 0.186694 -0.222962
N6    N     N_R   0.562924 0.327060 0.901819 0.169863
O15   O     O_R   0.534978 0.245954 0.947195 -0.360889
O16   O     O_R   0.627646 0.326063 0.817561 -0.212987
N7    N     N_R   0.600027 0.657271 0.917692 0.239069
O17   O     O_R   0.640775 0.704652 0.998883 -0.258782
O18   O     O_R   0.594125 0.695124 0.810623 -0.260090
N8    N     N_R   0.393290 0.348893 0.092378 0.225493
O19   O     O_R   0.337496 0.309885 0.023419 -0.299694
O20   O     O_R   0.399146 0.314424 0.201164 -0.277192
N9    N     N_2   0.784274 0.442879 0.294750 -0.479968
H3    H     H_    0.792537 0.479663 0.214246 0.311617
C43   C     C_3   0.812067 0.342673 0.283129 -0.439911
H4    H     H_    0.773908 0.304903 0.215916 0.274048
H5    H     H_    0.800728 0.306071 0.372256 0.266784
H6    H     H_    0.883205 0.336390 0.252063 0.237408
N10   N     N_2   0.216066 0.487133 0.721353 -0.478551
H7    H     H_    0.209539 0.540539 0.786760 0.303760
C44   C     C_3   0.188547 0.393973 0.767934 -0.458026
H8    H     H_    0.238683 0.365068 0.826402 0.263075
H9    H     H_    0.180863 0.341628 0.692473 0.229652
H10   H     H_    0.124759 0.400576 0.823796 0.259676
N11   N     N_R   0.761923 0.487831 0.727155 0.170476
O21   O     O_R   0.794597 0.422748 0.796558 -0.225608
O22   O     O_R   0.683223 0.522048 0.754906 -0.316815
N12   N     N_R   0.239376 0.463681 0.283212 0.166340
O23   O     O_R   0.214973 0.385035 0.230840 -0.228345
O24   O     O_R   0.311453 0.505328 0.243140 -0.303004
N13   N     N_R   0.893692 0.592639 0.828067 0.183846
O25   O     O_R   0.831967 0.657654 0.818544 -0.223568
O26   O     O_R   0.920216 0.573761 0.935624 -0.266012
N14   N     N_R   0.101880 0.541222 0.162177 0.187551
O27   O     O_R   0.155871 0.613261 0.155433 -0.211292
O28   O     O_R   0.077654 0.502727 0.061614 -0.290268
N15   N     N_2   0.407704 0.749687 0.689517 -0.391035
H11   H     H_    0.417222 0.785708 0.769959 0.302187
C45   C     C_3   0.322121 0.705433 0.687186 -0.416691
H12   H     H_    0.275484 0.734885 0.760782 0.275157
H13   H     H_    0.329777 0.628097 0.706541 0.212694
H14   H     H_    0.292284 0.716654 0.598736 0.232131
N16   N     N_2   0.612128 0.248607 0.329857 -0.453522
H15   H     H_    0.628697 0.318933 0.339136 0.297698
C46   C     C_3   0.591078 0.223494 0.207007 -0.433222
H16   H     H_    0.651386 0.196722 0.153781 0.273086
H17   H     H_    0.567294 0.288536 0.161362 0.260130
H18   H     H_    0.539392 0.167579 0.205644 0.234819
N17   N     N_2   0.589033 0.744598 0.307233 -0.399151
H19   H     H_    0.577001 0.780982 0.228409 0.301235
C47   C     C_3   0.674525 0.695861 0.301873 -0.402471
H20   H     H_    0.717791 0.722082 0.223804 0.274448
H21   H     H_    0.666273 0.618126 0.283452 0.198518
H22   H     H_    0.708705 0.706982 0.386894 0.232161
N18   N     N_2   0.376604 0.262591 0.646539 -0.429195
H23   H     H_    0.314201 0.275624 0.619374 0.284810
C48   C     C_3   0.383715 0.245290 0.774771 -0.475175
H24   H     H_    0.320312 0.219224 0.817561 0.259995
H25   H     H_    0.399579 0.314182 0.818005 0.253043
H26   H     H_    0.435985 0.190974 0.790871 0.257039
N19   N     N_R   0.709644 0.898368 0.307586 0.123872
O29   O     O_R   0.719780 0.899954 0.188819 -0.257979
O30   O     O_R   0.777291 0.877414 0.369447 -0.278153
N20   N     N_R   0.270725 0.100558 0.632128 0.128183
O31   O     O_R   0.224219 0.092963 0.735841 -0.251632
O32   O     O_R   0.233692 0.137278 0.539345 -0.299111
N21   N     N_R   0.287859 0.907451 0.689144 0.120383
O33   O     O_R   0.278065 0.911394 0.807914 -0.263509
O34   O     O_R   0.219817 0.888217 0.627892 -0.275954
N22   N     N_R   0.722914 0.094365 0.354678 0.155721
O35   O     O_R   0.766133 0.084694 0.248449 -0.256443
O36   O     O_R   0.759631 0.138893 0.442144 -0.308372

loop_
_geom_bond_atom_site_label_1
_geom_bond_atom_site_label_2
_geom_bond_distance
_ccdc_geom_bond_type
N6    O16   1.299426 A    
N11   O21   1.301481 A    
N5    O14   1.299516 A    
C7    N7    1.465615 S    
N13   O25   1.301567 A    
C17   C19   1.415052 A    
C24   C27   1.404035 A    
N17   H19   1.031062 S    
N9    H3    1.024478 S    
O3    C2    1.304432 A    
N10   H7    1.027002 S    
N12   O23   1.301168 A    
N19   O29   1.301610 A    
Cu2   N2    2.032878 S    
C43   H4    1.103863 S    
C9    N3    1.453440 S    
C34   C40   1.413934 A    
N16   C46   1.448686 S    
C6    C11   1.554689 S    
O1    C1    1.306849 A    
C9    C11   1.557118 S    
C14   C16   1.404707 A    
N21   O33   1.301687 A    
N7    O17   1.300333 A    
N18   C48   1.440536 S    
N3    O10   1.298560 A    
C2    C15   1.477720 S    
C7    C10   1.541027 S    
C13   C23   1.409538 A    
N4    O12   1.298478 A    
C8    C9    1.546839 S    
C30   N2    1.380808 A    
N7    O18   1.298989 A    
O7    Cu1   2.022186 S    
C5    C9    1.541360 S    
C5    C12   1.548800 S    
C44   H8    1.102866 S    
N22   O35   1.300846 A    
C35   C37   1.409298 A    
N14   O28   1.301374 A    
C36   C38   1.401536 A    
C46   H16   1.107661 S    
C29   N15   1.424477 S    
C10   N4    1.454456 S    
O3    Cu1   1.976645 S    
C6    C10   1.543843 S    
C33   C39   1.425027 A    
C47   H22   1.110253 S    
C43   H5    1.109085 S    
N6    O15   1.299247 A    
N13   O26   1.301197 A    
Cu1   Cu2   2.705688 S    
C46   H17   1.104546 S    
O2    C2    1.305292 A    
C31   N17   1.429882 S    
C29   C35   1.437133 A    
N10   C44   1.450518 S    
C32   N2    1.368969 A    
C25   N13   1.438298 S    
C8    N8    1.471031 S    
C27   H1    1.080810 S    
C37   C38   1.432307 A    
C20   C22   1.413871 A    
C45   H12   1.106763 S    
N8    O20   1.297791 A    
O8    Cu2   2.022187 S    
N8    O19   1.296789 A    
C33   C37   1.415000 A    
C41   N21   1.426369 S    
C35   C41   1.428820 A    
C4    C11   1.498862 S    
C36   C42   1.412865 A    
N5    O13   1.300702 A    
N4    O11   1.299325 A    
C22   C24   1.407782 A    
O5    C3    1.302636 A    
C14   N10   1.418943 S    
O7    C4    1.298658 A    
C40   N20   1.438439 S    
C26   N14   1.435005 S    
N12   O24   1.294921 A    
C21   C22   1.414951 A    
C34   C38   1.408613 A    
O6    C4    1.311671 A    
N14   O27   1.301322 A    
C21   C23   1.408486 A    
N17   C47   1.451603 S    
C17   N11   1.430897 S    
C31   N1    1.385361 A    
C42   N22   1.437779 S    
C48   H25   1.102065 S    
C30   C36   1.427174 A    
N22   O36   1.300637 A    
N15   C45   1.446411 S    
C10   C12   1.548937 S    
C45   H14   1.111002 S    
N11   O22   1.293708 A    
C39   N19   1.427290 S    
C46   H18   1.112314 S    
O1    Cu1   1.982692 S    
N20   O32   1.301379 A    
Cu1   N1    2.032878 S    
C47   H20   1.108240 S    
C45   H13   1.102381 S    
C39   C42   1.410241 A    
C5    C7    1.538069 S    
C40   C41   1.413160 A    
O6    Cu2   2.019098 S    
C25   C27   1.395795 A    
C8    C12   1.553991 S    
C13   N9    1.419469 S    
O4    C1    1.305623 A    
C48   H24   1.106671 S    
C15   C17   1.410091 A    
N16   H15   1.018135 S    
C19   C25   1.417790 A    
C3    C12   1.485568 S    
C16   C18   1.408257 A    
C23   C28   1.401642 A    
N15   H11   1.031506 S    
C20   C26   1.417377 A    
C18   C20   1.415298 A    
C19   C21   1.414085 A    
C29   N1    1.386155 A    
N18   H23   1.026822 S    
C28   H2    1.080398 S    
C43   H6    1.110351 S    
N3    O9    1.296528 A    
C32   N18   1.411635 S    
N20   O31   1.301090 A    
C26   C28   1.393455 A    
C48   H26   1.110783 S    
C13   C15   1.399855 A    
O4    Cu2   1.976645 S    
C44   H9    1.111294 S    
O2    Cu2   1.982692 S    
C30   N16   1.423707 S    
C14   C24   1.411246 A    
N19   O30   1.301171 A    
O8    C3    1.301031 A    
C1    C16   1.483414 S    
O5    Cu1   2.019099 S    
C44   H10   1.110102 S    
C6    N6    1.461774 S    
C6    C8    1.546564 S    
N9    C43   1.450237 S    
C5    N5    1.465266 S    
C18   N12   1.426906 S    
C47   H21   1.107323 S    
C31   C33   1.437145 A    
C32   C34   1.438195 A    
N21   O34   1.301409 A    
C7    C11   1.557594 S    
