data_mof_unit_54593.cif
_audit_creation_date              2012-12-10T19:06:26-0500
_audit_creation_method            fapswitch 2.2
_symmetry_space_group_name_H-M    P1
_symmetry_Int_Tables_number       1
_space_group_crystal_system       triclinic
_cell_length_a                    23.469841
_cell_length_b                    10.845334
_cell_length_c                    9.587329
_cell_angle_alpha                 90.760183
_cell_angle_beta                  89.872169
_cell_angle_gamma                 91.278099
_cell_volume                      2439.51564584

loop_
_atom_site_label
_atom_site_type_symbol
_atom_type_description
_atom_site_fract_x
_atom_site_fract_y
_atom_site_fract_z
_atom_type_partial_charge
C1    C     C_R   0.498219 0.262620 0.499030 0.777756
C2    C     C_R   0.969676 0.266251 0.486239 -0.146490
C3    C     C_R   0.028717 0.271046 0.501876 -0.143517
C4    C     C_R   0.059187 0.383417 0.488734 -0.015258
C5    C     C_R   0.029870 0.491986 0.458301 -0.020114
C6    C     C_R   0.060255 0.604564 0.437234 -0.059362
C7    C     C_R   0.029341 0.710634 0.399579 -0.043627
C8    C     C_R   0.970073 0.702491 0.384123 -0.189860
C9    C     C_R   0.118551 0.389226 0.501991 0.546449
C10   C     C_R   0.120281 0.604750 0.452243 0.533628
C11   C     C_R   0.239953 0.499101 0.365383 -0.093268
C12   C     C_R   0.390909 0.500007 0.499892 0.798265
C13   C     C_R   0.299229 0.499095 0.369221 -0.191441
C14   C     C_R   0.328108 0.500230 0.497698 -0.057158
C15   C     C_R   0.296377 0.501617 0.622266 -0.190795
C16   C     C_R   0.236862 0.501004 0.618058 -0.085912
C17   C     C_R   0.208606 0.499864 0.489509 0.348488
C18   C     C_R   0.758704 0.384177 0.540804 0.023583
C19   C     C_R   0.698566 0.381337 0.529645 -0.089678
C20   C     C_R   0.670761 0.492200 0.501368 -0.122272
C21   C     C_R   0.702139 0.602641 0.498646 -0.183537
C22   C     C_R   0.761492 0.602638 0.503663 0.021657
C23   C     C_R   0.498975 0.737852 0.500544 0.803701
C24   C     C_R   0.790674 0.489083 0.494060 0.141436
C25   C     C_R   0.484539 0.066178 0.620992 0.120846
C26   C     C_R   0.491618 0.129705 0.496791 -0.090288
C27   C     C_R   0.490547 0.062657 0.370450 -0.187110
C28   C     C_R   0.491106 0.934032 0.371921 -0.194256
C29   C     C_R   0.493017 0.871256 0.499620 -0.097365
C30   C     C_R   0.485158 0.939226 0.622874 0.140986
C31   C     C_3   0.517267 0.941115 0.757294 -0.477863
C32   C     C_3   0.516177 0.080471 0.754777 -0.443619
C33   C     C_R   0.545978 0.545350 0.074040 0.207884
C34   C     C_R   0.608649 0.498477 0.499981 0.789139
C35   C     C_R   0.458102 0.441621 0.075558 -0.050412
C36   C     C_R   0.458002 0.438988 0.927053 0.061438
C37   C     C_R   0.546234 0.544266 0.926710 0.187724
C38   C     C_3   0.571042 0.671362 0.921845 -0.325335
C39   C     C_3   0.570324 0.673487 0.081549 -0.321895
C40   C     C_R   0.880466 0.583397 0.399018 0.567483
C41   C     C_R   0.880184 0.373053 0.449284 0.553949
C42   C     C_R   0.939814 0.374300 0.461013 -0.022349
C43   C     C_R   0.969922 0.486863 0.446485 -0.012223
C44   C     C_R   0.940108 0.591948 0.409614 -0.032700
Cu1   Cu    Cu3+1 0.500000 0.499980 0.640670 0.937051
Cu2   Cu    Cu3+1 0.500000 0.500020 0.359330 0.954602
H1    H     H_    0.947399 0.178356 0.497322 0.194294
H2    H     H_    0.680009 0.689501 0.499867 0.157188
H3    H     H_    0.492424 0.108930 0.271065 0.168032
H4    H     H_    0.492846 0.884876 0.273189 0.158239
H5    H     H_    0.491081 0.903147 0.844072 0.196231
H6    H     H_    0.561046 0.905134 0.745576 0.209247
H7    H     H_    0.489528 0.121006 0.838938 0.193764
H8    H     H_    0.559106 0.124378 0.741753 0.214097
H9    H     H_    0.424547 0.394954 0.133365 0.179456
H10   H     H_    0.050409 0.186294 0.523478 0.200176
H11   H     H_    0.540809 0.734578 0.875526 0.164261
H12   H     H_    0.540171 0.740790 0.126254 0.157988
H13   H     H_    0.947113 0.784107 0.355564 0.192028
H14   H     H_    0.218234 0.497941 0.265814 0.146815
H15   H     H_    0.322345 0.498059 0.271332 0.174200
H16   H     H_    0.317420 0.503329 0.722596 0.190998
H17   H     H_    0.212703 0.501707 0.714397 0.148636
N1    N     N_R   0.851120 0.482302 0.450852 -0.446698
N2    N     N_R   0.147584 0.498430 0.483888 -0.471129
N3    N     N_R   0.500360 0.500930 0.147930 -0.214131
N4    N     N_R   0.500360 0.500890 0.852020 -0.233266
O1    O     O_R   0.500000 0.319640 0.618810 -0.616025
O2    O     O_2   0.852777 0.264350 0.425543 -0.508034
O3    O     O_2   0.147274 0.286254 0.531048 -0.512176
O4    O     O_2   0.151484 0.709387 0.435230 -0.513809
O5    O     O_R   0.500010 0.319680 0.381230 -0.579915
O6    O     O_R   0.417880 0.499940 0.618820 -0.601348
O7    O     O_R   0.417880 0.499980 0.381240 -0.584580
O8    O     O_R   0.499990 0.680320 0.618770 -0.577624
O9    O     O_R   0.500000 0.680360 0.381190 -0.585778
O10   O     O_R   0.582120 0.500020 0.618760 -0.579211
O11   O     O_R   0.582120 0.500060 0.381180 -0.562332
O12   O     O_2   0.853139 0.670880 0.328356 -0.513159
C45   C     C_2   0.664715 0.265033 0.551945 0.375829
H18   H     H_    0.619060 0.267324 0.568016 0.055469
O13   O     O_2   0.687221 0.164595 0.548997 -0.507012
C46   C     C_1   0.789330 0.716367 0.549323 0.352589
N5    N     N_1   0.811392 0.807478 0.586485 -0.211305
C47   C     C_2   0.412206 0.364035 0.858967 0.342183
H19   H     H_    0.418227 0.320596 0.758673 0.136582
O14   O     O_2   0.366550 0.346289 0.917606 -0.576394
C48   C     C_1   0.627716 0.675021 0.855255 0.333389
N6    N     N_1   0.672422 0.678433 0.804257 -0.280946
C49   C     C_1   0.626605 0.678782 0.149447 0.342080
N7    N     N_1   0.671056 0.683557 0.201329 -0.242292
C50   C     C_1   0.056175 0.829678 0.375058 0.353104
N8    N     N_1   0.077396 0.925260 0.355379 -0.224704
C51   C     C_1   0.784224 0.300815 0.638572 0.394546
N9    N     N_1   0.804440 0.234574 0.717175 -0.217915

loop_
_geom_bond_atom_site_label_1
_geom_bond_atom_site_label_2
_ccdc_geom_bond_type
C12   O7    A    
C41   C42   A    
C19   C20   A    
C23   O9    A    
Cu2   O9    S    
C36   N4    A    
C7    C8    A    
C47   H19   S    
C26   C27   A    
C29   C30   A    
C18   C24   A    
C5    C6    A    
C23   C29   S    
C21   C22   A    
C28   C29   A    
Cu2   N3    S    
C34   O10   A    
C30   C31   S    
C15   C16   A    
C1    O1    A    
Cu1   O6    S    
C18   C19   A    
C28   H4    S    
C46   N5    T    
C16   C17   A    
Cu1   N4    S    
C16   H17   S    
C31   H6    S    
C39   C49   S    
Cu2   O5    S    
C21   H2    S    
C20   C34   S    
C10   O4    S    
C25   C32   S    
C5    C43   A    
C24   N1    S    
C12   O6    A    
C19   C45   S    
C32   H8    S    
C33   N3    A    
C47   O14   D    
C1    O5    A    
C35   H9    S    
C9    O3    S    
C45   O13   D    
C31   H5    S    
Cu2   O11   S    
C45   H18   S    
C35   N3    A    
C25   C26   A    
Cu1   Cu2   S    
C39   H12   S    
C33   C37   A    
C3    C4    A    
C38   C48   S    
C35   C36   A    
C43   C44   A    
C37   C38   S    
C38   H11   S    
C3    H10   S    
C31   C32   S    
Cu1   O1    S    
C40   O12   S    
C33   C39   S    
C20   C21   A    
C12   C14   S    
C1    C26   S    
C2    H1    S    
C22   C24   A    
C42   C43   A    
C11   H14   S    
C32   H7    S    
Cu2   O7    S    
C41   O2    S    
C10   N2    A    
C25   C30   A    
C11   C17   A    
C8    C44   A    
C23   O8    A    
C4    C5    A    
C6    C10   A    
C6    C7    A    
C36   C47   S    
C17   N2    S    
C40   N1    A    
Cu1   O8    S    
C22   C46   S    
C2    C3    A    
C8    H13   S    
C34   O11   A    
C11   C13   A    
C49   N7    T    
C38   C39   S    
C2    C42   A    
C18   C51   S    
C7    C50   S    
C37   N4    A    
C50   N8    T    
C15   H16   S    
C51   N9    T    
C9    N2    A    
C40   C44   A    
C13   H15   S    
C48   N6    T    
C27   C28   A    
C14   C15   A    
Cu1   O10   S    
C41   N1    A    
C4    C9    A    
C13   C14   A    
C27   H3    S    
