data_mof_unit_33120.cif
_audit_creation_date              2013-03-05T16:03:41-0500
_audit_creation_method            fapswitch 2.2
_symmetry_space_group_name_H-M    P1
_symmetry_Int_Tables_number       1
_space_group_crystal_system       triclinic
_cell_length_a                    8.724214
_cell_length_b                    10.784694
_cell_length_c                    9.58168
_cell_angle_alpha                 91.08141
_cell_angle_beta                  98.2707
_cell_angle_gamma                 90.39908
_cell_volume                      891.943023071

loop_
_atom_site_label
_atom_site_type_symbol
_atom_site_description
_atom_site_fract_x
_atom_site_fract_y
_atom_site_fract_z
_atom_type_partial_charge
O1    O     O_R   0.499990 0.319660 0.618740 -0.571143
O2    O     O_R   0.500010 0.680340 0.381260 -0.571139
O3    O     O_R   0.499990 0.319630 0.381170 -0.552686
O4    O     O_R   0.500010 0.680370 0.618830 -0.552684
C1    C     C_R   0.503556 0.262531 0.499458 0.870721
C2    C     C_R   0.496441 0.737469 0.500541 0.870760
O5    O     O_R   0.274840 0.500010 0.591370 -0.600467
O6    O     O_R   0.725160 0.499990 0.408630 -0.600462
O7    O     O_R   0.274830 0.499980 0.353800 -0.520297
O8    O     O_R   0.725170 0.500020 0.646200 -0.520302
C3    C     C_R   0.203844 0.499574 0.463628 0.918260
C4    C     C_R   0.796156 0.500424 0.536372 0.918241
Cu1   Cu    Cu3+1 0.500000 0.500020 0.640660 1.067929
Cu2   Cu    Cu3+1 0.500000 0.499980 0.359340 1.067929
N1    N     N_R   0.500040 0.500030 0.852080 -0.252615
N2    N     N_R   0.499960 0.499970 0.147920 -0.252616
C5    C     C_2   0.037624 0.499713 0.443897 -0.285272
C6    C     C_2   0.962376 0.500284 0.556103 -0.285287
C7    C     C_R   0.399288 0.064545 0.401088 -0.203447
C8    C     C_R   0.600694 0.935456 0.598915 -0.203461
H1    H     H_    0.316943 0.115458 0.328952 0.236916
H2    H     H_    0.683040 0.884548 0.671056 0.236906
C9    C     C_R   0.389551 0.935769 0.401822 0.340178
C10   C     C_R   0.610425 0.064231 0.598183 0.340179
C11   C     C_R   0.492306 0.871401 0.501745 -0.198066
C12   C     C_R   0.507681 0.128599 0.498255 -0.198068
C13   C     C_R   0.424849 0.408183 0.060620 0.445170
C14   C     C_R   0.575149 0.591818 0.939380 0.445164
C15   C     C_R   0.425701 0.408905 0.912781 -0.094669
C16   C     C_R   0.574298 0.591095 0.087219 -0.094685
H3    H     H_    0.365199 0.336359 0.846725 0.190098
H4    H     H_    0.634799 0.663642 0.153275 0.190100
H5    H     H_    0.977010 0.499536 0.336499 0.203067
H6    H     H_    0.022990 0.500461 0.663501 0.203065
N3    N     N_R   0.271817 0.872867 0.304845 0.141675
O9    O     O_R   0.194270 0.780442 0.346399 -0.362789
O10   O     O_R   0.227275 0.918214 0.180793 -0.251458
N4    N     N_R   0.728134 0.127136 0.695180 0.141663
O11   O     O_R   0.805764 0.219507 0.653621 -0.362767
O12   O     O_R   0.772533 0.081858 0.819304 -0.251427
N5    N     N_R   0.345550 0.308460 0.116173 0.128292
O13   O     O_R   0.384861 0.195291 0.089323 -0.317310
O14   O     O_R   0.209654 0.327636 0.152520 -0.332082
N6    N     N_R   0.654440 0.691546 0.883827 0.128290
O15   O     O_R   0.615129 0.804713 0.910690 -0.317315
O16   O     O_R   0.790328 0.672374 0.847457 -0.332087

loop_
_geom_bond_atom_site_label_1
_geom_bond_atom_site_label_2
_geom_bond_distance
_ccdc_geom_bond_type
C10   N4    1.438920 S    
O7    Cu2   1.957501 S    
C13   C15   1.417804 A    
C6    H6    1.087176 S    
N5    O13   1.301070 A    
C13   N5    1.426824 S    
C7    C9    1.391025 A    
N3    O9    1.301099 A    
Cu1   N1    2.025708 S    
O6    C4    1.289737 A    
N2    C13   1.382387 A    
C14   C16   1.417801 A    
C5    C6    1.337811 D    
C15   H3    1.082025 S    
Cu1   Cu2   2.695510 S    
O5    C3    1.289736 A    
O7    C3    1.295609 A    
N1    C14   1.382390 A    
O2    C2    1.292577 A    
O3    Cu2   1.960156 S    
O8    C4    1.295610 A    
O1    C1    1.292574 A    
C5    H5    1.087175 S    
N4    O12   1.301910 A    
C10   C12   1.410314 A    
N1    C15   1.358642 A    
C9    N3    1.438934 S    
C9    C11   1.410336 A    
N4    O11   1.301076 A    
O2    Cu2   1.952488 S    
Cu2   N2    2.025706 S    
C2    C11   1.444982 S    
O1    Cu1   1.952487 S    
C8    C11   1.396992 A    
N2    C16   1.358641 A    
C1    C12   1.444979 S    
C16   H4    1.082025 S    
O5    Cu1   1.953149 S    
N6    O15   1.301076 A    
N3    O10   1.301808 A    
O4    C2    1.296627 A    
C4    C6    1.435202 S    
O4    Cu1   1.960157 S    
C7    C12   1.396986 A    
C3    C5    1.435202 S    
O6    Cu2   1.953147 S    
N6    O16   1.299685 A    
C7    H1    1.082722 S    
C14   N6    1.426826 S    
N5    O14   1.299673 A    
C8    C10   1.391008 A    
C8    H2    1.082726 S    
O3    C1    1.296626 A    
O8    Cu1   1.957499 S    
