data_mof_unit_26561.cif
_audit_creation_date              2012-12-10T17:41:51-0500
_audit_creation_method            fapswitch 2.2
_symmetry_space_group_name_H-M    P1
_symmetry_Int_Tables_number       1
_space_group_crystal_system       triclinic
_cell_length_a                    13.77893
_cell_length_b                    13.852196
_cell_length_c                    15.066641
_cell_angle_alpha                 87.109088
_cell_angle_beta                  88.211299
_cell_angle_gamma                 86.12909
_cell_volume                      2864.4182101

loop_
_atom_site_label
_atom_site_type_symbol
_atom_type_description
_atom_site_fract_x
_atom_site_fract_y
_atom_site_fract_z
_atom_type_partial_charge
C1    C     C_R   0.501463 0.499762 0.329171 0.889833
C2    C     C_R   0.498945 0.496744 0.671430 0.812978
C3    C     C_R   0.495603 0.497405 0.954785 -0.133484
C4    C     C_R   0.499988 0.496017 0.048065 -0.111836
C5    C     C_R   0.496117 0.409324 0.912590 -0.057597
C6    C     C_R   0.501029 0.584770 0.090115 -0.127574
C7    C     C_R   0.509724 0.672868 0.945273 0.078666
C8    C     C_R   0.490250 0.318911 0.055882 0.052620
C9    C     C_R   0.515057 0.671274 0.038594 0.425011
C10   C     C_R   0.480616 0.323205 0.962740 0.512470
C11   C     C_R   0.793414 0.564101 0.444406 0.295315
C12   C     C_R   0.205720 0.440417 0.559150 0.324903
C13   C     C_R   0.795511 0.429343 0.548181 -0.003142
C14   C     C_R   0.206139 0.552674 0.435274 -0.011718
C15   C     C_R   0.899322 0.422332 0.545889 -0.039523
C16   C     C_R   0.103190 0.550082 0.428629 -0.040615
C17   C     C_R   0.949567 0.485853 0.487074 -0.034369
C18   C     C_R   0.052927 0.486118 0.486943 -0.039304
C19   C     C_R   0.896298 0.549638 0.428626 -0.026305
C20   C     C_R   0.106108 0.422842 0.545776 -0.022818
C21   C     C_R   0.953952 0.349640 0.596270 0.174195
C22   C     C_R   0.050286 0.604634 0.361685 0.190564
C23   C     C_R   0.514870 0.317643 0.495313 0.790272
C24   C     C_R   0.485233 0.682749 0.500892 0.856170
C25   C     C_R   0.057541 0.345003 0.589559 0.178414
C26   C     C_R   0.947998 0.596846 0.357047 0.179986
C27   C     C_1   0.478181 0.784907 0.507797 -0.194988
C28   C     C_1   0.522546 0.215411 0.488686 -0.181761
C29   C     C_2   0.469612 0.974573 0.524032 0.373926
C30   C     C_2   0.536035 0.024912 0.477604 0.376732
C31   C     C_1   0.529255 0.129237 0.482996 -0.089138
C32   C     C_1   0.473298 0.870817 0.515137 -0.071332
C33   C     C_R   0.512941 0.407925 0.820588 0.383799
C34   C     C_R   0.490419 0.584457 0.183262 0.322518
C35   C     C_R   0.495554 0.495366 0.768745 -0.200659
C36   C     C_R   0.505211 0.497190 0.232936 -0.172262
C37   C     C_R   0.472984 0.583033 0.811230 0.105995
C38   C     C_R   0.522994 0.408622 0.191529 0.101679
C39   C     C_R   0.491604 0.586247 0.903286 0.064575
C40   C     C_R   0.505617 0.406026 0.099099 0.060670
Cu1   Cu    Cu3+1 0.597420 0.500010 0.499990 0.938249
Cu2   Cu    Cu3+1 0.402580 0.499990 0.500010 0.931847
H1    H     H_    0.754765 0.379314 0.589243 0.157237
H2    H     H_    0.247244 0.597613 0.389582 0.150001
N1    N     N_R   0.743820 0.499960 0.499930 -0.186394
N2    N     N_R   0.256180 0.500040 0.500070 -0.183716
O1    O     O_R   0.582280 0.500030 0.370250 -0.588399
O2    O     O_R   0.417720 0.499970 0.629750 -0.598045
O3    O     O_R   0.417740 0.500020 0.370270 -0.589311
O4    O     O_R   0.582260 0.499980 0.629730 -0.565829
O5    O     O_R   0.593900 0.362160 0.500010 -0.600468
O6    O     O_R   0.406100 0.637840 0.499990 -0.580835
O7    O     O_R   0.429360 0.362150 0.500030 -0.568322
O8    O     O_R   0.570640 0.637850 0.499970 -0.574879
O9    O     O_3   0.606406 0.975176 0.424945 -0.596543
C41   C     C_3   0.685086 0.031688 0.399179 0.079154
H3    H     H_    0.716318 0.062810 0.457945 0.143233
H4    H     H_    0.661148 0.090833 0.350324 0.155218
C42   C     C_3   0.764885 0.967682 0.355419 -0.795966
H5    H     H_    0.736831 0.936331 0.295777 0.249542
H6    H     H_    0.827272 0.011248 0.334943 0.200430
H7    H     H_    0.790338 0.907957 0.402801 0.248434
O10   O     O_3   0.398779 0.024157 0.576277 -0.604072
C43   C     C_3   0.354930 0.962660 0.641260 0.069290
H8    H     H_    0.410910 0.919234 0.680888 0.143305
H9    H     H_    0.307280 0.913567 0.609275 0.160055
C44   C     C_3   0.292557 0.024041 0.704832 -0.803824
H10   H     H_    0.235703 0.068483 0.667763 0.257737
H11   H     H_    0.256781 0.976434 0.755638 0.200546
H12   H     H_    0.338686 0.072578 0.738872 0.246497
O11   O     O_3   0.567655 0.327513 0.789990 -0.560664
C45   C     C_3   0.524620 0.285056 0.719528 0.121876
H13   H     H_    0.562145 0.309231 0.657806 0.148781
H14   H     H_    0.445409 0.303620 0.715119 0.119487
C46   C     C_3   0.542256 0.175323 0.728873 -0.751965
H15   H     H_    0.508041 0.146251 0.791222 0.283146
H16   H     H_    0.510034 0.141728 0.672449 0.219731
H17   H     H_    0.621610 0.154951 0.728959 0.238046
O12   O     O_3   0.474795 0.669736 0.227428 -0.566047
C47   C     C_3   0.375464 0.701253 0.222325 0.117717
H18   H     H_    0.328679 0.645103 0.252155 0.118017
H19   H     H_    0.354573 0.718320 0.152204 0.157816
C48   C     C_3   0.356761 0.792810 0.273469 -0.758411
H20   H     H_    0.405160 0.849125 0.247059 0.267782
H21   H     H_    0.279898 0.820982 0.266464 0.189085
H22   H     H_    0.370800 0.776754 0.344965 0.239450
C49   C     C_3   0.421498 0.667258 0.759522 -0.862063
H23   H     H_    0.387670 0.722429 0.803519 0.235473
H24   H     H_    0.472303 0.700682 0.710235 0.220298
H25   H     H_    0.359789 0.641459 0.723708 0.240188
C50   C     C_3   0.571024 0.322995 0.244215 -0.858271
H26   H     H_    0.627656 0.284961 0.202519 0.235170
H27   H     H_    0.612263 0.345377 0.300674 0.235645
H28   H     H_    0.516329 0.273829 0.272054 0.231562
C51   C     C_3   0.536255 0.764421 0.893088 -0.810324
H29   H     H_    0.565615 0.749140 0.825633 0.232595
H30   H     H_    0.472263 0.817466 0.889733 0.232466
H31   H     H_    0.595425 0.799467 0.924578 0.240017
C52   C     C_3   0.474311 0.223401 0.106813 -0.830472
H32   H     H_    0.543514 0.189070 0.131897 0.238415
H33   H     H_    0.419322 0.234889 0.161283 0.228012
H34   H     H_    0.446838 0.167733 0.065813 0.243105
O13   O     O_3   0.535283 0.755262 0.078801 -0.548949
C53   C     C_3   0.634081 0.748238 0.103075 0.122642
H35   H     H_    0.683716 0.735927 0.044399 0.113017
H36   H     H_    0.649185 0.688282 0.153701 0.161978
C54   C     C_3   0.657671 0.842193 0.142901 -0.775005
H37   H     H_    0.611104 0.854811 0.203280 0.272206
H38   H     H_    0.735274 0.837693 0.161435 0.185423
H39   H     H_    0.644654 0.903836 0.093754 0.243964
O14   O     O_3   0.450769 0.244435 0.919876 -0.569465
C55   C     C_3   0.348225 0.239758 0.930745 0.038992
H40   H     H_    0.316263 0.275610 0.990696 0.137415
H41   H     H_    0.332269 0.162262 0.939339 0.167719
C56   C     C_3   0.295735 0.282604 0.849024 -0.865382
H42   H     H_    0.316496 0.239320 0.790688 0.249580
H43   H     H_    0.215901 0.280776 0.860696 0.215435
H44   H     H_    0.313379 0.358979 0.835300 0.242886
C57   C     C_3   0.743153 0.659929 0.414399 -0.743797
H45   H     H_    0.683025 0.649616 0.369351 0.256305
H46   H     H_    0.791940 0.711028 0.380747 0.198100
H47   H     H_    0.718821 0.699710 0.473872 0.240914
C58   C     C_3   0.248767 0.409887 0.647457 -0.809392
H48   H     H_    0.263908 0.475426 0.682328 0.236485
H49   H     H_    0.197545 0.375258 0.694792 0.211668
H50   H     H_    0.313571 0.359598 0.638230 0.242860
C59   C     C_3   0.901459 0.276320 0.654943 -0.882399
H51   H     H_    0.852340 0.314673 0.703398 0.237152
H52   H     H_    0.858175 0.232240 0.613307 0.225952
H53   H     H_    0.950625 0.226159 0.694909 0.245730
C60   C     C_3   0.103457 0.668412 0.294247 -0.917469
H54   H     H_    0.154445 0.622723 0.253067 0.221968
H55   H     H_    0.054681 0.712684 0.248964 0.248974
H56   H     H_    0.144351 0.720615 0.329311 0.225078
C61   C     C_3   0.113876 0.249860 0.613964 -0.890234
H57   H     H_    0.189271 0.246986 0.585670 0.252906
H58   H     H_    0.116296 0.237260 0.687238 0.227542
H59   H     H_    0.078631 0.189118 0.585403 0.243683
C62   C     C_3   0.899146 0.621506 0.269033 -0.896794
H60   H     H_    0.827390 0.590047 0.266397 0.238738
H61   H     H_    0.889593 0.701142 0.256140 0.227076
H62   H     H_    0.944303 0.589679 0.214115 0.243800

loop_
_geom_bond_atom_site_label_1
_geom_bond_atom_site_label_2
_ccdc_geom_bond_type
C2    C35   S    
C24   O6    A    
C61   H59   S    
C38   C40   A    
C49   H23   S    
C29   O10   S    
C22   C60   S    
Cu1   Cu2   S    
C51   H29   S    
C24   C27   S    
O9    C41   S    
C60   H56   S    
C11   C57   S    
C6    C9    A    
C53   H36   S    
C51   H31   S    
C61   H57   S    
C14   N2    A    
C11   C19   A    
C7    C39   A    
C35   C37   A    
C8    C52   S    
C29   C32   S    
C45   C46   S    
Cu2   O7    S    
C30   C31   S    
C47   H18   S    
C62   H62   S    
C58   H49   S    
C20   C25   A    
C24   O8    A    
C56   H42   S    
C41   H3    S    
C61   H58   S    
Cu2   N2    S    
C19   C26   A    
C53   H35   S    
C2    O4    A    
C17   C19   A    
C52   H32   S    
C56   H43   S    
C5    C33   A    
C54   H37   S    
C21   C59   S    
C18   C20   A    
C3    C39   A    
C42   H5    S    
C54   H38   S    
C47   C48   S    
C55   H41   S    
C55   H40   S    
C23   O7    A    
C57   H46   S    
C62   H60   S    
C42   H6    S    
C44   H10   S    
C43   C44   S    
C4    C40   A    
C58   H48   S    
O12   C47   S    
C47   H19   S    
C26   C62   S    
C50   H26   S    
C1    O1    A    
C58   H50   S    
C2    O2    A    
C38   C50   S    
C6    C34   A    
C44   H11   S    
C12   N2    A    
C43   H9    S    
C46   H15   S    
C59   H52   S    
C29   C30   D    
C34   O12   S    
C50   H27   S    
C23   O5    A    
C48   H20   S    
C9    O13   S    
C56   H44   S    
C12   C20   A    
C17   C18   A    
Cu1   O1    S    
C10   O14   S    
C16   C18   A    
Cu2   O2    S    
C23   C28   S    
C46   H16   S    
C45   H14   S    
C48   H21   S    
C13   C15   A    
C54   H39   S    
C14   C16   A    
C11   N1    A    
C4    C6    A    
C3    C4    A    
C3    C5    A    
Cu1   O4    S    
C13   H1    S    
C14   H2    S    
C57   H47   S    
C15   C17   A    
C21   C25   A    
C42   H7    S    
C16   C22   A    
O14   C55   S    
C52   H33   S    
C27   C32   T    
C37   C49   S    
C28   C31   T    
C45   H13   S    
C60   H55   S    
C57   H45   S    
C51   H30   S    
C59   H51   S    
C7    C51   S    
C30   O9    S    
C41   C42   S    
C44   H12   S    
C43   H8    S    
C48   H22   S    
C36   C38   A    
C59   H53   S    
C5    C10   A    
C37   C39   A    
C50   H28   S    
C13   N1    A    
C62   H61   S    
C12   C58   S    
C33   C35   A    
C41   H4    S    
C34   C36   A    
C53   C54   S    
C25   C61   S    
C46   H17   S    
Cu1   O8    S    
C33   O11   S    
Cu2   O3    S    
O10   C43   S    
C7    C9    A    
C15   C21   A    
C52   H34   S    
O11   C45   S    
C8    C10   A    
C22   C26   A    
C49   H25   S    
O13   C53   S    
C49   H24   S    
Cu1   N1    S    
C8    C40   A    
C1    O3    A    
Cu1   O5    S    
C55   C56   S    
C60   H54   S    
C1    C36   S    
Cu2   O6    S    
