data_mof_unit_23259.cif
_audit_creation_date              2012-12-10T16:35:13-0500
_audit_creation_method            fapswitch 2.2
_symmetry_space_group_name_H-M    P1
_symmetry_Int_Tables_number       1
_space_group_crystal_system       triclinic
_cell_length_a                    10.870647
_cell_length_b                    10.871358
_cell_length_c                    10.829811
_cell_angle_alpha                 80.665227
_cell_angle_beta                  98.555931
_cell_angle_gamma                 90.199477
_cell_volume                      1248.57000432

loop_
_atom_site_label
_atom_site_type_symbol
_atom_type_description
_atom_site_fract_x
_atom_site_fract_y
_atom_site_fract_z
_atom_type_partial_charge
C1    C     C_R   0.834457 0.471867 0.528035 0.525325
C2    C     C_2   0.468288 0.028776 0.530820 0.249434
C3    C     C_2   0.534362 0.968506 0.461783 0.266572
C4    C     C_2   0.028513 0.537557 0.464170 0.243795
C5    C     C_3   0.274520 0.967841 0.568108 -0.012459
C6    C     C_3   0.206608 0.869159 0.647082 -0.364430
C7    C     C_3   0.699950 0.969358 0.347691 0.003773
C8    C     C_3   0.775458 0.057347 0.265689 -0.359791
C9    C     C_3   0.942153 0.607460 0.260081 -0.017326
C10   C     C_3   0.847017 0.700071 0.178285 -0.365028
C11   C     C_3   0.971412 0.302001 0.719046 -0.011047
C12   C     C_2   0.967994 0.456535 0.541312 0.263736
C13   C     C_3   0.056645 0.202720 0.804937 -0.358808
C14   C     C_3   0.343882 0.606860 0.942800 -0.235382
C15   C     C_3   0.222203 0.537550 0.956566 -0.295565
C16   C     C_3   0.111264 0.607994 0.872086 -0.448612
C17   C     C_2   0.454060 0.531304 0.022633 -0.017797
C18   C     C_2   0.533446 0.465860 0.973324 -0.088158
C19   C     C_R   0.163695 0.526999 0.472297 0.515665
C20   C     C_R   0.525932 0.470353 0.839183 0.485329
C21   C     C_R   0.473827 0.526391 0.159795 0.501872
C22   C     C_R   0.523824 0.834743 0.475373 0.534515
C23   C     C_R   0.475775 0.164178 0.522485 0.522162
H1    H     H_    0.613464 0.416140 0.032109 0.103560
H2    H     H_    0.860352 0.008094 0.251665 0.093747
H3    H     H_    0.719133 0.090496 0.171918 0.157415
H4    H     H_    0.903935 0.512158 0.258996 0.126060
H5    H     H_    0.029444 0.613871 0.217427 0.150607
H6    H     H_    0.882460 0.796281 0.174826 0.152570
H7    H     H_    0.829202 0.678285 0.080570 0.104065
H8    H     H_    0.758226 0.694289 0.217939 0.149363
H9    H     H_    0.881623 0.258120 0.689087 0.133273
H10   H     H_    0.955488 0.376977 0.774220 0.122744
H11   H     H_    0.147344 0.243691 0.836552 0.169485
H12   H     H_    0.258276 0.949518 0.468559 0.133061
H13   H     H_    0.013146 0.164951 0.889332 0.086392
H14   H     H_    0.072913 0.125333 0.753332 0.157569
H15   H     H_    0.103965 0.703986 0.893522 0.149008
H16   H     H_    0.121063 0.612512 0.770816 0.162936
H17   H     H_    0.024295 0.558665 0.889284 0.140947
H18   H     H_    0.229322 0.443447 0.930168 0.176475
H19   H     H_    0.205509 0.525934 0.056581 0.163963
H20   H     H_    0.338784 0.699122 0.973700 0.159708
H21   H     H_    0.354586 0.626904 0.841174 0.151974
H22   H     H_    0.234060 0.060906 0.571303 0.164986
H23   H     H_    0.219896 0.884232 0.747181 0.152699
H24   H     H_    0.105567 0.874351 0.609827 0.111098
H25   H     H_    0.243386 0.775043 0.642629 0.152400
H26   H     H_    0.672500 0.889146 0.298276 0.132565
H27   H     H_    0.760331 0.935775 0.439546 0.141624
H28   H     H_    0.803673 0.138945 0.312398 0.172915
O1    O     O_3   0.500000 0.500000 0.500000 -0.447746
O2    O     O_R   0.597340 0.765700 0.560080 -0.543815
O3    O     O_R   0.548200 0.222430 0.451790 -0.504870
O4    O     O_R   0.441590 0.789440 0.401000 -0.549376
O5    O     O_R   0.412860 0.222430 0.587130 -0.536828
O6    O     O_3   0.402290 0.961653 0.618733 -0.585468
O7    O     O_3   0.593151 0.034015 0.365737 -0.569070
O8    O     O_3   0.964504 0.636866 0.383782 -0.591248
O9    O     O_3   0.028481 0.349061 0.612578 -0.571515
O10   O     O_R   0.441590 0.410520 0.779910 -0.535513
O11   O     O_R   0.548210 0.443940 0.230290 -0.544047
O12   O     O_R   0.787780 0.544200 0.591150 -0.556432
O13   O     O_R   0.222430 0.601350 0.398650 -0.546517
O14   O     O_R   0.767360 0.410530 0.454140 -0.555772
O15   O     O_R   0.222430 0.443930 0.556060 -0.506474
O16   O     O_R   0.597340 0.544190 0.781580 -0.543016
O17   O     O_R   0.412870 0.601350 0.208220 -0.550130
Zn1   Zn    Zn3+2 0.396020 0.396030 0.603970 0.941738
Zn2   Zn    Zn3+2 0.618560 0.587010 0.606350 0.928407
Zn3   Zn    Zn3+2 0.396030 0.620930 0.379070 0.921354
Zn4   Zn    Zn3+2 0.589390 0.396030 0.410610 0.935358

loop_
_geom_bond_atom_site_label_1
_geom_bond_atom_site_label_2
_ccdc_geom_bond_type
C1    O14   A    
C20   O10   A    
C22   O4    A    
O1    Zn4   S    
C4    C12   D    
O14   Zn4   S    
C8    H3    S    
C9    C10   S    
C10   H7    S    
C7    O7    S    
C13   H14   S    
C8    H28   S    
O12   Zn2   S    
C5    O6    S    
C19   O13   A    
O16   Zn2   S    
C9    H4    S    
C2    C3    D    
C9    H5    S    
C2    O6    S    
O11   Zn4   S    
C13   H11   S    
O1    Zn3   S    
C5    H22   S    
C8    H2    S    
C11   C13   S    
C10   H6    S    
C23   O5    A    
C21   O11   A    
C1    C12   S    
C6    H25   S    
C13   H13   S    
O17   Zn3   S    
C18   H1    S    
O2    Zn2   S    
C1    O12   A    
C4    O8    S    
C16   H17   S    
C11   H9    S    
C17   C18   D    
C22   O2    A    
C18   C20   S    
C23   O3    A    
C21   O17   A    
C6    H23   S    
C5    C6    S    
C17   C21   S    
O15   Zn1   S    
O1    Zn2   S    
C6    H24   S    
C16   H16   S    
C11   O9    S    
C12   O9    S    
C3    O7    S    
C5    H12   S    
C11   H10   S    
O3    Zn4   S    
C7    H26   S    
C19   O15   A    
C14   H21   S    
C7    C8    S    
O13   Zn3   S    
O10   Zn1   S    
C2    C23   S    
O5    Zn1   S    
C14   C15   S    
C3    C22   S    
O1    Zn1   S    
C20   O16   A    
C4    C19   S    
C15   H19   S    
C10   H8    S    
C15   H18   S    
O4    Zn3   S    
C15   C16   S    
C7    H27   S    
C16   H15   S    
C14   H20   S    
C9    O8    S    
C14   C17   S    
