data_mof_unit_61359.cif
_audit_creation_date              2012-12-10T21:00:59-0500
_audit_creation_method            fapswitch 2.2
_symmetry_space_group_name_H-M    P1
_symmetry_Int_Tables_number       1
_space_group_crystal_system       triclinic
_cell_length_a                    15.83904
_cell_length_b                    15.082864
_cell_length_c                    10.594927
_cell_angle_alpha                 90.448514
_cell_angle_beta                  89.939525
_cell_angle_gamma                 90.004454
_cell_volume                      2531.02881728

loop_
_atom_site_label
_atom_site_type_symbol
_atom_type_description
_atom_site_fract_x
_atom_site_fract_y
_atom_site_fract_z
_atom_type_partial_charge
C1    C     C_R   0.338896 0.499999 0.499893 0.983788
C2    C     C_R   0.661104 0.500001 0.500107 0.983788
C3    C     C_1   0.824334 0.500007 0.500157 -0.052916
C4    C     C_1   0.175666 0.499993 0.499843 -0.052916
C5    C     C_R   0.956264 0.526954 0.392018 -0.157736
C6    C     C_R   0.043736 0.473046 0.607982 -0.157737
C7    C     C_R   0.043803 0.526943 0.391930 -0.154759
C8    C     C_R   0.956196 0.473057 0.608070 -0.154759
C9    C     C_R   0.913123 0.500011 0.500088 0.155090
C10   C     C_R   0.086876 0.499989 0.499913 0.155090
C11   C     C_R   0.499492 0.499513 0.257162 1.012418
C12   C     C_R   0.500508 0.500487 0.742838 1.012418
C13   C     C_1   0.250514 0.499997 0.499836 -0.113501
C14   C     C_1   0.749486 0.500003 0.500164 -0.113501
C15   C     C_R   0.498245 0.952508 0.386132 -0.135475
C16   C     C_R   0.501754 0.047492 0.613868 -0.135475
C17   C     C_R   0.501767 0.953765 0.613893 -0.139304
C18   C     C_R   0.498233 0.046235 0.386107 -0.139305
C19   C     C_R   0.500013 0.905031 0.500022 0.057546
C20   C     C_R   0.499987 0.094969 0.499978 0.057547
C21   C     C_3   0.431506 0.543448 0.042383 -0.125529
C22   C     C_3   0.568494 0.456552 0.957617 -0.125529
C23   C     C_3   0.502242 0.584684 0.961528 -0.107074
C24   C     C_3   0.497758 0.415316 0.038472 -0.107075
C25   C     C_3   0.429983 0.460376 0.956746 -0.143218
C26   C     C_3   0.570017 0.539624 0.043254 -0.143217
C27   C     C_3   0.500663 0.501458 0.876667 -0.180980
C28   C     C_3   0.499337 0.498542 0.123333 -0.180980
C29   C     C_1   0.500010 0.807145 0.500028 0.092047
C30   C     C_1   0.499990 0.192855 0.499972 0.092047
H1    H     H_    0.496863 0.080702 0.296823 0.148243
H2    H     H_    0.503136 0.919298 0.703177 0.148243
H3    H     H_    0.503131 0.082950 0.703140 0.155791
H4    H     H_    0.496869 0.917050 0.296859 0.155791
H5    H     H_    0.077786 0.547774 0.308399 0.158991
H6    H     H_    0.922214 0.452226 0.691601 0.158991
H7    H     H_    0.922332 0.547788 0.308552 0.158088
H8    H     H_    0.077668 0.452212 0.691448 0.158088
N1    N     N_1   0.500000 0.270550 0.500000 -0.070223
N2    N     N_1   0.500000 0.729450 0.500000 -0.070223
O1    O     O_R   0.378020 0.573650 0.500040 -0.603917
O2    O     O_R   0.621980 0.426350 0.499960 -0.603917
O3    O     O_R   0.621980 0.573650 0.499960 -0.593931
O4    O     O_R   0.378020 0.426350 0.500040 -0.593931
O5    O     O_R   0.499980 0.573650 0.313960 -0.575564
O6    O     O_R   0.500020 0.426350 0.686040 -0.575565
O7    O     O_R   0.500020 0.573650 0.686040 -0.616671
O8    O     O_R   0.499980 0.426350 0.313960 -0.616671
Zn1   Zn    Zn3+2 0.500000 0.598370 0.500000 1.060478
Zn2   Zn    Zn3+2 0.500000 0.401630 0.500000 1.060478
C31   C     C_2   0.349967 0.416894 0.911476 0.949776
O9    O     O_2   0.300075 0.387320 0.988472 -0.575778
O10   O     O_R   0.332080 0.411512 0.782668 -0.813500
H9    H     H_    0.276053 0.381476 0.764725 0.341160
C32   C     C_2   0.650032 0.583106 0.088524 0.949776
O11   O     O_2   0.699925 0.612680 0.011527 -0.575779
O12   O     O_R   0.667920 0.588488 0.217332 -0.813500
H10   H     H_    0.723947 0.618524 0.235274 0.341160
C33   C     C_2   0.352658 0.589754 0.086680 0.996566
O13   O     O_2   0.304291 0.621043 0.009050 -0.583626
O14   O     O_R   0.333989 0.595630 0.215280 -0.807790
H11   H     H_    0.278815 0.627577 0.232563 0.341507
C34   C     C_2   0.647342 0.410246 0.913320 0.996565
O15   O     O_2   0.695708 0.378956 0.990950 -0.583626
O16   O     O_R   0.666011 0.404370 0.784720 -0.807790
H12   H     H_    0.721185 0.372423 0.767437 0.341506
C35   C     C_2   0.507700 0.679307 0.918471 0.965955
O17   O     O_2   0.452547 0.732279 0.947593 -0.609812
O18   O     O_R   0.576496 0.706345 0.845643 -0.750001
H13   H     H_    0.573156 0.771213 0.821796 0.333866
C36   C     C_2   0.492300 0.320693 0.081529 0.965954
O19   O     O_2   0.547453 0.267720 0.052407 -0.609812
O20   O     O_R   0.423504 0.293656 0.154357 -0.750001
H14   H     H_    0.426844 0.228787 0.178204 0.333866

loop_
_geom_bond_atom_site_label_1
_geom_bond_atom_site_label_2
_ccdc_geom_bond_type
C8    C9    A    
C15   C18   A    
C32   O11   D    
C34   O16   S    
C5    H7    S    
C7    C10   A    
O20   H14   S    
C26   C32   S    
O7    Zn1   S    
C20   C30   S    
O10   H9    S    
C15   C19   A    
C21   C33   S    
N2    Zn1   S    
C8    H6    S    
C23   C26   S    
C23   C35   S    
C4    C13   T    
C22   C34   S    
C16   C17   A    
C6    H8    S    
C23   C27   S    
C15   H4    S    
O8    Zn2   S    
C33   O13   D    
C11   O8    A    
O14   H11   S    
C12   O7    A    
O1    Zn1   S    
C33   O14   S    
C12   C27   S    
C31   O9    D    
C24   C25   S    
C12   O6    A    
C5    C7    A    
O3    Zn1   S    
C6    C8    A    
C35   O17   D    
C35   O18   S    
C25   C31   S    
C5    C9    A    
C3    C9    S    
C16   H3    S    
C1    O4    A    
O5    Zn1   S    
C2    O3    A    
C16   C20   A    
C3    C14   T    
O2    Zn2   S    
C1    O1    A    
C21   C28   S    
C22   C27   S    
C32   O12   S    
C22   C24   S    
C11   O5    A    
C1    C13   S    
C4    C10   S    
C19   C29   S    
C36   O20   S    
O4    Zn2   S    
C21   C25   S    
C7    H5    S    
C24   C28   S    
C6    C10   A    
C25   C27   S    
O6    Zn2   S    
C26   C28   S    
C21   C23   S    
C36   O19   D    
O12   H10   S    
C11   C28   S    
C2    O2    A    
C29   N2    T    
C17   C19   A    
C30   N1    T    
C18   C20   A    
O18   H13   S    
C2    C14   S    
C34   O15   D    
N1    Zn2   S    
O16   H12   S    
C22   C26   S    
C17   H2    S    
C18   H1    S    
C31   O10   S    
C24   C36   S    
