data_mof_unit_24709.cif
_audit_creation_date              2012-12-11T16:47:52-0500
_audit_creation_method            fapswitch 2.2
_symmetry_space_group_name_H-M    P1
_symmetry_Int_Tables_number       1
_space_group_crystal_system       triclinic
_cell_length_a                    26.175176
_cell_length_b                    7.190453
_cell_length_c                    23.923205
_cell_angle_alpha                 89.999112
_cell_angle_beta                  101.697141
_cell_angle_gamma                 89.999935
_cell_volume                      4409.11303713

loop_
_atom_site_label
_atom_site_type_symbol
_atom_type_description
_atom_site_fract_x
_atom_site_fract_y
_atom_site_fract_z
_atom_type_partial_charge
O1    O     O_R   0.797620 0.601060 0.203310 -0.538602
O2    O     O_R   0.202380 0.398940 0.796690 -0.538602
O3    O     O_R   0.702380 0.101060 0.296690 -0.538600
O4    O     O_R   0.297620 0.898940 0.703310 -0.538600
O5    O     O_R   0.692070 0.267810 0.186600 -0.533639
O6    O     O_R   0.307930 0.732190 0.813400 -0.533638
O7    O     O_R   0.807930 0.767810 0.313400 -0.533643
O8    O     O_R   0.192070 0.232190 0.686600 -0.533643
C1    C     C_R   0.673838 0.439851 0.171449 0.707289
C2    C     C_R   0.326162 0.560149 0.828551 0.707290
C3    C     C_R   0.826162 0.939849 0.328551 0.707273
C4    C     C_R   0.173838 0.060151 0.671449 0.707272
O9    O     O_R   0.796590 0.271120 0.196480 -0.541481
O10   O     O_R   0.203410 0.728880 0.803520 -0.541481
O11   O     O_R   0.703410 0.771120 0.303520 -0.541477
O12   O     O_R   0.296590 0.228880 0.696480 -0.541477
O13   O     O_R   0.807640 0.104280 0.306650 -0.529530
O14   O     O_R   0.192360 0.895720 0.693350 -0.529530
O15   O     O_R   0.692360 0.604280 0.193350 -0.529529
O16   O     O_R   0.307640 0.395720 0.806650 -0.529529
C5    C     C_R   0.812323 0.440022 0.184347 0.677736
C6    C     C_R   0.187677 0.559978 0.815653 0.677737
C7    C     C_R   0.687679 0.940021 0.315655 0.677738
C8    C     C_R   0.312321 0.059979 0.684345 0.677739
O17   O     O_3   0.753500 0.435660 0.286130 -0.372858
O18   O     O_3   0.246500 0.564340 0.713870 -0.372858
O19   O     O_3   0.746500 0.935660 0.213870 -0.372855
O20   O     O_3   0.253500 0.064340 0.786130 -0.372855
V1    V     V_3+5 0.749350 0.159470 0.243300 1.403991
V2    V     V_3+5 0.250650 0.840530 0.756700 1.403990
V3    V     V_3+5 0.750650 0.659470 0.256700 1.403993
V4    V     V_3+5 0.249350 0.340530 0.743300 1.403993
C9    C     C_R   0.365680 0.875652 0.627233 -0.160191
C10   C     C_R   0.634310 0.124349 0.372755 -0.160188
C11   C     C_R   0.134158 0.375616 0.872581 -0.160156
C12   C     C_R   0.865837 0.624384 0.127413 -0.160157
H1    H     H_    0.349711 0.747555 0.640237 0.124879
H2    H     H_    0.650270 0.252448 0.359741 0.124877
H3    H     H_    0.150001 0.247494 0.859432 0.124849
H4    H     H_    0.849989 0.752504 0.140557 0.124851
C13   C     C_R   0.401905 0.864297 0.591645 -0.147742
C14   C     C_R   0.598084 0.135705 0.408344 -0.147740
C15   C     C_R   0.097930 0.364264 0.908167 -0.147750
C16   C     C_R   0.902065 0.635738 0.091827 -0.147752
H5    H     H_    0.412188 0.728323 0.577890 0.101133
H6    H     H_    0.587794 0.271681 0.422089 0.101128
H7    H     H_    0.087522 0.228261 0.921778 0.101131
H8    H     H_    0.912469 0.771739 0.078211 0.101135
C17   C     C_R   0.423954 0.025995 0.573386 0.095160
C18   C     C_R   0.576044 0.974006 0.426614 0.095161
C19   C     C_R   0.076037 0.525992 0.926608 0.095151
C20   C     C_R   0.923963 0.474011 0.073392 0.095150
C21   C     C_R   0.408422 0.199697 0.591421 -0.145199
C22   C     C_R   0.591586 0.800302 0.408590 -0.145196
C23   C     C_R   0.091723 0.699718 0.908753 -0.145212
C24   C     C_R   0.908282 0.300285 0.091253 -0.145213
H9    H     H_    0.425055 0.327111 0.578849 0.100602
H10   H     H_    0.574961 0.672886 0.421170 0.100598
H11   H     H_    0.075212 0.827162 0.921470 0.100640
H12   H     H_    0.924797 0.172845 0.078539 0.100643
C25   C     C_R   0.372049 0.211207 0.626975 -0.161425
C26   C     C_R   0.627961 0.788792 0.373037 -0.161426
C27   C     C_R   0.128095 0.711224 0.873196 -0.161446
C28   C     C_R   0.871910 0.288778 0.126809 -0.161447
H13   H     H_    0.361447 0.347348 0.640293 0.120779
H14   H     H_    0.638571 0.652650 0.359728 0.120781
H15   H     H_    0.138821 0.847389 0.860023 0.120808
H16   H     H_    0.861188 0.152615 0.139987 0.120808
C29   C     C_R   0.350262 0.049216 0.645564 -0.049469
C30   C     C_R   0.649737 0.950784 0.354435 -0.049472
C31   C     C_R   0.149730 0.549208 0.854429 -0.049485
C32   C     C_R   0.850269 0.450793 0.145571 -0.049485
C33   C     C_R   0.463030 0.142860 0.491854 -0.152064
C34   C     C_R   0.536969 0.857140 0.508147 -0.152061
C35   C     C_R   0.037113 0.642390 0.008301 -0.152049
C36   C     C_R   0.962887 0.357615 0.991700 -0.152050
H17   H     H_    0.434234 0.252912 0.484037 0.109957
H18   H     H_    0.565764 0.747091 0.515965 0.109953
H19   H     H_    0.066020 0.752054 0.016237 0.109990
H20   H     H_    0.933979 0.247951 0.983764 0.109991
C37   C     C_R   0.499491 0.129972 0.456509 -0.152872
C38   C     C_R   0.500507 0.870026 0.543490 -0.152873
C39   C     C_R   0.000655 0.629500 0.043649 -0.152879
C40   C     C_R   0.999344 0.370505 0.956351 -0.152877
H21   H     H_    0.497714 0.230599 0.422505 0.108692
H22   H     H_    0.502282 0.769397 0.577494 0.108694
H23   H     H_    0.002544 0.729740 0.077775 0.108747
H24   H     H_    0.997454 0.270267 0.922224 0.108745
C41   C     C_R   0.537001 0.986978 0.464166 0.081694
C42   C     C_R   0.462998 0.013022 0.535834 0.081693
C43   C     C_R   0.963003 0.486977 0.035839 0.081655
C44   C     C_R   0.036997 0.513027 0.964162 0.081657
C45   C     C_3   0.963363 0.906382 0.520081 0.160147
C46   C     C_3   0.036637 0.093618 0.479919 0.160147
C47   C     C_3   0.536635 0.406364 0.979922 0.160150
C48   C     C_3   0.463365 0.593636 0.020078 0.160149
C49   C     C_3   0.987726 0.093557 0.543786 0.160431
C50   C     C_3   0.012274 0.906443 0.456214 0.160431
C51   C     C_3   0.512275 0.593537 0.956210 0.160429
C52   C     C_3   0.487725 0.406463 0.043790 0.160429
H25   H     H_    0.966626 0.310449 0.467544 0.126482
H26   H     H_    0.033374 0.689551 0.532456 0.126482
H27   H     H_    0.533378 0.810450 0.032444 0.126483
H28   H     H_    0.466621 0.189549 0.967557 0.126483
C53   C     C_1   0.128100 0.049367 0.625480 -0.181707
C54   C     C_1   0.871900 0.950633 0.374520 -0.181707
C55   C     C_1   0.371900 0.549362 0.874520 -0.181709
C56   C     C_1   0.628100 0.450638 0.125480 -0.181709
C57   C     C_3   0.018252 0.829293 0.517762 -0.218590
C58   C     C_3   0.981747 0.170707 0.482237 -0.218590
C59   C     C_3   0.481745 0.329292 0.982244 -0.218592
C60   C     C_3   0.518255 0.670707 0.017756 -0.218592
C61   C     C_3   0.042381 0.018019 0.541231 0.013880
C62   C     C_3   0.957619 0.981981 0.458769 0.013880
C63   C     C_3   0.457618 0.518017 0.958769 0.013881
C64   C     C_3   0.542381 0.481983 0.041231 0.013881
C65   C     C_1   0.089620 0.036315 0.587426 -0.053454
C66   C     C_1   0.910380 0.963685 0.412574 -0.053454
C67   C     C_1   0.410380 0.536310 0.912574 -0.053452
C68   C     C_1   0.589620 0.463690 0.087426 -0.053452
C69   C     C_3   0.977445 0.208158 0.594188 -0.342788
C70   C     C_3   0.920068 0.260068 0.587573 -0.765272
H29   H     H_    0.907081 0.344893 0.548531 0.230492
H30   H     H_    0.895173 0.134949 0.585175 0.232087
H31   H     H_    0.914744 0.340659 0.625475 0.218079
H32   H     H_    0.990481 0.129246 0.634399 0.177618
H33   H     H_    0.001112 0.337280 0.597208 0.172280
C71   C     C_3   0.022555 0.791843 0.405812 -0.342787
C72   C     C_3   0.079931 0.739931 0.412427 -0.765272
H34   H     H_    0.104826 0.865050 0.414825 0.232087
H35   H     H_    0.092919 0.655105 0.451468 0.230492
H36   H     H_    0.085255 0.659342 0.374525 0.218078
H37   H     H_    0.998887 0.662721 0.402791 0.172280
H38   H     H_    0.009519 0.870756 0.365601 0.177618
C73   C     C_3   0.522558 0.708117 0.905804 -0.342778
C74   C     C_3   0.579935 0.760020 0.912418 -0.765277
H39   H     H_    0.592921 0.844859 0.951456 0.230496
H40   H     H_    0.604829 0.634897 0.914824 0.232088
H41   H     H_    0.585260 0.840593 0.874513 0.218079
H42   H     H_    0.509522 0.629192 0.865596 0.177620
H43   H     H_    0.498890 0.837241 0.902777 0.172281
C75   C     C_3   0.477442 0.291884 0.094197 -0.342775
C76   C     C_3   0.420066 0.239980 0.087582 -0.765277
H44   H     H_    0.395171 0.365102 0.085176 0.232088
H45   H     H_    0.407079 0.155137 0.048545 0.230496
H46   H     H_    0.414741 0.159409 0.125489 0.218078
H47   H     H_    0.501110 0.162759 0.097224 0.172280
H48   H     H_    0.490478 0.370810 0.134404 0.177620
C77   C     C_3   0.920654 0.791784 0.538934 -0.342142
C78   C     C_3   0.934880 0.739854 0.601959 -0.765778
H49   H     H_    0.971031 0.655000 0.610712 0.230256
H50   H     H_    0.940650 0.864961 0.629377 0.232015
H51   H     H_    0.902408 0.659292 0.613463 0.218216
H52   H     H_    0.883468 0.870710 0.530295 0.178251
H53   H     H_    0.914534 0.662670 0.512976 0.172622
C79   C     C_3   0.079346 0.208215 0.461066 -0.342143
C80   C     C_3   0.065120 0.260146 0.398041 -0.765779
H54   H     H_    0.059350 0.135041 0.370622 0.232015
H55   H     H_    0.028969 0.345001 0.389288 0.230257
H56   H     H_    0.097592 0.340709 0.386538 0.218216
H57   H     H_    0.085467 0.337329 0.487024 0.172622
H58   H     H_    0.116532 0.129288 0.469705 0.178251
C81   C     C_3   0.579342 0.291744 0.961073 -0.342155
C82   C     C_3   0.565116 0.239805 0.898050 -0.765774
H59   H     H_    0.528962 0.154968 0.889298 0.230256
H60   H     H_    0.559352 0.364906 0.870628 0.232016
H61   H     H_    0.597586 0.159222 0.886549 0.218221
H62   H     H_    0.616530 0.370660 0.969711 0.178253
H63   H     H_    0.585459 0.162634 0.987034 0.172621
C83   C     C_3   0.420658 0.708254 0.038927 -0.342154
C84   C     C_3   0.434884 0.760195 0.101950 -0.765774
H64   H     H_    0.440648 0.635094 0.129373 0.232016
H65   H     H_    0.471038 0.845031 0.110702 0.230256
H66   H     H_    0.402414 0.840779 0.113450 0.218222
H67   H     H_    0.414540 0.837364 0.012966 0.172620
H68   H     H_    0.383470 0.629337 0.030290 0.178252

loop_
_geom_bond_atom_site_label_1
_geom_bond_atom_site_label_2
_ccdc_geom_bond_type
O17   V3    S    
C76   H46   S    
C39   H23   S    
C84   H64   S    
O1    C5    A    
C80   H54   S    
C23   H11   S    
O19   V1    S    
O13   V1    S    
C56   C68   T    
O3    C7    A    
C81   C82   S    
C52   C64   S    
C17   C42   S    
O15   V3    S    
C71   C72   S    
C36   C40   A    
C73   C74   S    
C83   H68   S    
C1    C56   S    
O7    C3    A    
C84   H65   S    
C18   C22   A    
C28   H16   S    
C34   C41   A    
O9    V1    S    
C82   H59   S    
O10   V2    S    
C33   C42   A    
C69   H33   S    
C47   C81   S    
C51   C63   S    
C4    C53   S    
O4    C8    A    
C47   C51   S    
C50   C71   S    
C50   C62   S    
C83   C84   S    
C46   C50   S    
C12   C32   A    
C76   H44   S    
O1    V3    S    
C26   C30   A    
O2    V4    S    
C14   H6    S    
C55   C67   T    
O3    V1    S    
C49   C69   S    
C21   C25   A    
C1    O15   A    
C49   C61   S    
C2    O16   A    
C78   H51   S    
C10   C14   A    
O2    C6    A    
C24   C28   A    
C48   C63   S    
O14   V2    S    
C11   C15   A    
C10   C30   A    
C57   C61   S    
C72   H36   S    
C37   C41   A    
C16   C20   A    
O11   C7    A    
C79   H58   S    
O12   C8    A    
C50   C57   S    
C48   C83   S    
C54   C66   T    
C7    C30   S    
C53   C65   T    
C2    C55   S    
C34   C38   A    
C74   H41   S    
C33   C37   A    
C46   C61   S    
O16   V4    S    
C8    C29   S    
O5    V1    S    
C83   H67   S    
C73   H42   S    
C84   H66   S    
C27   H15   S    
O7    V3    S    
C26   H14   S    
C5    C32   S    
C51   C73   S    
O8    V4    S    
C75   H48   S    
C12   H4    S    
C74   H40   S    
C21   H9    S    
O18   V4    S    
C22   C26   A    
H25   C58   S    
C38   H22   S    
C46   C58   S    
C9    H1    S    
C64   C68   S    
C23   C27   A    
H27   C60   S    
C79   C80   S    
C11   H3    S    
C77   H52   S    
O5    C1    A    
C71   H38   S    
C19   C44   S    
C48   C60   S    
C18   C41   S    
C47   C64   S    
O8    C4    A    
C3    C54   S    
C45   C77   S    
O9    C5    A    
C69   C70   S    
C62   C66   S    
C35   C44   A    
C14   C18   A    
C61   C65   S    
C46   C79   S    
O6    V2    S    
C27   C31   A    
C79   H57   S    
C80   H56   S    
C63   C67   S    
C78   H50   S    
C12   C16   A    
C36   H20   S    
C70   H30   S    
C45   C49   S    
C6    C31   S    
C60   C64   S    
C72   H34   S    
C22   H10   S    
C25   C29   A    
C76   H45   S    
C58   C62   S    
C3    O13   A    
C13   H5    S    
C10   H2    S    
C75   H47   S    
C82   H61   S    
C40   H24   S    
C74   H39   S    
H26   C57   S    
O6    C2    A    
H28   C59   S    
C59   C63   S    
O11   V3    S    
C9    C29   A    
O12   V4    S    
C13   C17   A    
C39   C43   A    
C38   C42   A    
C9    C13   A    
O10   C6    A    
C70   H31   S    
C82   H60   S    
C81   H62   S    
C77   H53   S    
C69   H32   S    
C47   C59   S    
C77   C78   S    
C49   C58   S    
C35   C39   A    
C15   H7    S    
C15   C19   A    
C17   C21   A    
C51   C60   S    
C48   C52   S    
O20   V2    S    
C19   C23   A    
C45   C62   S    
C28   C32   A    
C25   H13   S    
C81   H63   S    
O4    V2    S    
C36   C43   A    
C11   C31   A    
C16   H8    S    
C73   H43   S    
C24   H12   S    
C52   C59   S    
C80   H55   S    
C34   H18   S    
C4    O14   A    
C33   H17   S    
C75   C76   S    
C20   C43   S    
C52   C75   S    
C40   C44   A    
C70   H29   S    
C71   H37   S    
C35   H19   S    
C37   H21   S    
C20   C24   A    
C45   C57   S    
C78   H49   S    
C72   H35   S    
