data_mof_unit_54664.cif
_audit_creation_date              2012-12-11T16:18:07-0500
_audit_creation_method            fapswitch 2.2
_symmetry_space_group_name_H-M    P1
_symmetry_Int_Tables_number       1
_space_group_crystal_system       triclinic
_cell_length_a                    14.000779
_cell_length_b                    14.03362
_cell_length_c                    30.103054
_cell_angle_alpha                 97.073518
_cell_angle_beta                  96.680207
_cell_angle_gamma                 61.581231
_cell_volume                      5151.0385168

loop_
_atom_site_label
_atom_site_type_symbol
_atom_type_description
_atom_site_fract_x
_atom_site_fract_y
_atom_site_fract_z
_atom_type_partial_charge
C1    C     C_R   0.387297 0.710304 0.441527 0.534452
C2    C     C_R   0.731494 0.306272 0.367769 -0.129250
C3    C     C_3   0.556303 0.878012 0.193903 -0.300068
C4    C     C_3   0.672517 0.842573 0.213760 -0.467060
C5    C     C_3   0.501061 0.834555 0.082287 -0.268932
C6    C     C_3   0.520721 0.753235 0.041248 -0.429310
C7    C     C_3   0.202416 0.532790 0.201659 -0.243980
C8    C     C_3   0.088508 0.559523 0.179718 -0.283328
C9    C     C_3   0.006612 0.582016 0.214059 -0.437736
C10   C     C_3   0.543667 0.777072 0.310116 -0.273900
C11   C     C_3   0.616697 0.658638 0.294137 -0.444987
C12   C     C_3   0.176710 0.534007 0.593404 -0.261488
C13   C     C_R   0.749826 0.298900 0.322680 -0.004516
C14   C     C_3   0.171455 0.643239 0.610637 -0.407150
C15   C     C_3   0.478685 0.151579 0.580457 -0.242381
C16   C     C_3   0.395682 0.141626 0.544596 -0.294030
C17   C     C_3   0.447336 0.035465 0.515493 -0.463801
C18   C     C_3   0.537556 0.248135 0.833731 -0.257109
C19   C     C_3   0.593992 0.124982 0.822244 -0.297513
C20   C     C_3   0.709681 0.085107 0.808911 -0.454455
C21   C     C_3   0.506787 0.152083 0.682211 -0.271592
C22   C     C_3   0.623571 0.132388 0.680670 -0.444880
C23   C     C_3   0.137522 0.882486 0.685846 -0.263661
C24   C     C_R   0.398997 0.380855 0.426552 0.540642
C25   C     C_3   0.055358 0.003813 0.687020 -0.294532
C26   C     C_3   0.952344 0.022857 0.657571 -0.453171
C27   C     C_3   0.389848 0.133401 0.294768 -0.270912
C28   C     C_3   0.512312 0.087263 0.305334 -0.443979
C29   C     C_3   0.890813 0.480389 0.329334 -0.260335
C30   C     C_3   0.006901 0.441600 0.350885 -0.291855
C31   C     C_3   0.046642 0.524399 0.347306 -0.457671
C32   C     C_R   0.802772 0.354164 0.309553 0.045128
C33   C     C_R   0.839171 0.414319 0.341708 -0.003362
C34   C     C_R   0.815667 0.423458 0.386427 -0.140656
C35   C     C_R   0.833766 0.417919 0.156651 -0.129552
C36   C     C_R   0.862570 0.399754 0.112808 -0.141334
C37   C     C_R   0.862493 0.224438 0.105760 0.011269
C38   C     C_R   0.834895 0.243922 0.150588 -0.101274
C39   C     C_R   0.332931 0.231495 0.224123 -0.116726
C40   C     C_R   0.825899 0.337627 0.176087 0.026248
C41   C     C_1   0.817492 0.347619 0.223142 -0.048147
C42   C     C_1   0.812459 0.352847 0.262755 -0.051192
C43   C     C_R   0.709683 0.405920 0.442394 0.537157
C44   C     C_R   0.885776 0.299888 0.087832 0.030826
C45   C     C_R   0.370379 0.768779 0.400231 -0.006027
C46   C     C_R   0.461267 0.764190 0.379938 0.005168
C47   C     C_R   0.449009 0.786519 0.334341 0.029461
C48   C     C_R   0.349307 0.811450 0.309817 0.021780
C49   C     C_R   0.255452 0.834894 0.331330 0.007037
C50   C     C_R   0.343913 0.236920 0.271143 0.031619
C51   C     C_R   0.265068 0.817670 0.377455 -0.004615
C52   C     C_R   0.239733 0.838301 0.150288 0.012084
C53   C     C_R   0.222035 0.872745 0.107360 -0.124232
C54   C     C_R   0.407931 0.846018 0.108300 0.016474
C55   C     C_R   0.389182 0.712345 0.568084 0.541389
C56   C     C_R   0.426333 0.814280 0.153059 0.014434
C57   C     C_R   0.339010 0.817793 0.174290 0.024615
C58   C     C_1   0.344819 0.811860 0.221943 -0.059126
C59   C     C_1   0.345032 0.811582 0.261769 -0.050306
C60   C     C_R   0.300539 0.886339 0.087739 -0.000824
C61   C     C_R   0.313569 0.338915 0.295077 0.027536
C62   C     C_R   0.361472 0.357980 0.591587 0.007150
C63   C     C_R   0.424266 0.256051 0.610906 0.010417
C64   C     C_R   0.425459 0.252356 0.658133 0.038474
C65   C     C_R   0.350359 0.345243 0.682874 0.011508
C66   C     C_R   0.270694 0.433608 0.660931 -0.118919
C67   C     C_R   0.400620 0.382001 0.552072 0.530542
C68   C     C_R   0.273326 0.440781 0.615299 -0.009763
C69   C     C_R   0.225766 0.393006 0.831010 -0.131619
C70   C     C_R   0.209009 0.372995 0.872737 -0.137830
C71   C     C_R   0.403905 0.267171 0.887795 -0.117278
C72   C     C_R   0.291218 0.325749 0.201127 0.024062
C73   C     C_R   0.421914 0.289111 0.846083 0.015364
C74   C     C_R   0.331098 0.348355 0.816826 0.043444
C75   C     C_1   0.341718 0.351287 0.770269 -0.041844
C76   C     C_1   0.346889 0.349659 0.730626 -0.044734
C77   C     C_R   0.297537 0.305883 0.900613 0.006037
C78   C     C_1   0.759751 0.377501 0.612892 -0.022599
C79   C     C_R   0.712407 0.408133 0.568694 0.547473
C80   C     C_R   0.918975 0.296528 0.717200 -0.117504
C81   C     C_R   0.940588 0.279957 0.762938 -0.114927
C82   C     C_R   0.749878 0.336937 0.770361 -0.115614
C83   C     C_1   0.288847 0.313914 0.152894 -0.074454
C84   C     C_R   0.728260 0.353577 0.724601 -0.114877
C85   C     C_R   0.812582 0.334209 0.697990 0.031094
C86   C     C_R   0.856008 0.301001 0.789712 0.036031
C87   C     C_1   0.878990 0.290282 0.837255 -0.067844
C88   C     C_1   0.788124 0.355866 0.651348 -0.070394
C89   C     C_1   0.906434 0.281267 0.876648 -0.025628
C90   C     C_1   0.372312 0.763876 0.612675 -0.039863
C91   C     C_1   0.362930 0.360576 0.381722 -0.040448
C92   C     C_R   0.239101 0.862420 0.715807 0.018499
C93   C     C_R   0.231153 0.877340 0.762519 -0.096632
C94   C     C_1   0.337925 0.348452 0.342659 -0.080684
C95   C     C_R   0.423583 0.823225 0.774687 -0.116544
C96   C     C_R   0.433143 0.807287 0.728348 -0.122134
C97   C     C_R   0.341978 0.825985 0.698689 0.042383
C98   C     C_R   0.322825 0.857125 0.791816 0.022614
C99   C     C_1   0.310393 0.878517 0.839334 -0.061507
C100  C     C_1   0.358355 0.796701 0.651514 -0.075762
C101  C     C_1   0.292767 0.905003 0.878353 -0.016956
C102  C     C_R   0.948588 0.274101 0.047772 0.536918
C103  C     C_R   0.267657 0.433500 0.272143 -0.124783
C104  C     C_R   0.274335 0.269307 0.065873 0.545014
C105  C     C_1   0.284856 0.298341 0.112684 -0.026949
C106  C     C_R   0.261650 0.951433 0.048093 0.537809
C107  C     C_R   0.952492 0.268817 0.922018 0.540843
C108  C     C_R   0.276837 0.266377 0.939684 0.540081
C109  C     C_R   0.261733 0.950801 0.922817 0.542694
C110  C     C_R   0.254024 0.428441 0.225162 0.030521
C111  C     C_3   0.866555 0.123616 0.079215 -0.269859
C112  C     C_3   0.781177 0.152750 0.039695 -0.423035
C113  C     C_3   0.703265 0.240143 0.288612 -0.258888
C114  C     C_3   0.594807 0.320984 0.266106 -0.283743
C115  C     C_3   0.566888 0.270433 0.222069 -0.441816
C116  C     C_R   0.759725 0.372228 0.399337 -0.010874
C117  C     C_3   0.150853 0.832370 0.172956 -0.273319
C118  C     C_3   0.050844 0.842557 0.143121 -0.466987
C119  C     C_3   0.145802 0.879644 0.304519 -0.249527
C120  C     C_3   0.104553 0.999279 0.296578 -0.297179
C121  C     C_3   0.987220 0.050632 0.276971 -0.465676
C122  C     C_3   0.163144 0.858230 0.403162 -0.249024
C123  C     C_3   0.114681 0.779035 0.397265 -0.399838
C124  C     C_3   0.571446 0.735083 0.405870 -0.247839
C125  C     C_3   0.563317 0.822732 0.442795 -0.430179
C126  C     C_3   0.536774 0.779650 0.178648 -0.251224
Cr1   Cr    Cr6+3 0.581000 0.584320 0.508140 0.996492
Cr2   Cr    Cr6+3 0.339110 0.576430 0.496080 0.987891
Cr3   Cr    Cr6+3 0.579910 0.339270 0.495810 1.001236
Cr4   Cr    Cr6+3 0.082090 0.079210 0.982490 1.004031
Cr5   Cr    Cr6+3 0.082460 0.324610 0.994920 1.011317
Cr6   Cr    Cr6+3 0.323630 0.087860 0.996130 1.004741
H1    H     H_    0.243828 0.511509 0.291044 0.102181
H2    H     H_    0.023029 0.252248 0.777584 0.111211
H3    H     H_    0.491393 0.159687 0.718034 0.149674
H4    H     H_    0.498642 0.079213 0.668342 0.128875
H5    H     H_    0.972273 0.993502 0.622186 0.148580
H6    H     H_    0.912503 0.979722 0.669702 0.146974
H7    H     H_    0.894272 0.110963 0.658877 0.159470
H8    H     H_    0.032359 0.036106 0.721917 0.167213
H9    H     H_    0.092629 0.049366 0.674802 0.165376
H10   H     H_    0.156816 0.852195 0.650534 0.151510
H11   H     H_    0.099755 0.836641 0.697412 0.131964
H12   H     H_    0.531035 0.146521 0.327409 0.161962
H13   H     H_    0.683864 0.353652 0.790688 0.103061
H14   H     H_    0.543567 0.011777 0.322778 0.129744
H15   H     H_    0.554472 0.067381 0.273885 0.140828
H16   H     H_    0.348848 0.148781 0.326293 0.147902
H17   H     H_    0.373659 0.071338 0.273515 0.128256
H18   H     H_    0.051729 0.532828 0.311646 0.152414
H19   H     H_    0.990636 0.604910 0.363311 0.140789
H20   H     H_    0.128269 0.497497 0.364911 0.154443
H21   H     H_    0.009964 0.430295 0.386997 0.157428
H22   H     H_    0.062685 0.362279 0.333881 0.167669
H23   H     H_    0.893469 0.478344 0.292509 0.146497
H24   H     H_    0.645556 0.382904 0.710072 0.113198
H25   H     H_    0.839158 0.566672 0.341185 0.132443
H26   H     H_    0.153130 0.904418 0.776128 0.107985
H27   H     H_    0.494720 0.808781 0.797109 0.111636
H28   H     H_    0.512338 0.778519 0.715598 0.112529
H29   H     H_    0.874494 0.461679 0.099818 0.133180
H30   H     H_    0.824012 0.491907 0.176173 0.101792
H31   H     H_    0.835052 0.476428 0.410780 0.120472
H32   H     H_    0.685758 0.268640 0.377378 0.133045
H33   H     H_    0.824021 0.184452 0.166246 0.093498
H34   H     H_    0.698435 0.203001 0.052000 0.148840
H35   H     H_    0.794984 0.198371 0.015764 0.160378
H36   H     H_    0.785296 0.077177 0.021549 0.128293
H37   H     H_    0.949110 0.068718 0.067777 0.175632
H38   H     H_    0.849036 0.075592 0.100712 0.115704
H39   H     H_    0.557835 0.198842 0.228125 0.157048
H40   H     H_    0.489552 0.331452 0.206290 0.156861
H41   H     H_    0.631656 0.244882 0.198459 0.146835
H42   H     H_    0.528777 0.346992 0.289171 0.169892
H43   H     H_    0.598416 0.394845 0.258747 0.171619
H44   H     H_    0.143016 0.896696 0.090055 0.142900
H45   H     H_    0.762926 0.191867 0.263037 0.145629
H46   H     H_    0.689714 0.180938 0.304851 0.121409
H47   H     H_    0.004431 0.925235 0.131209 0.137264
H48   H     H_    0.075191 0.780416 0.114200 0.151345
H49   H     H_    0.996281 0.829956 0.162975 0.131264
H50   H     H_    0.186919 0.753178 0.188044 0.140773
H51   H     H_    0.122889 0.898047 0.200326 0.152871
H52   H     H_    0.963412 0.133856 0.268311 0.160161
H53   H     H_    0.977691 0.002913 0.246135 0.142461
H54   H     H_    0.932535 0.055244 0.302011 0.149367
H55   H     H_    0.126115 0.403853 0.881726 0.138151
H56   H     H_    0.108661 0.045703 0.328823 0.162509
H57   H     H_    0.156359 0.006140 0.273170 0.167067
H58   H     H_    0.153017 0.830443 0.272085 0.128705
H59   H     H_    0.083612 0.872303 0.321041 0.147736
H60   H     H_    0.036472 0.812667 0.376583 0.103511
H61   H     H_    0.171143 0.698699 0.381210 0.170074
H62   H     H_    0.097203 0.766287 0.430469 0.147872
H63   H     H_    0.181155 0.874231 0.439413 0.148005
H64   H     H_    0.100703 0.939475 0.392924 0.126067
H65   H     H_    0.540275 0.899689 0.427640 0.136844
H66   H     H_    0.155810 0.438596 0.808713 0.112347
H67   H     H_    0.501735 0.837456 0.466324 0.166508
H68   H     H_    0.643265 0.797206 0.461962 0.124362
H69   H     H_    0.606930 0.654214 0.418256 0.202968
H70   H     H_    0.637463 0.722818 0.385643 0.118106
H71   H     H_    0.688263 0.798270 0.244063 0.149036
H72   H     H_    0.731743 0.789300 0.188664 0.145722
H73   H     H_    0.684676 0.915173 0.223432 0.134547
H74   H     H_    0.541431 0.927753 0.165445 0.160783
H75   H     H_    0.498411 0.930870 0.219480 0.156551
H76   H     H_    0.543567 0.737519 0.208430 0.147481
H77   H     H_    0.206356 0.498714 0.679818 0.117874
H78   H     H_    0.602512 0.716669 0.158185 0.133331
H79   H     H_    0.539929 0.672541 0.051795 0.149592
H80   H     H_    0.448610 0.780627 0.016960 0.160226
H81   H     H_    0.590776 0.744440 0.024027 0.130559
H82   H     H_    0.485974 0.914229 0.072495 0.171939
H83   H     H_    0.579632 0.805942 0.102174 0.129722
H84   H     H_    0.028307 0.506707 0.230224 0.165115
H85   H     H_    0.004402 0.646364 0.240060 0.140854
H86   H     H_    0.924194 0.609939 0.196911 0.123224
H87   H     H_    0.058714 0.632875 0.160978 0.142092
H88   H     H_    0.472742 0.217597 0.909698 0.118448
H89   H     H_    0.091888 0.492520 0.155048 0.174674
H90   H     H_    0.195773 0.602348 0.225607 0.121921
H91   H     H_    0.255982 0.525772 0.175599 0.126607
H92   H     H_    0.645736 0.606069 0.322489 0.161005
H93   H     H_    0.570899 0.628384 0.268958 0.154557
H94   H     H_    0.688015 0.651590 0.278562 0.123504
H95   H     H_    0.514428 0.826803 0.280926 0.147399
H96   H     H_    0.590311 0.813939 0.330686 0.123934
H97   H     H_    0.140030 0.667976 0.644608 0.118805
H98   H     H_    0.253462 0.637668 0.612797 0.194612
H99   H     H_    0.984793 0.281075 0.697000 0.106002
H100  H     H_    0.115889 0.706579 0.587870 0.135368
H101  H     H_    0.175344 0.523866 0.556324 0.158981
H102  H     H_    0.100845 0.534642 0.601418 0.125013
H103  H     H_    0.515933 0.030656 0.498469 0.154612
H104  H     H_    0.477715 0.965227 0.536265 0.148975
H105  H     H_    0.385535 0.031794 0.489628 0.139407
H106  H     H_    0.327084 0.144887 0.561156 0.158267
H107  H     H_    0.362226 0.209534 0.522411 0.165558
H108  H     H_    0.548941 0.146517 0.564904 0.172033
H109  H     H_    0.513858 0.077975 0.599043 0.133725
H110  H     H_    0.359331 0.153080 0.205292 0.107605
H111  H     H_    0.708737 0.126524 0.779594 0.155337
H112  H     H_    0.759315 0.101600 0.837329 0.159060
H113  H     H_    0.748003 0.996203 0.799788 0.141276
H114  H     H_    0.597585 0.082486 0.851694 0.161840
H115  H     H_    0.547065 0.103880 0.794025 0.163811
H116  H     H_    0.539295 0.289278 0.804797 0.146374
H117  H     H_    0.583692 0.269115 0.862390 0.135426
H118  H     H_    0.647074 0.119989 0.645672 0.149143
H119  H     H_    0.632137 0.202821 0.697888 0.156245
H120  H     H_    0.680349 0.058664 0.698137 0.131186
O1    O     O_R   0.688580 0.499770 0.460490 -0.539506
O2    O     O_R   0.346150 0.177650 0.050510 -0.516143
O3    O     O_R   0.314200 0.996600 0.036060 -0.501309
O4    O     O_R   0.480400 0.672610 0.462660 -0.511379
O5    O     O_R   0.168690 0.969990 0.933130 -0.506898
O6    O     O_R   0.991920 0.175870 0.937430 -0.496014
O7    O     O_R   0.974010 0.342590 0.941330 -0.511883
O8    O     O_R   0.182630 0.317940 0.955040 -0.501252
O9    O     O_R   0.347320 0.174720 0.953250 -0.515096
O10   O     O_R   0.315290 0.993890 0.945900 -0.495414
O11   O     O_3   0.162730 0.163890 0.991180 -0.234411
O12   O     O_R   0.348600 0.476260 0.536540 -0.499916
O13   O     O_R   0.315310 0.685650 0.451800 -0.510156
O14   O     O_R   0.346220 0.474990 0.446280 -0.499656
O15   O     O_R   0.492270 0.312460 0.441630 -0.517112
O16   O     O_R   0.669740 0.350480 0.455640 -0.500321
O17   O     O_R   0.691150 0.501150 0.557860 -0.506521
O18   O     O_R   0.482790 0.673890 0.552920 -0.489619
O19   O     O_R   0.317880 0.687030 0.549170 -0.525047
O20   O     O_R   0.494840 0.313840 0.539010 -0.520342
O21   O     O_R   0.672120 0.351750 0.545910 -0.494576
O22   O     O_3   0.500010 0.500010 0.500010 -0.228910
O23   O     O_R   0.167510 0.972920 0.030390 -0.532107
O24   O     O_R   0.990840 0.178580 0.027590 -0.503271
O25   O     O_R   0.972840 0.345510 0.038590 -0.522829
O26   O     O_R   0.181550 0.320660 0.045200 -0.494791

loop_
_geom_bond_atom_site_label_1
_geom_bond_atom_site_label_2
_ccdc_geom_bond_type
C9    H86   S    
C38   H33   S    
C66   C68   A    
C15   H109  S    
C20   H111  S    
C41   C42   T    
C13   C32   A    
C113  H45   S    
C95   C96   A    
C119  H58   S    
C122  H63   S    
C26   H5    S    
C46   C124  S    
C82   H13   S    
C67   O12   A    
C3    C126  S    
C19   H115  S    
C7    C8    S    
C54   C60   A    
C45   C46   A    
C120  C121  S    
C12   H102  S    
C12   C68   S    
C29   C30   S    
C65   C76   S    
C62   C67   S    
C103  C110  A    
C95   H27   S    
C9    H85   S    
C115  H40   S    
C61   C103  A    
C37   C38   A    
C119  H59   S    
C22   H118  S    
C55   C90   S    
C5    C6    S    
C98   C99   S    
C17   H104  S    
C6    H80   S    
C45   C51   A    
C18   H117  S    
C34   C116  A    
C15   C16   S    
C112  H36   S    
C29   C33   S    
C104  O2    A    
C56   C57   A    
C107  O7    A    
C18   C19   S    
C73   C74   A    
C2    C13   A    
C92   C93   A    
Cr5   O26   S    
C51   C122  S    
Cr6   O3    S    
C121  H54   S    
C2    C116  A    
Cr2   O14   S    
C30   H21   S    
C78   C79   S    
C111  C112  S    
C16   H107  S    
C126  H76   S    
C16   C17   S    
C49   C51   A    
Cr1   O18   S    
C39   C72   A    
C123  H62   S    
C28   H12   S    
C56   C126  S    
C17   H105  S    
C21   H4    S    
C14   H100  S    
C81   C86   A    
Cr3   O15   S    
C1    O4    A    
Cr6   O2    S    
C29   H23   S    
C39   H110  S    
C24   O14   A    
C52   C117  S    
C43   O1    A    
C23   C25   S    
C113  H46   S    
C125  H65   S    
C27   H17   S    
Cr1   O1    S    
C21   C22   S    
C70   C77   A    
C10   H96   S    
C23   H11   S    
Cr3   O22   S    
C69   C70   A    
C120  H56   S    
C90   C100  T    
C104  C105  S    
Cr4   O6    S    
C53   C60   A    
C92   C97   A    
C114  C115  S    
Cr5   O11   S    
C17   H103  S    
C9    H84   S    
C12   H101  S    
C72   C110  A    
C95   C98   A    
C35   H30   S    
C14   H98   S    
C74   C75   S    
C53   H44   S    
Cr1   O4    S    
C5    C54   S    
C4    H73   S    
C25   H8    S    
C84   C85   A    
C125  H68   S    
C115  H39   S    
C34   H31   S    
C126  H78   S    
C109  O10   A    
C104  O26   A    
C71   C73   A    
C7    H90   S    
C44   C102  S    
C117  H50   S    
C8    C9    S    
C4    H71   S    
C29   H25   S    
C6    H79   S    
C25   C26   S    
C82   C86   A    
C112  H35   S    
C15   H108  S    
C71   H88   S    
C83   C105  T    
C124  H70   S    
C111  H37   S    
C35   C36   A    
C118  H47   S    
C75   C76   T    
C21   C64   S    
C22   H120  S    
C80   C85   A    
C118  H49   S    
C43   C116  S    
C7    H91   S    
Cr3   O21   S    
C47   C48   A    
Cr5   O25   S    
C30   H22   S    
C11   H93   S    
C112  H34   S    
C96   C97   A    
C89   C107  S    
C62   C63   A    
C117  H51   S    
C31   H19   S    
C69   C74   A    
C14   H97   S    
C55   O18   A    
C79   O17   A    
C66   H77   S    
Cr2   O22   S    
Cr3   O16   S    
C70   H55   S    
Cr6   O11   S    
Cr5   O7    S    
C67   O20   A    
C114  H43   S    
C96   H28   S    
C12   C14   S    
C26   H7    S    
C18   C73   S    
C82   C84   A    
C31   H18   S    
C87   C89   T    
C24   O15   A    
C36   H29   S    
Cr2   O19   S    
C36   C44   A    
C55   O19   A    
C102  O25   A    
C2    H32   S    
C52   C57   A    
C24   C91   S    
C71   C77   A    
C97   C100  S    
C60   C106  S    
C52   C53   A    
C86   C87   S    
C48   C59   S    
Cr6   O10   S    
C113  C114  S    
C85   C88   S    
C78   C88   T    
C20   H112  S    
C108  O9    A    
C46   C47   A    
C40   C41   S    
C28   H15   S    
C15   C63   S    
Cr5   O8    S    
C99   C101  T    
C61   C94   S    
C3    H74   S    
C106  O3    A    
C16   H106  S    
C77   C108  S    
C25   H9    S    
C106  O23   A    
Cr4   O11   S    
C122  H64   S    
C80   C81   A    
C26   H6    S    
C123  H60   S    
C69   H66   S    
C11   H92   S    
C119  C120  S    
C27   C50   S    
C54   C56   A    
C122  C123  S    
Cr4   O24   S    
C5    H83   S    
C10   H95   S    
C49   C119  S    
C28   H14   S    
C7    C110  S    
C62   C68   A    
C124  H69   S    
C111  H38   S    
C107  O6    A    
C32   C33   A    
C19   C20   S    
C35   C40   A    
C103  H1    S    
C27   H16   S    
C43   O16   A    
C115  H41   S    
C8    H87   S    
C120  H57   S    
C64   C65   A    
C91   C94   T    
C38   C40   A    
C31   H20   S    
C84   H24   S    
C1    C45   S    
C57   C58   S    
C30   C31   S    
C6    H81   S    
C4    H72   S    
C37   C44   A    
C11   H94   S    
C48   C49   A    
C5    H82   S    
C3    H75   S    
C33   C34   A    
C121  H52   S    
Cr2   O13   S    
C80   H99   S    
Cr2   O12   S    
C109  O5    A    
C93   H26   S    
C58   C59   T    
Cr4   O5    S    
C37   C111  S    
C72   C83   S    
C108  O8    A    
C10   C11   S    
C121  H53   S    
C63   C64   A    
C20   H113  S    
C18   H116  S    
C114  H42   S    
C39   C50   A    
C1    O13   A    
C125  H67   S    
C79   O21   A    
C65   C66   A    
Cr1   O17   S    
C23   H10   S    
Cr3   O20   S    
C50   C61   A    
C32   C42   S    
C23   C92   S    
C123  H61   S    
C22   H119  S    
Cr1   O22   S    
C102  O24   A    
Cr4   O23   S    
C117  C118  S    
C10   C47   S    
C101  C109  S    
C93   C98   A    
C21   H3    S    
C124  C125  S    
C13   C113  S    
C8    H89   S    
C3    C4    S    
C19   H114  S    
C118  H48   S    
Cr6   O9    S    
C27   C28   S    
C81   H2    S    
