data_mof_unit_49242.cif
_audit_creation_date              2012-12-11T14:33:54-0500
_audit_creation_method            fapswitch 2.2
_symmetry_space_group_name_H-M    P1
_symmetry_Int_Tables_number       1
_space_group_crystal_system       triclinic
_cell_length_a                    14.548437
_cell_length_b                    14.617014
_cell_length_c                    27.058106
_cell_angle_alpha                 89.80936
_cell_angle_beta                  90.88079
_cell_angle_gamma                 119.674878
_cell_volume                      4998.7329868

loop_
_atom_site_label
_atom_site_type_symbol
_atom_type_description
_atom_site_fract_x
_atom_site_fract_y
_atom_site_fract_z
_atom_type_partial_charge
C1    C     C_R   0.261120 0.768650 0.573595 0.507841
C2    C     C_R   0.232045 0.490782 0.573905 0.508232
C3    C     C_R   0.511039 0.741204 0.573509 0.500923
C4    C     C_3   0.683435 0.759316 0.793556 0.061334
C5    C     C_3   0.213666 0.919920 0.786647 0.048243
C6    C     C_3   0.042673 0.264263 0.773683 0.074797
C7    C     C_3   0.621110 0.716446 0.745841 0.028025
C8    C     C_3   0.264954 0.904358 0.741495 0.079330
C9    C     C_3   0.078195 0.344819 0.731500 0.064090
C10   C     C_1   0.707131 0.872702 0.862768 0.178705
C11   C     C_1   0.109521 0.833721 0.858546 0.195964
C12   C     C_1   0.112203 0.217460 0.849611 0.204878
C13   C     C_1   0.562461 0.772390 0.667592 0.152797
C14   C     C_1   0.228938 0.783574 0.668126 0.201795
C15   C     C_1   0.216298 0.433399 0.667188 0.167718
C16   C     C_1   0.537409 0.757156 0.624699 0.134409
C17   C     C_1   0.247480 0.775997 0.625464 0.162055
C18   C     C_1   0.226439 0.465018 0.625284 0.143038
C19   C     C_R   0.107085 0.221580 0.086695 0.648689
C20   C     C_R   0.782330 0.886963 0.088101 0.681526
C21   C     C_R   0.113874 0.895712 0.088221 0.671526
C22   C     C_R   0.068853 0.160128 0.943804 0.537683
C23   C     C_R   0.783150 0.888827 0.951461 0.572929
C24   C     C_R   0.108907 0.896180 0.949765 0.574973
C25   C     C_R   0.651861 0.891377 0.365282 0.222559
C26   C     C_R   0.108186 0.746016 0.361186 0.223661
C27   C     C_R   0.233671 0.343479 0.364367 0.223358
C28   C     C_R   0.670636 0.912226 0.314545 -0.025021
C29   C     C_R   0.089838 0.738972 0.309910 -0.018631
C30   C     C_R   0.229111 0.321247 0.313420 -0.017143
C31   C     C_R   0.726055 0.948195 0.214687 0.007169
C32   C     C_R   0.055871 0.754776 0.209284 0.012939
C33   C     C_R   0.221856 0.280202 0.211243 0.014465
C34   C     C_R   0.237214 0.784585 0.430493 0.586699
C35   C     C_R   0.213803 0.451117 0.430887 0.589253
C36   C     C_R   0.547644 0.762481 0.430852 0.587546
C37   C     C_R   0.759018 0.034394 0.247767 0.274068
C38   C     C_R   0.969125 0.690635 0.239800 0.265962
C39   C     C_R   0.252249 0.225835 0.245694 0.263394
C40   C     C_R   0.733770 0.014969 0.297488 -0.057555
C41   C     C_R   0.986935 0.686460 0.290133 -0.064381
C42   C     C_R   0.259892 0.250810 0.295775 -0.069456
C43   C     C_R   0.775633 0.956333 0.169766 0.234466
C44   C     C_R   0.044324 0.799211 0.165718 0.239518
C45   C     C_R   0.222519 0.267087 0.160126 0.224975
C46   C     C_R   0.727161 0.874425 0.134342 0.028170
C47   C     C_R   0.129888 0.848615 0.132813 0.030733
C48   C     C_R   0.157920 0.290198 0.129517 0.000568
C49   C     C_R   0.534213 0.706061 0.345620 -0.154320
C50   C     C_R   0.297942 0.832766 0.346451 -0.167962
C51   C     C_R   0.157674 0.455953 0.346751 -0.154472
C52   C     C_R   0.552630 0.725709 0.295626 0.018668
C53   C     C_R   0.280693 0.828532 0.295929 0.004953
C54   C     C_R   0.153476 0.435249 0.296785 0.021996
C55   C     C_R   0.622710 0.828552 0.279816 0.017445
C56   C     C_R   0.176648 0.783745 0.277400 0.031141
C57   C     C_R   0.189454 0.368016 0.279588 0.028174
C58   C     C_R   0.502518 0.643503 0.261401 -0.106308
C59   C     C_R   0.366337 0.870447 0.263858 -0.117998
C60   C     C_R   0.113758 0.481538 0.264013 -0.108340
C61   C     C_R   0.525763 0.661621 0.211516 -0.033580
C62   C     C_R   0.349743 0.875641 0.213469 -0.033584
C63   C     C_R   0.107105 0.459919 0.213910 -0.034821
C64   C     C_R   0.600433 0.762556 0.194828 0.030351
C65   C     C_R   0.246838 0.839185 0.194290 0.036108
C66   C     C_R   0.142110 0.392823 0.195206 0.045400
C67   C     C_3   0.516956 0.808839 0.750377 0.043051
C68   C     C_3   0.200538 0.716702 0.755526 0.047601
C69   C     C_3   0.265907 0.444598 0.758654 0.037747
C70   C     C_R   0.648110 0.846860 0.229516 -0.042844
C71   C     C_R   0.159665 0.789755 0.226648 -0.028302
C72   C     C_R   0.184761 0.347139 0.228634 -0.022029
C73   C     C_R   0.633075 0.780825 0.145168 0.213865
C74   C     C_R   0.228596 0.857307 0.144778 0.217288
C75   C     C_R   0.128598 0.363772 0.144801 0.179287
C76   C     C_R   0.584184 0.787624 0.380429 0.031709
C77   C     C_R   0.212856 0.793578 0.379153 0.028883
C78   C     C_R   0.197944 0.411384 0.380529 0.028383
C79   C     C_3   0.707581 0.916249 0.719063 0.357148
C80   C     C_3   0.068472 0.764111 0.713014 0.322401
C81   C     C_3   0.207474 0.273548 0.707434 0.361973
C82   C     C_3   0.743052 0.945738 0.775842 0.050497
C83   C     C_3   0.032565 0.768581 0.768917 0.054846
C84   C     C_3   0.189385 0.222327 0.762137 0.061350
C85   C     C_1   0.737134 0.878664 0.904390 0.149497
C86   C     C_1   0.111320 0.861292 0.900695 0.150002
C87   C     C_1   0.089811 0.187809 0.892038 0.159231
C88   C     C_3   0.602928 0.803325 0.718515 -0.105456
C89   C     C_3   0.190388 0.792316 0.717343 -0.090278
C90   C     C_3   0.193241 0.375013 0.714279 -0.111719
C91   C     C_3   0.555576 0.836638 0.806861 0.355990
C92   C     C_3   0.164522 0.726778 0.809515 0.348923
C93   C     C_3   0.234296 0.387001 0.810070 0.340971
C94   C     C_3   0.671589 0.854104 0.811248 -0.082942
C95   C     C_3   0.128242 0.811269 0.807339 -0.071984
C96   C     C_3   0.143740 0.270766 0.800271 -0.084275
Cr1   Cr    Cr6+3 0.164410 0.584450 0.499910 1.139758
Cr2   Cr    Cr6+3 0.415550 0.579960 0.499910 1.140320
Cr3   Cr    Cr6+3 0.420040 0.835590 0.499910 1.126205
Cr4   Cr    Cr6+3 0.155170 0.075460 0.019960 1.191750
Cr5   Cr    Cr6+3 0.924540 0.079710 0.019960 1.190188
Cr6   Cr    Cr6+3 0.920290 0.844830 0.019960 1.185004
H1    H     H_    0.446112 0.728730 0.749560 0.175257
H2    H     H_    0.284582 0.738568 0.758688 0.201826
H3    H     H_    0.262402 0.517228 0.761981 0.224749
H4    H     H_    0.766954 0.787850 0.785701 0.253304
H5    H     H_    0.172783 0.960994 0.774716 0.270875
H6    H     H_    0.993795 0.186452 0.757269 0.275885
H7    H     H_    0.763346 0.081427 0.322549 0.222885
H8    H     H_    0.919539 0.641416 0.313462 0.220965
H9    H     H_    0.285563 0.210475 0.321197 0.203745
H10   H     H_    0.489157 0.594201 0.187086 0.197800
H11   H     H_    0.418987 0.915323 0.190795 0.198480
H12   H     H_    0.070588 0.493656 0.190809 0.196335
H13   H     H_    0.447270 0.564272 0.273390 0.119712
H14   H     H_    0.446723 0.903325 0.277993 0.126887
H15   H     H_    0.085501 0.532971 0.277294 0.119114
H16   H     H_    0.478034 0.626882 0.357463 0.138627
H17   H     H_    0.378507 0.864661 0.360308 0.147745
H18   H     H_    0.133009 0.510922 0.359241 0.143457
H19   H     H_    0.734274 0.013479 0.785269 0.261200
H20   H     H_    0.973216 0.687943 0.778710 0.230628
H21   H     H_    0.264320 0.231506 0.776370 0.242603
H22   H     H_    0.546463 0.662783 0.761155 0.231882
H23   H     H_    0.330999 0.902255 0.759352 0.241186
H24   H     H_    0.085368 0.411474 0.752423 0.249695
O1    O     O_R   0.137150 0.468200 0.553200 -0.433923
O2    O     O_R   0.531800 0.668950 0.553200 -0.435833
O3    O     O_R   0.331050 0.862850 0.553200 -0.436413
O4    O     O_R   0.179100 0.982980 0.967000 -0.479678
O5    O     O_R   0.017020 0.196120 0.967000 -0.433017
O6    O     O_R   0.803880 0.820900 0.967000 -0.475904
O7    O     O_R   0.173970 0.688730 0.549930 -0.449047
O8    O     O_R   0.311270 0.485240 0.549930 -0.454625
O9    O     O_R   0.514760 0.826030 0.549930 -0.455755
O10   O     O_R   0.140110 0.470540 0.446010 -0.492780
O11   O     O_R   0.529460 0.669570 0.446010 -0.488590
O12   O     O_R   0.330430 0.859890 0.446010 -0.494889
O13   O     O_R   0.176710 0.690910 0.450560 -0.459726
O14   O     O_R   0.309090 0.485800 0.450560 -0.461084
O15   O     O_R   0.514200 0.823290 0.450560 -0.464347
O16   O     O_3   0.333333 0.666667 0.499990 -0.437831
O17   O     O_R   0.176750 0.985260 0.074180 -0.415753
O18   O     O_R   0.014740 0.191490 0.074180 -0.409984
O19   O     O_R   0.808510 0.823250 0.074180 -0.415381
O20   O     O_R   0.146100 0.172630 0.068980 -0.456014
O21   O     O_R   0.827370 0.973470 0.068980 -0.470209
O22   O     O_R   0.026530 0.853900 0.068980 -0.467126
O23   O     O_3   0.000000 0.000000 0.020040 -0.347919
O24   O     O_R   0.148270 0.170520 0.969620 -0.475589
O25   O     O_R   0.829480 0.977750 0.969620 -0.528184
O26   O     O_R   0.022250 0.851730 0.969620 -0.507778
S1    S     S_3+6 0.549202 0.947034 0.837156 0.143322
O27   O     O_2   0.492597 0.988372 0.805916 -0.123723
O28   O     O_2   0.492157 0.910411 0.885285 -0.138372
O29   O     O_3   0.668523 0.049683 0.852316 -0.521991
H25   H     H_    0.653625 0.103271 0.866532 0.407132
S2    S     S_3+6 0.063211 0.606010 0.840417 0.138883
O30   O     O_2   0.023231 0.509184 0.809118 -0.134417
O31   O     O_2   0.108852 0.588907 0.887482 -0.107741
O32   O     O_3   0.957419 0.615918 0.857195 -0.539351
H26   H     H_    0.909615 0.548259 0.873469 0.404201
S3    S     S_3+6 0.346098 0.396622 0.847628 0.158883
O33   O     O_2   0.407466 0.353385 0.822182 -0.169468
O34   O     O_2   0.420466 0.510218 0.859138 -0.086238
O35   O     O_3   0.306249 0.335450 0.902203 -0.502632
H27   H     H_    0.372074 0.349853 0.920040 0.390783
Cl1   Cl    Cl    0.469446 0.722828 0.842542 -0.374824
Cl2   Cl    Cl    0.278504 0.774795 0.849518 -0.368765
Cl3   Cl    Cl    0.186466 0.453709 0.848222 -0.334956
Cl4   Cl    Cl    0.912177 0.050432 0.164917 -0.437909
Cl5   Cl    Cl    0.938286 0.826132 0.162099 -0.429192
Cl6   Cl    Cl    0.322429 0.249072 0.132750 -0.397964
Cl7   Cl    Cl    0.715654 0.992687 0.410155 -0.492766
Cl8   Cl    Cl    0.001788 0.701219 0.402965 -0.487848
Cl9   Cl    Cl    0.280640 0.285320 0.408247 -0.493825
S4    S     S_3+6 0.819278 0.167635 0.228793 0.075694
O36   O     O_2   0.936099 0.218736 0.239025 -0.255145
O37   O     O_2   0.799112 0.175682 0.174721 -0.182664
O38   O     O_3   0.770047 0.230619 0.261649 -0.496934
H28   H     H_    0.816612 0.306226 0.254284 0.395477
S5    S     S_3+6 0.839837 0.604099 0.216537 0.081047
O39   O     O_2   0.769851 0.650826 0.225587 -0.218924
O40   O     O_2   0.842077 0.584811 0.162132 -0.188996
O41   O     O_3   0.790537 0.488801 0.246598 -0.524654
H29   H     H_    0.718746 0.444519 0.232205 0.398719
S6    S     S_3+6 0.257818 0.110267 0.230877 0.077972
O42   O     O_2   0.182189 0.051957 0.189095 -0.203814
O43   O     O_2   0.368188 0.139238 0.216167 -0.216318
O44   O     O_3   0.223366 0.029819 0.280117 -0.502849
H30   H     H_    0.290838 0.045448 0.296655 0.355609
S7    S     S_3+6 0.560191 0.687318 0.097545 0.068775
O45   O     O_2   0.589021 0.601769 0.098742 -0.210936
O46   O     O_2   0.443429 0.639869 0.105873 -0.243457
O47   O     O_3   0.587291 0.744218 0.041505 -0.492861
H31   H     H_    0.550778 0.685265 0.017654 0.398098
S8    S     S_3+6 0.327850 0.894336 0.099127 0.078375
O48   O     O_2   0.402874 0.010814 0.103110 -0.202944
O49   O     O_2   0.387978 0.836302 0.107307 -0.234513
O50   O     O_3   0.273490 0.865205 0.041976 -0.481627
H32   H     H_    0.334233 0.895984 0.019294 0.401338
S9    S     S_3+6 0.083990 0.424106 0.100152 0.089201
O51   O     O_2   0.141072 0.541481 0.107803 -0.253357
O52   O     O_2   0.967424 0.382002 0.106370 -0.160518
O53   O     O_3   0.105655 0.400054 0.041956 -0.428778
H33   H     H_    0.183665 0.436260 0.039152 0.367383
Cl10  Cl    Cl    0.460212 0.873797 0.717593 -0.560180
Cl11  Cl    Cl    0.157403 0.594420 0.729554 -0.573116
Cl12  Cl    Cl    0.397310 0.498983 0.745706 -0.478639
S10   S     S_3+6 0.802571 0.912534 0.675846 0.118233
O54   O     O_2   0.900034 0.931224 0.702734 -0.113224
O55   O     O_2   0.758476 0.810002 0.648809 -0.282843
O56   O     O_3   0.836326 0.001829 0.630234 -0.376314
H34   H     H_    0.881116 0.987711 0.607809 0.368254
S11   S     S_3+6 0.058624 0.853918 0.668743 0.134484
O57   O     O_2   0.081476 0.949557 0.696142 -0.115883
O58   O     O_2   0.136303 0.885802 0.627604 -0.245638
O59   O     O_3   0.940186 0.807687 0.640847 -0.408495
H35   H     H_    0.952420 0.854480 0.612176 0.376162
S12   S     S_3+6 0.114455 0.185784 0.659736 0.162234
O60   O     O_2   0.005980 0.128698 0.680122 -0.157592
O61   O     O_2   0.114628 0.246682 0.614974 -0.247825
O62   O     O_3   0.143041 0.096016 0.637818 -0.345267
H36   H     H_    0.092788 0.061621 0.609843 0.369229
S13   S     S_3+6 0.692339 0.025412 0.695403 0.142976
O63   O     O_2   0.801688 0.115167 0.691131 -0.155976
O64   O     O_2   0.638813 0.001111 0.645388 -0.189771
O65   O     O_3   0.632512 0.069152 0.733642 -0.410731
H37   H     H_    0.651010 0.140023 0.721315 0.409438
S14   S     S_3+6 0.979545 0.633042 0.685108 0.158187
O66   O     O_2   0.880005 0.622306 0.662543 -0.141368
O67   O     O_2   0.034443 0.614122 0.643289 -0.182779
O68   O     O_3   0.940678 0.535175 0.726387 -0.387373
H38   H     H_    0.870742 0.521385 0.738025 0.389371
S15   S     S_3+6 0.339594 0.306565 0.681826 0.166583
O69   O     O_2   0.333126 0.229173 0.643710 -0.166287
O70   O     O_2   0.391565 0.410716 0.655715 -0.212083
O71   O     O_3   0.422159 0.309686 0.726774 -0.397601
H39   H     H_    0.481745 0.310017 0.709387 0.407220
Cl13  Cl    Cl    0.877742 0.000155 0.793096 -0.485033
Cl14  Cl    Cl    0.961921 0.835728 0.779499 -0.472724
Cl15  Cl    Cl    0.108178 0.087249 0.765434 -0.414360
S16   S     S_3+6 0.655027 0.626629 0.715386 0.166640
O72   O     O_2   0.598183 0.520577 0.739398 -0.085823
O73   O     O_2   0.627500 0.612068 0.661179 -0.163398
O74   O     O_3   0.782547 0.666622 0.725220 -0.439523
H40   H     H_    0.819941 0.735399 0.709225 0.429530
S17   S     S_3+6 0.334158 0.022333 0.704747 0.156535
O75   O     O_2   0.278102 0.083938 0.708428 -0.148255
O76   O     O_2   0.443132 0.088564 0.726596 -0.167001
O77   O     O_3   0.347141 0.000494 0.645048 -0.438648
H41   H     H_    0.393048 0.071166 0.630956 0.398911
S18   S     S_3+6 0.979430 0.335238 0.685750 0.159078
O78   O     O_2   0.881340 0.315303 0.712354 -0.148095
O79   O     O_2   0.021843 0.438645 0.660275 -0.179010
O80   O     O_3   0.946471 0.247615 0.639682 -0.373243
H42   H     H_    0.901124 0.261685 0.616800 0.391723
Cl16  Cl    Cl    0.652386 0.656140 0.838355 -0.368708
Cl17  Cl    Cl    0.310795 0.011870 0.830361 -0.401836
Cl18  Cl    Cl    0.951874 0.275410 0.814620 -0.382935

loop_
_geom_bond_atom_site_label_1
_geom_bond_atom_site_label_2
_ccdc_geom_bond_type
C79   S10   S    
C22   O24   A    
C10   C85   T    
O44   H30   S    
C82   C94   S    
C22   O5    A    
C2    C18   S    
C55   C70   A    
C33   C45   A    
Cr3   O16   S    
S3    O33   D    
C48   C75   A    
Cr1   O7    S    
C7    H22   S    
Cr1   O1    S    
C27   C78   A    
C6    C9    S    
S12   O61   D    
O32   H26   S    
C53   C59   A    
C67   H1    S    
O77   H41   S    
C54   C60   A    
O53   H33   S    
S17   O75   D    
C84   H21   S    
C67   C88   S    
C33   C39   A    
C31   C43   A    
C60   C63   A    
C92   S2    S    
O29   H25   S    
S3    O34   D    
Cr6   O6    S    
C91   S1    S    
C37   C40   A    
C69   C93   S    
C80   C83   S    
Cr6   O19   S    
S18   O78   D    
Cr5   O18   S    
Cr4   O4    S    
C45   C48   A    
C28   C40   A    
C11   C86   T    
S16   O72   D    
S13   O64   D    
C30   C57   A    
C34   O13   A    
C5    Cl17  S    
S13   O65   S    
S14   O68   S    
C6    Cl18  S    
C84   C96   S    
C80   C89   S    
S8    O49   D    
C7    C88   S    
S5    O39   D    
S12   O60   D    
S6    O44   S    
C24   O26   A    
C33   C72   A    
Cr6   O22   S    
O71   H39   S    
C63   H12   S    
C25   Cl7   S    
C75   S9    S    
C31   C70   A    
C66   C72   A    
O62   H36   S    
Cr4   O20   S    
C59   H14   S    
S4    O37   D    
S9    O53   S    
C82   Cl13  S    
C68   Cl11  S    
C4    Cl16  S    
S15   O69   D    
C81   S15   S    
Cr3   O12   S    
C32   C71   A    
C64   C70   A    
S1    O28   D    
C36   C76   S    
C36   O11   A    
C82   H19   S    
C62   C65   A    
C52   C55   A    
C39   S6    S    
C2    O1    A    
C49   C52   A    
C58   C61   A    
Cr2   O2    S    
C63   C66   A    
C57   C72   A    
C80   S11   S    
Cr2   O16   S    
C27   C30   A    
S2    O31   D    
S15   O70   D    
C14   C17   T    
S14   O66   D    
C30   C42   A    
C4    C7    S    
C1    O7    A    
O65   H37   S    
C5    C95   S    
C28   C55   A    
S17   O76   D    
S13   O63   D    
C39   C42   A    
C15   C18   T    
C93   Cl3   S    
C49   C76   A    
C50   C53   A    
S9    O51   D    
Cr3   O3    S    
Cr2   O11   S    
C50   H17   S    
C26   C77   A    
C21   O22   A    
C91   Cl1   S    
S3    O35   S    
C21   O17   A    
C62   H11   S    
S11   O59   S    
S18   O79   D    
C21   C47   S    
C69   H3    S    
C19   C48   S    
O50   H32   S    
C59   C62   A    
S16   O73   D    
O56   H34   S    
C81   S12   S    
C4    H4    S    
Cr5   O25   S    
C92   C95   S    
C65   C74   A    
C31   C37   A    
Cr2   O14   S    
C25   C28   A    
S5    O41   S    
S7    O46   D    
S2    O30   D    
C9    C90   S    
C61   C64   A    
S11   O57   D    
C44   Cl5   S    
C14   C89   S    
C27   Cl9   S    
C45   Cl6   S    
C35   O14   A    
C79   C82   S    
C1    O3    A    
C49   H16   S    
C74   S8    S    
C92   Cl2   S    
C64   C73   A    
S4    O38   S    
C83   C95   S    
O80   H42   S    
C67   C91   S    
C51   H18   S    
C32   C44   A    
C20   O21   A    
Cr3   O9    S    
C60   H15   S    
C6    H6    S    
C2    O8    A    
C22   C87   S    
C52   C58   A    
S1    O29   S    
S14   O67   D    
C19   O18   A    
S9    O52   D    
C38   C41   A    
C4    C94   S    
C81   C90   S    
Cr5   O5    S    
S10   O55   D    
C19   O20   A    
S10   O54   D    
C93   C96   S    
C32   C38   A    
C41   H8    S    
O35   H27   S    
S15   O71   S    
O59   H35   S    
C69   Cl12  S    
C69   C90   S    
C50   C77   A    
S17   O77   S    
C81   C84   S    
C67   Cl10  S    
O38   H28   S    
C5    H5    S    
C53   C56   A    
C11   C95   S    
C36   O15   A    
C23   O25   A    
O74   H40   S    
Cr5   O21   S    
S16   O74   S    
C43   Cl4   S    
C12   C87   T    
C29   C41   A    
C3    O2    A    
C1    C17   S    
Cr3   O15   S    
C42   H9    S    
C9    S18   S    
C68   H2    S    
C47   C74   A    
C80   S14   S    
Cr1   O13   S    
Cr4   O17   S    
C35   O10   A    
C5    C8    S    
C44   C47   A    
C40   H7    S    
C29   C56   A    
Cr4   O23   S    
S10   O56   S    
C37   S4    S    
C83   Cl14  S    
C35   C78   S    
C6    C96   S    
C9    H24   S    
C38   S5    S    
C51   C54   A    
Cr4   O24   S    
S7    O45   D    
C25   C76   A    
S18   O80   S    
S11   O58   D    
S7    O47   S    
C51   C78   A    
S6    O42   D    
C34   C77   S    
C65   C71   A    
C91   C94   S    
S8    O50   S    
O41   H29   S    
C58   H13   S    
C26   Cl8   S    
C66   C75   A    
C13   C88   S    
Cr5   O23   S    
C68   C92   S    
C34   O12   A    
C23   O6    A    
C3    O9    A    
Cr2   O8    S    
C46   C73   A    
C83   H20   S    
S8    O48   D    
C43   C46   A    
S5    O40   D    
Cr1   O16   S    
S6    O43   D    
C73   S7    S    
Cr6   O23   S    
O47   H31   S    
C24   O4    A    
C8    H23   S    
C79   C88   S    
C8    S17   S    
C26   C29   A    
S2    O32   S    
S4    O36   D    
C23   C85   S    
C13   C16   T    
C7    S16   S    
C93   S3    S    
C20   O19   A    
C12   C96   S    
C84   Cl15  S    
C8    C89   S    
Cr1   O10   S    
C68   C89   S    
S1    O27   D    
O68   H38   S    
C61   H10   S    
C24   C86   S    
C79   S13   S    
S12   O62   S    
C20   C46   S    
C3    C16   S    
C56   C71   A    
Cr6   O26   S    
C15   C90   S    
C54   C57   A    
C10   C94   S    
