data_mof_unit_36777.cif
_audit_creation_date              2012-12-11T15:18:34-0500
_audit_creation_method            fapswitch 2.2
_symmetry_space_group_name_H-M    P1
_symmetry_Int_Tables_number       1
_space_group_crystal_system       triclinic
_cell_length_a                    6.945591
_cell_length_b                    19.916016
_cell_length_c                    23.74829
_cell_angle_alpha                 93.480257
_cell_angle_beta                  91.316916
_cell_angle_gamma                 88.493505
_cell_volume                      3277.12058058

loop_
_atom_site_label
_atom_site_type_symbol
_atom_type_description
_atom_site_fract_x
_atom_site_fract_y
_atom_site_fract_z
_atom_type_partial_charge
O1    O     O_R   0.620100 0.812200 0.810870 -0.541393
O2    O     O_R   0.379900 0.187800 0.189130 -0.541160
O3    O     O_R   0.296960 0.671650 0.794750 -0.536936
O4    O     O_R   0.703040 0.328350 0.205250 -0.535674
O5    O     O_R   0.120160 0.687800 0.689130 -0.540790
O6    O     O_R   0.879840 0.312200 0.310870 -0.540940
C1    C     C_R   0.469162 0.647180 0.805015 0.696447
C2    C     C_R   0.531224 0.352668 0.194816 0.696777
O7    O     O_R   0.290810 0.810670 0.817290 -0.540688
O8    O     O_R   0.709190 0.189330 0.182710 -0.540487
O9    O     O_R   0.113980 0.827820 0.711840 -0.537033
O10   O     O_R   0.886020 0.172180 0.288160 -0.537238
C3    C     C_R   0.459474 0.831634 0.834384 0.706199
C4    C     C_R   0.540533 0.168313 0.165650 0.705380
O11   O     O_R   0.626290 0.672180 0.788160 -0.536105
O12   O     O_R   0.373710 0.327820 0.211840 -0.536752
O13   O     O_3   0.451520 0.755460 0.715370 -0.368594
O14   O     O_3   0.548480 0.244540 0.284630 -0.368969
V1    V     V_3+5 0.179200 0.748980 0.756420 1.425463
V2    V     V_3+5 0.820800 0.251020 0.243580 1.428654
O15   O     O_R   0.783880 0.828350 0.705250 -0.536689
O16   O     O_R   0.216120 0.171650 0.294750 -0.536826
C5    C     C_R   0.949610 0.852816 0.695033 0.695629
C6    C     C_R   0.050390 0.147183 0.304966 0.695116
O17   O     O_R   0.790030 0.689320 0.682700 -0.543212
O18   O     O_R   0.209970 0.310680 0.317300 -0.543274
C7    C     C_R   0.959008 0.668204 0.665660 0.707736
C8    C     C_R   0.040991 0.331797 0.334340 0.707530
V3    V     V_3+5 0.678400 0.751010 0.743570 1.422276
V4    V     V_3+5 0.321600 0.248990 0.256430 1.423656
O19   O     O_3   0.955950 0.744540 0.784620 -0.367728
O20   O     O_3   0.044050 0.255460 0.215380 -0.366913
C9    C     C_R   0.181151 0.425832 0.396311 -0.214473
C10   C     C_R   0.818845 0.574173 0.603686 -0.214792
C11   C     C_R   0.030799 0.380833 0.383954 -0.081538
C12   C     C_R   0.969197 0.619172 0.616043 -0.081701
C13   C     C_R   0.868493 0.383758 0.418603 -0.211253
C14   C     C_R   0.131494 0.616251 0.581391 -0.211165
C15   C     C_R   0.856362 0.430464 0.465257 0.089743
C16   C     C_R   0.143622 0.569547 0.534735 0.089789
C17   C     C_R   0.006322 0.476070 0.476809 0.056181
C18   C     C_R   0.993662 0.523941 0.523183 0.056205
C19   C     C_R   0.168773 0.473955 0.442017 0.090603
C20   C     C_R   0.831215 0.526055 0.557977 0.090631
C21   C     C_R   0.696785 0.432433 0.500598 -0.174048
C22   C     C_R   0.303196 0.567580 0.499393 -0.174118
C23   C     C_R   0.684506 0.479701 0.546574 -0.175474
C24   C     C_R   0.315478 0.520311 0.453417 -0.175603
H1    H     H_    0.306012 0.424327 0.369636 0.120917
H2    H     H_    0.693991 0.575675 0.630363 0.120886
H3    H     H_    0.752338 0.349124 0.409605 0.128234
H4    H     H_    0.247647 0.650886 0.590388 0.128285
H5    H     H_    0.580587 0.397655 0.492472 0.140400
H6    H     H_    0.419392 0.602358 0.507518 0.140371
H7    H     H_    0.559317 0.480284 0.573019 0.137984
H8    H     H_    0.440666 0.519728 0.426972 0.137833
C25   C     C_R   0.947350 0.914358 0.663487 -0.045803
C26   C     C_R   0.052649 0.085641 0.336511 -0.045782
C27   C     C_R   0.861837 0.032396 0.659798 -0.093994
C28   C     C_R   0.138155 0.967602 0.340199 -0.093966
C29   C     C_R   0.880343 0.974677 0.689827 -0.194012
C30   C     C_R   0.119652 0.025321 0.310170 -0.193878
C31   C     C_R   0.995342 0.911972 0.606187 -0.167670
C32   C     C_R   0.004658 0.088026 0.393810 -0.167708
C33   C     C_R   0.973853 0.970014 0.573970 0.047836
C34   C     C_R   0.026142 0.029983 0.426027 0.047852
C35   C     C_R   0.906184 0.030711 0.602257 0.003753
C36   C     C_R   0.093808 0.969287 0.397740 0.003742
C37   C     C_R   0.014053 0.969800 0.514804 -0.035611
C38   C     C_R   0.985942 0.030197 0.485193 -0.035615
C39   C     C_R   0.919279 0.088854 0.515762 -0.228787
C40   C     C_R   0.080712 0.911143 0.484235 -0.228774
C41   C     C_R   0.880760 0.089133 0.572882 0.600176
C42   C     C_R   0.119230 0.910864 0.427114 0.600087
H9    H     H_    0.956618 0.136245 0.411990 0.095577
H10   H     H_    0.043386 0.863753 0.588008 0.095599
H11   H     H_    0.159251 0.023071 0.266209 0.113546
H12   H     H_    0.840743 0.976928 0.733788 0.113314
H13   H     H_    0.809405 0.078343 0.681690 0.181643
H14   H     H_    0.190584 0.921654 0.318306 0.181660
H15   H     H_    0.894347 0.136030 0.496688 0.153604
H16   H     H_    0.105641 0.863967 0.503309 0.153589
C43   C     C_R   0.494406 0.585929 0.836813 -0.060893
C44   C     C_R   0.513499 0.414791 0.163968 -0.059193
C45   C     C_R   0.641022 0.474763 0.840648 -0.133906
C46   C     C_R   0.431552 0.533532 0.164208 -0.134490
C47   C     C_R   0.581299 0.529055 0.809908 -0.145480
C48   C     C_R   0.450867 0.474430 0.192487 -0.151617
C49   C     C_R   0.466515 0.587637 0.895451 -0.216143
C50   C     C_R   0.554450 0.414630 0.106205 -0.209851
C51   C     C_R   0.543651 0.535499 0.928719 0.085252
C52   C     C_R   0.544930 0.475072 0.076890 0.083882
C53   C     C_R   0.625170 0.477717 0.899546 0.060880
C54   C     C_R   0.476387 0.534282 0.106883 0.058748
C55   C     C_R   0.540274 0.537825 0.989466 -0.085786
C56   C     C_R   0.591504 0.478223 0.018377 -0.084979
C57   C     C_R   0.692192 0.425096 0.987675 0.348647
C58   C     C_R   0.495022 0.597704 0.023063 0.348538
C59   C     C_R   0.699880 0.424361 0.929226 -0.177112
C60   C     C_R   0.456947 0.594494 0.080082 -0.179944
H17   H     H_    0.773763 0.382463 0.906905 0.152219
H18   H     H_    0.417308 0.640583 0.104205 0.153362
H19   H     H_    0.584870 0.366354 0.084734 0.154089
H20   H     H_    0.387919 0.630560 0.913940 0.156723
H21   H     H_    0.416498 0.475172 0.236806 0.106537
H22   H     H_    0.606273 0.527253 0.764951 0.105382
H23   H     H_    0.707008 0.431207 0.818451 0.123054
H24   H     H_    0.381398 0.579002 0.187335 0.124330
C61   C     C_R   0.685818 0.075517 0.103012 -0.148709
C62   C     C_R   0.314079 0.924293 0.897113 -0.149995
C63   C     C_R   0.530105 0.119696 0.115775 -0.081558
C64   C     C_R   0.469844 0.880152 0.884320 -0.080476
C65   C     C_R   0.362553 0.116486 0.081408 -0.209879
C66   C     C_R   0.637280 0.883279 0.918740 -0.205100
C67   C     C_R   0.350510 0.070909 0.033542 0.012337
C68   C     C_R   0.649234 0.928810 0.966643 0.013630
C69   C     C_R   0.505744 0.024461 0.022847 0.013444
C70   C     C_R   0.494010 0.975261 0.977338 0.013197
C71   C     C_R   0.673061 0.027108 0.057700 0.070416
C72   C     C_R   0.326725 0.972632 0.942473 0.070952
C73   C     C_R   0.186248 0.069029 0.996642 0.321661
C74   C     C_R   0.813425 0.930653 0.003569 0.324116
C75   C     C_R   0.175141 0.019170 0.952674 -0.142822
C76   C     C_R   0.824576 0.980530 0.047525 -0.142210
H25   H     H_    0.814926 0.077310 0.129574 0.115379
H26   H     H_    0.185017 0.922534 0.870531 0.115152
H27   H     H_    0.242427 0.149772 0.092796 0.132380
H28   H     H_    0.757400 0.849987 0.907355 0.130018
H29   H     H_    0.047537 0.017805 0.925483 0.142495
H30   H     H_    0.952172 0.981888 0.074720 0.143002
O21   O     O_3   0.804136 0.376988 0.013095 -0.645838
H31   H     H_    0.865415 0.399010 0.047293 0.290122
O22   O     O_3   0.507541 0.661269 0.003898 -0.645789
H32   H     H_    0.619685 0.660729 0.978742 0.285269
O23   O     O_3   0.033254 0.114444 0.001631 -0.639510
H33   H     H_    0.082201 0.158557 0.015958 0.294727
O24   O     O_3   0.966322 0.885196 0.998603 -0.639107
H34   H     H_    0.917275 0.841100 0.984265 0.292793
F1    F     F_    0.816226 0.147443 0.599554 -0.679945
F2    F     F_    0.183760 0.852554 0.400442 -0.680139

loop_
_geom_bond_atom_site_label_1
_geom_bond_atom_site_label_2
_ccdc_geom_bond_type
C26   C30   A    
C43   C47   A    
C31   C33   A    
C67   C73   A    
O13   V3    S    
C17   C18   A    
C30   H11   S    
C1    C43   S    
C55   C56   A    
C24   H8    S    
O4    C2    A    
V1    O19   S    
C64   C66   A    
C55   C58   A    
O23   H33   S    
C15   C17   A    
C71   C76   A    
C16   C22   A    
C58   O22   S    
O9    V1    S    
C68   C74   A    
C11   C13   A    
C3    C64   S    
O3    C1    A    
C69   C71   A    
C13   H3    S    
C46   C48   A    
C14   H4    S    
C31   H10   S    
C36   C42   A    
C52   C56   A    
C28   C30   A    
O7    C3    A    
C46   C54   A    
C27   C35   A    
O5    C7    A    
C45   C53   A    
O7    V1    S    
O6    C8    A    
C8    C11   S    
O8    V2    S    
C33   C35   A    
O3    V1    S    
C38   C39   A    
C35   C41   A    
C49   C51   A    
C19   C24   A    
C53   C59   A    
C10   C12   A    
C20   C23   A    
C15   C21   A    
C21   C23   A    
C74   O24   S    
C21   H5    S    
C2    O12   A    
C75   H29   S    
O17   V3    S    
C17   C19   A    
O10   V2    S    
C44   C50   A    
O1    V3    S    
C57   C59   A    
O11   V3    S    
C70   C72   A    
C45   C47   A    
C26   C32   A    
C4    C63   S    
C43   C49   A    
C22   C24   A    
C27   C29   A    
C10   H2    S    
C34   C36   A    
C9    C19   A    
C6    C26   S    
C10   C20   A    
C57   O21   S    
C40   C42   A    
O8    C4    A    
C27   H13   S    
C39   C41   A    
C1    O11   A    
C41   F1    S    
C67   C69   A    
C42   F2    S    
C32   C34   A    
C37   C40   A    
V4    O20   S    
C51   C53   A    
C66   H28   S    
C50   C52   A    
C54   C60   A    
C29   H12   S    
C56   C57   A    
C22   H6    S    
C60   H18   S    
C76   H30   S    
C63   C65   A    
C73   O23   S    
C62   H26   S    
C65   H27   S    
C61   H25   S    
C59   H17   S    
O18   V4    S    
C58   C60   A    
O15   C5    A    
C49   H20   S    
O22   H32   S    
O16   C6    A    
O1    C3    A    
C62   C72   A    
O21   H31   S    
C74   C76   A    
C61   C71   A    
C23   H7    S    
V2    O20   S    
C5    C25   S    
C28   H14   S    
O16   V4    S    
C2    C44   S    
C46   H24   S    
C44   C48   A    
C25   C31   A    
C16   C18   A    
C66   C68   A    
C72   C75   A    
C25   C29   A    
O5    V1    S    
C7    C12   S    
O17   C7    A    
O6    V2    S    
O24   H34   S    
O10   C6    A    
O18   C8    A    
O2    V4    S    
C61   C63   A    
C18   C20   A    
V3    O19   S    
C69   C70   A    
C12   C14   A    
C14   C16   A    
C48   H21   S    
C9    C11   A    
C52   C54   A    
C34   C38   A    
C47   H22   S    
O15   V3    S    
C33   C37   A    
O9    C5    A    
O13   V1    S    
C32   H9    S    
C68   C70   A    
O14   V2    S    
C37   C38   A    
O2    C4    A    
C62   C64   A    
C50   H19   S    
C73   C75   A    
O14   V4    S    
C51   C55   A    
O4    V2    S    
C28   C36   A    
C13   C15   A    
C9    H1    S    
C39   H15   S    
C45   H23   S    
O12   V4    S    
C40   H16   S    
C65   C67   A    
