data_mof_unit_43008.cif
_audit_creation_date              2012-12-11T15:59:33-0500
_audit_creation_method            fapswitch 2.2
_symmetry_space_group_name_H-M    P1
_symmetry_Int_Tables_number       1
_space_group_crystal_system       triclinic
_cell_length_a                    10.719848
_cell_length_b                    10.700066
_cell_length_c                    17.011124
_cell_angle_alpha                 99.04094
_cell_angle_beta                  99.909687
_cell_angle_gamma                 61.027279
_cell_volume                      1675.39099885

loop_
_atom_site_label
_atom_site_type_symbol
_atom_type_description
_atom_site_fract_x
_atom_site_fract_y
_atom_site_fract_z
_atom_type_partial_charge
C1    C     C_R   0.378648 0.717298 0.387937 0.559903
C2    C     C_R   0.873892 0.196489 0.203096 0.028948
C3    C     C_R   0.881173 0.209668 0.287262 0.023630
C4    C     C_R   0.789369 0.467474 0.286444 -0.146433
C5    C     C_R   0.794944 0.453815 0.206004 -0.157012
C6    C     C_R   0.899588 0.060929 0.162563 -0.071676
C7    C     C_R   0.950092 0.940746 0.204592 -0.132765
C8    C     C_R   0.973072 0.952437 0.287601 -0.131904
C9    C     C_R   0.937995 0.085930 0.329011 -0.102619
C10   C     C_R   0.829434 0.347228 0.327478 0.007499
C11   C     C_R   0.363439 0.796773 0.150491 0.006441
C12   C     C_R   0.366055 0.343565 0.358653 0.550164
C13   C     C_R   0.461558 0.821276 0.209413 0.005817
C14   C     C_R   0.448980 0.821204 0.290301 -0.014239
C15   C     C_R   0.299288 0.702922 0.247024 -0.151475
C16   C     C_R   0.292876 0.726170 0.168717 -0.138773
C17   C     C_R   0.567027 0.851424 0.190527 -0.128250
C18   C     C_R   0.646279 0.896352 0.250404 -0.122177
C19   C     C_R   0.620504 0.915171 0.330093 0.148661
C20   C     C_R   0.516621 0.885166 0.348975 -0.057909
C21   C     C_R   0.368993 0.757288 0.308623 0.008334
C22   C     C_R   0.329053 0.348293 0.825659 0.020614
C23   C     C_R   0.777314 0.377492 0.404488 0.531379
C24   C     C_R   0.462024 0.267224 0.795651 0.057615
C25   C     C_R   0.461578 0.228156 0.713235 0.005310
C26   C     C_R   0.217726 0.425063 0.693897 -0.159363
C27   C     C_R   0.207847 0.432808 0.775000 -0.163551
C28   C     C_R   0.591835 0.209046 0.846772 0.168656
C29   C     C_R   0.709920 0.085492 0.819110 -0.082731
C30   C     C_R   0.701363 0.027780 0.740214 -0.152548
C31   C     C_R   0.579750 0.099722 0.686965 -0.086173
C32   C     C_R   0.343745 0.321920 0.661513 -0.004746
C33   C     C_1   0.847182 0.328138 0.705444 -0.039785
C34   C     C_R   0.380974 0.715674 0.631851 0.566929
C35   C     C_1   0.894378 0.293738 0.772358 -0.037566
C36   C     C_1   0.358197 0.765917 0.713996 -0.035894
C37   C     C_1   0.325225 0.812682 0.780773 -0.035216
C38   C     C_R   0.896053 0.306105 0.088812 0.532409
C39   C     C_R   0.291856 0.260590 0.122242 0.577635
C40   C     C_R   0.300273 0.882200 0.081698 0.547758
C41   C     C_R   0.944138 0.273690 0.854864 0.562743
C42   C     C_R   0.307295 0.296722 0.893971 0.555390
C43   C     C_R   0.280554 0.881497 0.857726 0.549395
C44   C     C_R   0.370524 0.345117 0.584773 0.539824
C45   C     C_R   0.778219 0.378026 0.628933 0.543748
C46   C     C_1   0.324908 0.317547 0.276818 -0.047113
C47   C     C_1   0.306194 0.291884 0.206229 -0.034218
C48   C     C_R   0.841990 0.319687 0.163917 -0.012190
Cr1   Cr    Cr6+3 0.608100 0.610860 0.522250 0.995317
Cr2   Cr    Cr6+3 0.288890 0.599990 0.488420 0.995060
Cr3   Cr    Cr6+3 0.603040 0.289190 0.489390 1.014922
Cr4   Cr    Cr6+3 0.053960 0.052250 0.967380 0.976869
Cr5   Cr    Cr6+3 0.059890 0.373160 0.992710 0.997908
Cr6   Cr    Cr6+3 0.373370 0.061690 0.991710 0.984271
H1    H     H_    0.748110 0.575081 0.315863 0.155540
H2    H     H_    0.726139 0.918365 0.234324 0.119756
H3    H     H_    0.488446 0.916514 0.409465 0.157054
H4    H     H_    0.126633 0.497815 0.656283 0.139850
H5    H     H_    0.104428 0.499305 0.797209 0.143773
H6    H     H_    0.806965 0.032527 0.858851 0.147627
H7    H     H_    0.790950 0.929665 0.719512 0.118309
H8    H     H_    0.577548 0.050649 0.626472 0.147232
H9    H     H_    0.876065 0.044817 0.098806 0.133453
H10   H     H_    0.767792 0.548530 0.177142 0.141838
H11   H     H_    0.969820 0.838221 0.172569 0.103381
H12   H     H_    0.012284 0.858851 0.320024 0.139839
H13   H     H_    0.955008 0.091771 0.393795 0.126913
H14   H     H_    0.244467 0.647082 0.259887 0.127948
H15   H     H_    0.593681 0.834903 0.129999 0.138509
H16   H     H_    0.224313 0.698209 0.123153 0.136392
O1    O     O_R   0.749810 0.499790 0.438040 -0.534997
O2    O     O_R   0.298970 0.468800 0.557390 -0.512103
O3    O     O_R   0.489400 0.255930 0.561910 -0.517547
O4    O     O_R   0.723890 0.306050 0.584610 -0.493875
O5    O     O_3   0.500010 0.500010 0.500020 -0.272683
O6    O     O_R   0.171100 0.914680 0.053100 -0.518189
O7    O     O_R   0.941680 0.184840 0.050710 -0.519520
O8    O     O_R   0.922080 0.403420 0.072610 -0.520163
O9    O     O_R   0.196880 0.369150 0.083850 -0.505744
O10   O     O_R   0.411730 0.181020 0.091530 -0.538845
O11   O     O_R   0.365010 0.944360 0.063320 -0.522073
O12   O     O_R   0.477660 0.726260 0.439290 -0.516778
O13   O     O_R   0.159380 0.906670 0.876210 -0.519920
O14   O     O_R   0.930820 0.177420 0.886730 -0.516799
O15   O     O_R   0.910360 0.395420 0.895720 -0.514203
O16   O     O_R   0.186010 0.361730 0.919870 -0.519346
O17   O     O_R   0.400000 0.173010 0.914630 -0.514424
O18   O     O_R   0.354140 0.936940 0.899340 -0.494590
O19   O     O_3   0.162410 0.162370 0.983930 -0.273681
O20   O     O_R   0.260150 0.743000 0.412270 -0.523414
O21   O     O_R   0.297740 0.466550 0.394720 -0.519474
O22   O     O_R   0.488080 0.253500 0.386430 -0.482992
O23   O     O_R   0.722670 0.303800 0.421940 -0.505637
O24   O     O_R   0.751130 0.502220 0.613520 -0.517059
O25   O     O_R   0.478890 0.728510 0.601960 -0.486499
O26   O     O_R   0.261470 0.745430 0.587750 -0.506430
N1    N     N_2   0.698019 0.965137 0.391503 -0.486939
H17   H     H_    0.747691 0.013689 0.371339 0.265435
C49   C     C_3   0.790196 0.864212 0.449853 -0.299120
H18   H     H_    0.843088 0.914499 0.495831 0.136332
H19   H     H_    0.874320 0.766793 0.420157 0.133411
H20   H     H_    0.727052 0.833424 0.480636 0.148740
N2    N     N_2   0.606630 0.287836 0.920367 -0.534266
H21   H     H_    0.680275 0.324053 0.922028 0.282864
C50   C     C_3   0.613904 0.231601 0.993897 -0.238729
H22   H     H_    0.650615 0.114232 0.986015 0.147688
H23   H     H_    0.508159 0.291758 0.017054 0.199655
H24   H     H_    0.686304 0.253067 0.040740 0.117674

loop_
_geom_bond_atom_site_label_1
_geom_bond_atom_site_label_2
_ccdc_geom_bond_type
Cr1   O12   S    
C1    C21   S    
C1    O20   A    
C43   O13   A    
C12   O21   A    
C19   C20   A    
Cr3   O4    S    
N1    H17   S    
C19   N1    S    
C7    C8    A    
C22   C42   S    
C26   C32   A    
C50   H23   S    
C26   C27   A    
C43   O18   A    
C14   C21   A    
C36   C37   T    
Cr5   O9    S    
Cr3   O5    S    
Cr6   O17   S    
Cr3   O3    S    
C15   C16   A    
C33   C45   S    
C25   C31   A    
C18   C19   A    
Cr4   O14   S    
Cr2   O2    S    
C17   H15   S    
N1    C49   S    
Cr2   O20   S    
C8    C9    A    
Cr1   O5    S    
Cr5   O16   S    
C42   O16   A    
Cr1   O24   S    
C38   C48   S    
C18   H2    S    
C25   C32   A    
C13   C14   A    
C31   H8    S    
Cr4   O19   S    
C2    C6    A    
C45   O24   A    
C50   H24   S    
Cr6   O10   S    
C5    C48   A    
C14   C20   A    
C16   H16   S    
C34   O25   A    
Cr6   O19   S    
C12   C46   S    
C38   O8    A    
C2    C48   A    
C1    O12   A    
C41   O14   A    
C8    H12   S    
Cr1   O25   S    
C23   O23   A    
C5    H10   S    
C45   O4    A    
C39   O9    A    
C6    H9    S    
C37   C43   S    
Cr4   O13   S    
C9    H13   S    
C29   C30   A    
C3    C9    A    
C23   O1    A    
Cr3   O22   S    
C7    H11   S    
C11   C16   A    
C49   H18   S    
C29   H6    S    
C17   C18   A    
C32   C44   S    
N2    C50   S    
C24   C25   A    
C26   H4    S    
Cr3   O23   S    
C49   H19   S    
C22   C27   A    
C4    H1    S    
Cr5   O19   S    
C22   C24   A    
C4    C10   A    
Cr4   O7    S    
C39   C47   S    
C44   O3    A    
C46   C47   T    
C28   C29   A    
C40   O11   A    
C12   O22   A    
C24   C28   A    
C34   O26   A    
C4    C5    A    
Cr4   O6    S    
C6    C7    A    
C38   O7    A    
C10   C23   S    
C41   O15   A    
C50   H22   S    
C13   C17   A    
C39   O10   A    
C2    C3    A    
C3    C10   A    
C27   H5    S    
Cr2   O5    S    
Cr6   O18   S    
C11   C13   A    
C28   N2    S    
Cr2   O26   S    
C30   C31   A    
C15   H14   S    
C33   C35   T    
C44   O2    A    
C34   C36   S    
C11   C40   S    
C35   C41   S    
Cr5   O8    S    
C40   O6    A    
Cr2   O21   S    
C15   C21   A    
C49   H20   S    
Cr1   O1    S    
C30   H7    S    
N2    H21   S    
Cr5   O15   S    
C42   O17   A    
C20   H3    S    
Cr6   O11   S    
