data_mof_unit_64807.cif
_audit_creation_date              2012-12-10T17:35:17-0500
_audit_creation_method            fapswitch 2.2
_symmetry_space_group_name_H-M    P1
_symmetry_Int_Tables_number       1
_space_group_crystal_system       triclinic
_cell_length_a                    30.267319
_cell_length_b                    21.408832
_cell_length_c                    21.411283
_cell_angle_alpha                 89.684187
_cell_angle_beta                  134.983779
_cell_angle_gamma                 90.070033
_cell_volume                      9813.1364787

loop_
_atom_site_label
_atom_site_type_symbol
_atom_type_description
_atom_site_fract_x
_atom_site_fract_y
_atom_site_fract_z
_atom_type_partial_charge
C1    C     C_R   0.120338 0.500204 0.120361 0.807279
C2    C     C_3   0.499731 0.811215 0.000640 -0.026336
C3    C     C_3   0.499942 0.500946 0.188736 -0.056591
C4    C     C_3   0.968097 0.770979 0.918094 -0.215417
C5    C     C_3   0.995458 0.229606 0.937384 -0.199667
C6    C     C_3   0.468123 0.270974 0.918112 -0.215757
C7    C     C_3   0.495334 0.729599 0.937268 -0.199552
C8    C     C_3   0.000294 0.811085 0.000315 -0.054269
C9    C     C_3   0.999592 0.188776 0.000566 -0.059065
C10   C     C_3   0.500304 0.311084 0.000325 -0.054388
C11   C     C_3   0.499573 0.688772 0.000549 -0.059195
C12   C     C_3   0.059492 0.770357 0.056541 -0.231552
C13   C     C_3   0.229989 0.447348 0.205759 0.200406
C14   C     C_3   0.052924 0.229096 0.080063 -0.225458
C15   C     C_3   0.559507 0.270359 0.056570 -0.231324
C16   C     C_3   0.552946 0.729095 0.079994 -0.225669
C17   C     C_3   0.032434 0.728549 0.082078 -0.183102
C18   C     C_3   0.003927 0.270984 0.064454 -0.273648
C19   C     C_3   0.532440 0.228548 0.082091 -0.183447
C20   C     C_3   0.504003 0.770983 0.064521 -0.273516
C21   C     C_3   0.973391 0.769532 0.024738 0.507785
C22   C     C_3   0.951619 0.230020 0.985398 0.501013
C23   C     C_3   0.473394 0.269527 0.024735 0.507944
C24   C     C_3   0.229654 0.548308 0.195897 0.192438
C25   C     C_3   0.451651 0.730017 0.985511 0.501024
C26   C     C_3   0.751672 0.609680 0.872200 0.082196
C27   C     C_3   0.722922 0.652481 0.892177 -0.798518
C28   C     C_3   0.756275 0.339713 0.788432 0.086303
C29   C     C_3   0.729866 0.275700 0.777764 -0.761856
C30   C     C_3   0.251706 0.109929 0.872005 0.082307
C31   C     C_3   0.222980 0.152796 0.891963 -0.798725
C32   C     C_3   0.256273 0.839768 0.788704 0.086316
C33   C     C_3   0.229865 0.775783 0.778156 -0.761932
C34   C     C_3   0.664662 0.490274 0.417656 0.064246
C35   C     C_3   0.730057 0.949132 0.202048 0.197967
C36   C     C_3   0.716361 0.443812 0.484762 -0.798934
C37   C     C_3   0.164663 0.990297 0.417652 0.064239
C38   C     C_3   0.216332 0.943791 0.484699 -0.799029
C39   C     C_3   0.049795 0.884903 0.257145 -0.838230
C40   C     C_3   0.072617 0.103817 0.278905 -0.917011
C41   C     C_3   0.549764 0.384891 0.257113 -0.838101
C42   C     C_3   0.572650 0.603799 0.278943 -0.917149
C43   C     C_3   0.885100 0.805015 0.988049 0.061203
C44   C     C_3   0.864888 0.845687 0.022310 -0.795319
C45   C     C_3   0.914266 0.182482 0.037686 0.078587
C46   C     C_3   0.729570 0.050484 0.199376 0.194603
C47   C     C_3   0.857164 0.151971 0.009718 -0.778683
C48   C     C_3   0.385087 0.305000 0.988011 0.061234
C49   C     C_3   0.364859 0.345669 0.022252 -0.795392
C50   C     C_3   0.414420 0.682454 0.037961 0.078539
C51   C     C_3   0.357317 0.652067 0.010122 -0.778774
C52   C     C_3   0.206084 0.386584 0.154512 -0.906174
C53   C     C_3   0.205542 0.603290 0.133424 -0.893156
C54   C     C_3   0.706349 0.890445 0.146656 -0.901844
C55   C     C_3   0.705222 0.108012 0.140753 -0.896382
C56   C     C_3   0.271214 0.495096 0.212006 -0.162539
C57   C     C_3   0.771200 0.999346 0.211746 -0.162646
C58   C     C_3   0.311258 0.500368 0.311426 -0.045465
C59   C     C_3   0.811259 0.000337 0.311436 -0.045418
C60   C     C_3   0.271072 0.451776 0.305758 -0.157943
C61   C     C_R   0.620342 0.000074 0.120365 0.807384
C62   C     C_3   0.270732 0.554313 0.295711 -0.161654
C63   C     C_3   0.771145 0.949331 0.302228 -0.158887
C64   C     C_3   0.770685 0.052267 0.299542 -0.160822
C65   C     C_3   0.229374 0.505667 0.288635 -0.245847
C66   C     C_3   0.729396 0.001235 0.288927 -0.245787
C67   C     C_3   0.188777 0.500424 0.188948 0.003517
C68   C     C_3   0.688781 0.000228 0.188969 0.003499
C69   C     C_3   0.770525 0.558419 0.758050 -0.217943
C70   C     C_3   0.771454 0.460418 0.727069 -0.220196
C71   C     C_3   0.270528 0.058398 0.757953 -0.218042
C72   C     C_3   0.940647 0.728657 0.943074 -0.264556
C73   C     C_3   0.271449 0.960341 0.727135 -0.220204
C74   C     C_3   0.729221 0.518468 0.672913 -0.239893
C75   C     C_3   0.229218 0.018373 0.672884 -0.239906
C76   C     C_R   0.000374 0.620337 0.000221 0.799182
C77   C     C_R   0.999953 0.379630 0.000161 0.799033
C78   C     C_R   0.500388 0.120336 0.000235 0.799701
C79   C     C_R   0.499941 0.879629 0.000149 0.798631
C80   C     C_3   0.688902 0.499430 0.689148 -0.081060
C81   C     C_3   0.188902 0.999434 0.689158 -0.081083
C82   C     C_3   0.729862 0.538359 0.773371 0.456818
C83   C     C_3   0.946305 0.271274 0.921293 -0.179465
C84   C     C_3   0.730922 0.442621 0.743245 0.461743
C85   C     C_3   0.229867 0.038438 0.773315 0.456870
C86   C     C_3   0.230920 0.942644 0.743347 0.461718
C87   C     C_3   0.771287 0.481030 0.828689 -0.352551
C88   C     C_3   0.271290 0.981131 0.828726 -0.352444
C89   C     C_3   0.811339 0.500151 0.811554 -0.096574
C90   C     C_3   0.311339 0.000150 0.811553 -0.096584
C91   C     C_R   0.000046 0.999798 0.879688 0.778728
C92   C     C_R   0.500045 0.499802 0.879686 0.778713
C93   C     C_R   0.000098 0.879588 0.000379 0.817281
C94   C     C_3   0.440663 0.228651 0.943077 -0.264616
C95   C     C_R   0.999893 0.120359 0.000247 0.784950
C96   C     C_R   0.500100 0.379587 0.000380 0.817298
C97   C     C_R   0.499890 0.620358 0.000246 0.784920
C98   C     C_R   0.999950 0.000437 0.120359 0.828473
C99   C     C_R   0.499950 0.500438 0.120360 0.828424
C100  C     C_R   0.499536 0.500172 0.379287 0.835548
C101  C     C_R   0.999534 0.000172 0.379285 0.835547
C102  C     C_R   0.379632 0.500111 0.379840 0.785659
C103  C     C_R   0.879633 0.000107 0.379848 0.785668
C104  C     C_R   0.500051 0.499831 0.620553 0.783107
C105  C     C_3   0.446239 0.771270 0.921315 -0.179374
C106  C     C_R   0.000057 0.999831 0.620559 0.783123
C107  C     C_R   0.879664 0.500229 0.879699 0.818570
C108  C     C_R   0.379664 0.000227 0.879699 0.818548
C109  C     C_R   0.620393 0.499834 0.620733 0.856024
C110  C     C_R   0.120393 0.999834 0.620739 0.856005
C111  C     C_3   0.006061 0.058407 0.776475 -0.150324
C112  C     C_3   0.048177 0.964691 0.819117 -0.160336
C113  C     C_3   0.507116 0.558292 0.777528 -0.150345
C114  C     C_3   0.547530 0.463834 0.818478 -0.160210
C115  C     C_3   0.554537 0.522627 0.783705 -0.140097
C116  C     C_3   0.000317 0.688689 0.999904 -0.022018
C117  C     C_3   0.054118 0.023601 0.783282 -0.140425
C118  C     C_3   0.500097 0.499445 0.689159 0.028092
C119  C     C_3   0.000110 0.999441 0.689172 0.028039
C120  C     C_3   0.452656 0.535105 0.681837 -0.155686
C121  C     C_3   0.493114 0.440661 0.722909 -0.167270
C122  C     C_3   0.952037 0.034240 0.681223 -0.155357
C123  C     C_3   0.994190 0.940536 0.723985 -0.167047
C124  C     C_3   0.946096 0.975370 0.717003 -0.166947
C125  C     C_3   0.445651 0.476359 0.716550 -0.167219
C126  C     C_3   0.000100 0.999530 0.811177 0.023634
C127  C     C_3   0.999754 0.311217 0.000666 -0.026441
C128  C     C_3   0.500089 0.499537 0.811165 0.023705
C129  C     C_3   0.023344 0.946715 0.253541 0.100202
C130  C     C_3   0.034420 0.048634 0.264217 0.099210
C131  C     C_3   0.523331 0.446709 0.253527 0.100211
C132  C     C_3   0.534436 0.548626 0.264234 0.099183
C133  C     C_3   0.557637 0.494239 0.328557 0.498275
C134  C     C_3   0.057636 0.994255 0.328557 0.498326
C135  C     C_3   0.499149 0.500608 0.310605 -0.090013
C136  C     C_3   0.999147 0.000608 0.310603 -0.090061
C137  C     C_3   0.027474 0.729489 0.974469 -0.131297
C138  C     C_3   0.500337 0.188687 0.999924 -0.022181
C139  C     C_3   0.048868 0.270685 0.016718 -0.124169
C140  C     C_3   0.527504 0.229488 0.974506 -0.130631
C141  C     C_3   0.548786 0.770678 0.016550 -0.123808
C142  C     C_3   0.464221 0.452832 0.235307 -0.213828
C143  C     C_3   0.475366 0.555346 0.246134 -0.214542
C144  C     C_3   0.964233 0.952821 0.235318 -0.213710
C145  C     C_3   0.975348 0.055338 0.246115 -0.214670
C146  C     C_3   0.940633 0.007425 0.169836 -0.226075
C147  C     C_3   0.440637 0.507442 0.169840 -0.225999
C148  C     C_3   0.999940 0.000944 0.188734 -0.056570
Cu1   Cu    Cu3+1 1.000000 0.500000 0.062770 0.928410
Cu2   Cu    Cu3+1 0.499990 0.437240 0.500060 0.978529
Cu3   Cu    Cu3+1 0.999990 0.062760 0.500060 0.960870
Cu4   Cu    Cu3+1 0.999990 0.937240 0.500060 0.978280
Cu5   Cu    Cu3+1 0.500000 1.000000 0.062770 0.928408
Cu6   Cu    Cu3+1 1.000000 0.500000 0.937230 0.933544
Cu7   Cu    Cu3+1 0.500000 1.000000 0.937230 0.933571
Cu8   Cu    Cu3+1 0.937240 1.000000 0.937300 0.939681
Cu9   Cu    Cu3+1 0.437240 0.500000 0.937300 0.939678
Cu10  Cu    Cu3+1 0.062760 1.000000 0.062860 0.925702
Cu11  Cu    Cu3+1 0.562760 0.500000 0.062860 0.925737
Cu12  Cu    Cu3+1 0.499990 0.562760 0.500060 0.960612
H1    H     H_    0.942107 0.789625 0.851168 0.142275
H2    H     H_    0.790133 0.428228 0.709759 0.136841
H3    H     H_    0.813975 0.855316 0.968412 0.196860
H4    H     H_    0.875001 0.821519 0.077345 0.246823
H5    H     H_    0.930767 0.219618 0.086264 0.132076
H6    H     H_    0.951059 0.146025 0.069622 0.135527
H7    H     H_    0.840675 0.113258 0.963184 0.252579
H8    H     H_    0.869284 0.132861 0.068603 0.192906
H9    H     H_    0.819086 0.186925 0.976945 0.240008
H10   H     H_    0.358249 0.260628 0.962980 0.141736
H11   H     H_    0.373685 0.330467 0.932544 0.158600
H12   H     H_    0.390428 0.390697 0.046458 0.258009
H13   H     H_    0.288427 0.105992 0.765735 0.126084
H14   H     H_    0.313945 0.355293 0.968342 0.196849
H15   H     H_    0.374963 0.321501 0.077280 0.246842
H16   H     H_    0.431079 0.719548 0.086665 0.132022
H17   H     H_    0.451119 0.645917 0.069707 0.135644
H18   H     H_    0.340678 0.613387 0.963479 0.252531
H19   H     H_    0.369499 0.632938 0.069044 0.192952
H20   H     H_    0.319325 0.687103 0.977516 0.240027
H21   H     H_    0.246199 0.356561 0.181169 0.238825
H22   H     H_    0.177257 0.361750 0.160975 0.225202
H23   H     H_    0.177193 0.396691 0.083731 0.240702
H24   H     H_    0.290121 0.928091 0.709866 0.136829
H25   H     H_    0.245561 0.630911 0.155553 0.234571
H26   H     H_    0.177761 0.585958 0.065630 0.243678
H27   H     H_    0.175585 0.633503 0.133081 0.226084
H28   H     H_    0.746559 0.861566 0.171373 0.237574
H29   H     H_    0.677555 0.863098 0.151253 0.223748
H30   H     H_    0.677499 0.903430 0.076666 0.242457
H31   H     H_    0.745119 0.136877 0.164569 0.235739
H32   H     H_    0.677230 0.093538 0.071748 0.242497
H33   H     H_    0.675383 0.136009 0.142731 0.226278
H34   H     H_    0.789203 0.465850 0.892923 0.146605
H35   H     H_    0.289207 0.966031 0.892987 0.146651
H36   H     H_    0.599146 0.541521 0.809840 0.147541
H37   H     H_    0.098374 0.043301 0.809058 0.147702
H38   H     H_    0.010910 0.106683 0.799318 0.119752
H39   H     H_    0.087582 0.936152 0.876822 0.138303
H40   H     H_    0.512835 0.606470 0.801239 0.119913
H41   H     H_    0.992147 0.211711 0.885623 0.133099
H42   H     H_    0.586414 0.434593 0.875675 0.137910
H43   H     H_    0.413761 0.564282 0.624545 0.128673
H44   H     H_    0.487343 0.392354 0.699522 0.143812
H45   H     H_    0.912625 0.062710 0.623414 0.128110
H46   H     H_    0.989299 0.892129 0.701480 0.144007
H47   H     H_    0.901790 0.955529 0.690882 0.138332
H48   H     H_    0.400986 0.457323 0.690052 0.138692
H49   H     H_    0.049838 0.711668 0.953627 0.144381
H50   H     H_    0.089104 0.288741 0.029674 0.137801
H51   H     H_    0.549883 0.211667 0.953686 0.144549
H52   H     H_    0.442141 0.289618 0.851189 0.142358
H53   H     H_    0.588961 0.788706 0.029342 0.136508
H54   H     H_    0.435377 0.413661 0.224434 0.159626
H55   H     H_    0.455480 0.599791 0.244045 0.157410
H56   H     H_    0.935399 0.913642 0.224457 0.159727
H57   H     H_    0.955446 0.099779 0.244006 0.157422
H58   H     H_    0.892330 0.012735 0.103405 0.161523
H59   H     H_    0.392335 0.512766 0.103411 0.161562
H60   H     H_    0.108142 0.787983 0.102843 0.158230
H61   H     H_    0.096673 0.210788 0.144996 0.158000
H62   H     H_    0.608159 0.287981 0.102885 0.158503
H63   H     H_    0.491941 0.711702 0.885433 0.133157
H64   H     H_    0.596730 0.710788 0.144890 0.157898
H65   H     H_    0.058170 0.710294 0.149089 0.146272
H66   H     H_    0.007595 0.289053 0.116468 0.143127
H67   H     H_    0.558171 0.210292 0.149100 0.146400
H68   H     H_    0.507753 0.789054 0.116609 0.143090
H69   H     H_    0.892324 0.710093 0.896786 0.109056
H70   H     H_    0.902257 0.289587 0.856676 0.122311
H71   H     H_    0.392342 0.210084 0.896778 0.109050
H72   H     H_    0.402156 0.789582 0.856736 0.122279
H73   H     H_    0.289279 0.490781 0.181654 0.125144
H74   H     H_    0.211509 0.510016 0.319242 0.158256
H75   H     H_    0.789246 0.998585 0.181171 0.125045
H76   H     H_    0.289173 0.411780 0.351766 0.143045
H77   H     H_    0.288480 0.598569 0.333442 0.145989
H78   H     H_    0.789274 0.907442 0.345307 0.144557
H79   H     H_    0.788434 0.094953 0.340415 0.144638
H80   H     H_    0.779807 0.638914 0.867721 0.129981
H81   H     H_    0.782847 0.575763 0.927832 0.145883
H82   H     H_    0.695261 0.624668 0.898558 0.242738
H83   H     H_    0.760420 0.677510 0.955037 0.199211
H84   H     H_    0.691868 0.687348 0.838156 0.250424
H85   H     H_    0.711562 0.001997 0.319774 0.158437
H86   H     H_    0.787923 0.353687 0.858767 0.142726
H87   H     H_    0.783613 0.335628 0.771739 0.133300
H88   H     H_    0.698361 0.260009 0.708307 0.246485
H89   H     H_    0.768553 0.241382 0.821672 0.236451
H90   H     H_    0.703233 0.277775 0.795610 0.239893
H91   H     H_    0.279783 0.139127 0.867388 0.129895
H92   H     H_    0.282933 0.076078 0.927713 0.145903
H93   H     H_    0.195391 0.125021 0.898506 0.242671
H94   H     H_    0.260488 0.177909 0.954734 0.199254
H95   H     H_    0.191863 0.187590 0.837854 0.250414
H96   H     H_    0.710527 0.533866 0.608287 0.180743
H97   H     H_    0.287930 0.853810 0.859016 0.142712
H98   H     H_    0.283599 0.835604 0.772000 0.133321
H99   H     H_    0.198351 0.760026 0.708727 0.246489
H100  H     H_    0.268552 0.741474 0.822118 0.236410
H101  H     H_    0.203241 0.777938 0.796014 0.239879
H102  H     H_    0.684341 0.538180 0.438788 0.156788
H103  H     H_    0.648794 0.480873 0.353180 0.145849
H104  H     H_    0.697735 0.395485 0.464875 0.251886
H105  H     H_    0.754660 0.448098 0.488319 0.198087
H106  H     H_    0.735413 0.453107 0.551005 0.249229
H107  H     H_    0.210519 0.033698 0.608232 0.180832
H108  H     H_    0.184374 0.038190 0.438836 0.156816
H109  H     H_    0.148785 0.980935 0.353162 0.145836
H110  H     H_    0.197672 0.895478 0.464750 0.251850
H111  H     H_    0.254632 0.948073 0.488258 0.198098
H112  H     H_    0.235394 0.953043 0.550957 0.249241
H113  H     H_    0.067322 0.857233 0.315017 0.246627
H114  H     H_    0.012552 0.858396 0.196152 0.278664
H115  H     H_    0.088524 0.893176 0.262468 0.226105
H116  H     H_    0.095215 0.127269 0.341618 0.242758
H117  H     H_    0.108982 0.087609 0.282136 0.231941
H118  H     H_    0.788422 0.606032 0.765919 0.126055
H119  H     H_    0.041726 0.137752 0.223753 0.222665
H120  H     H_    0.567292 0.357219 0.314984 0.246655
H121  H     H_    0.512512 0.358391 0.196117 0.278658
H122  H     H_    0.588491 0.393153 0.262427 0.226096
H123  H     H_    0.595262 0.627235 0.341671 0.242729
H124  H     H_    0.609003 0.587582 0.282153 0.231957
H125  H     H_    0.541769 0.637751 0.223813 0.222654
H126  H     H_    0.858257 0.760647 0.963019 0.141749
H127  H     H_    0.873692 0.830483 0.932577 0.158591
H128  H     H_    0.890462 0.890713 0.046513 0.258008
O1    O     O_R   0.091580 0.500000 0.144580 -0.594524
O2    O     O_R   0.552980 0.500000 0.144650 -0.598378
O3    O     O_R   0.499990 0.552970 0.408480 -0.597363
O4    O     O_R   0.499990 0.447030 0.408480 -0.582714
O5    O     O_R   0.999990 0.052970 0.408480 -0.597366
O6    O     O_R   0.999990 0.947030 0.408480 -0.582683
O7    O     O_R   0.408420 0.552990 0.408490 -0.596137
O8    O     O_R   0.408420 0.447010 0.408490 -0.595072
O9    O     O_R   0.908420 0.052990 0.408490 -0.595737
O10   O     O_R   0.908420 0.947010 0.408490 -0.595445
O11   O     O_R   0.500000 0.553030 0.591640 -0.584255
O12   O     O_R   0.591580 1.000000 0.144580 -0.594626
O13   O     O_R   0.500000 0.446970 0.591640 -0.593684
O14   O     O_R   1.000000 0.053030 0.591640 -0.584332
O15   O     O_R   0.000000 0.946970 0.591640 -0.593667
O16   O     O_R   0.591570 0.553010 0.591640 -0.569515
O17   O     O_R   0.591570 0.446990 0.591640 -0.546403
O18   O     O_R   0.091570 0.053010 0.591640 -0.569485
O19   O     O_R   0.091570 0.946990 0.591640 -0.546448
O20   O     O_R   0.091570 0.500000 0.038570 -0.586609
O21   O     O_R   0.591570 1.000000 0.038570 -0.586643
O22   O     O_R   0.999990 0.591570 0.052990 -0.590740
O23   O     O_R   0.053010 0.908430 0.053110 -0.591133
O24   O     O_R   0.999990 0.408430 0.052990 -0.590318
O25   O     O_R   0.499990 0.091570 0.052990 -0.590572
O26   O     O_R   0.499990 0.908430 0.052990 -0.590477
O27   O     O_R   0.999990 0.591570 0.946990 -0.588638
O28   O     O_R   0.999990 0.408430 0.946990 -0.589519
O29   O     O_R   0.499990 0.091570 0.946990 -0.588654
O30   O     O_R   0.499990 0.908430 0.946990 -0.589447
O31   O     O_R   0.908430 0.500000 0.961430 -0.597508
O32   O     O_R   0.408430 1.000000 0.961430 -0.597516
O33   O     O_R   0.908420 0.500000 0.855420 -0.583629
O34   O     O_R   0.053010 0.091570 0.053110 -0.591205
O35   O     O_R   0.408420 1.000000 0.855420 -0.583618
O36   O     O_R   0.947020 1.000000 0.855520 -0.591536
O37   O     O_R   0.447020 0.500000 0.855520 -0.591645
O38   O     O_R   0.053020 1.000000 0.961550 -0.588985
O39   O     O_R   0.553020 0.500000 0.961550 -0.588879
O40   O     O_R   0.947010 0.908420 0.947070 -0.599202
O41   O     O_R   0.947010 0.091580 0.947070 -0.562158
O42   O     O_R   0.447010 0.408420 0.947070 -0.599154
O43   O     O_R   0.447010 0.591580 0.947070 -0.562200
O44   O     O_3   0.703516 0.578568 0.791983 -0.577510
O45   O     O_R   0.553010 0.408430 0.053110 -0.591121
O46   O     O_3   0.706604 0.382689 0.731595 -0.560781
O47   O     O_3   0.203538 0.078726 0.791881 -0.577438
O48   O     O_3   0.206602 0.882735 0.731804 -0.560821
O49   O     O_3   0.616982 0.485235 0.415329 -0.596714
O50   O     O_3   0.116985 0.985271 0.415331 -0.596760
O51   O     O_3   0.949484 0.792084 0.057881 -0.608184
O52   O     O_3   0.897698 0.208349 0.962693 -0.591341
O53   O     O_3   0.449471 0.292077 0.057857 -0.608162
O54   O     O_3   0.397771 0.708360 0.962928 -0.591315
O55   O     O_R   0.553010 0.591570 0.053110 -0.591262
O56   O     O_R   0.946970 1.000000 0.038620 -0.594863
O57   O     O_R   0.446970 0.500000 0.038620 -0.594839
O58   O     O_R   0.052980 1.000000 0.144650 -0.598383

loop_
_geom_bond_atom_site_label_1
_geom_bond_atom_site_label_2
_ccdc_geom_bond_type
Cu7   O21   S    
C96   O42   A    
C54   H29   S    
C27   H84   S    
C145  C146  S    
C25   C105  S    
C13   C60   S    
C75   H107  S    
C110  O19   A    
C3    C131  S    
C30   O47   S    
C52   H22   S    
C117  C119  S    
C86   C88   S    
C57   C59   S    
C40   H116  S    
C58   C60   S    
C82   C87   S    
C78   C138  S    
Cu10  O23   S    
C135  C142  S    
C6    C94   S    
C46   C55   S    
C70   C74   S    
C51   H18   S    
C70   C84   S    
C38   H111  S    
C9    C95   S    
C81   C86   S    
C100  C135  S    
C61   O12   A    
C73   C75   S    
C130  C134  S    
C70   H2    S    
C57   H75   S    
C114  C115  S    
C45   C47   S    
C1    O20   A    
C21   C72   S    
C65   H74   S    
C41   C131  S    
C120  C125  S    
C17   C21   S    
C28   H87   S    
C64   C66   S    
C19   C23   S    
C43   C44   S    
C37   C38   S    
C113  C120  S    
C7    H63   S    
Cu6   O27   S    
C16   C20   S    
C115  C118  S    
Cu4   O19   S    
C1    O1    A    
C69   C74   S    
Cu3   O14   S    
C91   O36   A    
C138  C140  S    
C39   H114  S    
C83   H70   S    
C60   C65   S    
Cu11  O45   S    
C87   C89   S    
C16   H64   S    
Cu11  O55   S    
C27   H82   S    
C49   H15   S    
C143  H55   S    
Cu9   O42   S    
C31   H94   S    
Cu3   O5    S    
C8    C93   S    
C26   O44   S    
Cu7   O30   S    
C119  C123  S    
C24   C56   S    
C28   O46   S    
C59   C63   S    
C32   H98   S    
C100  O4    A    
C41   H120  S    
C32   C33   S    
C101  O5    A    
C30   C31   S    
C76   O27   A    
Cu2   O17   S    
Cu8   Cu10  S    
C118  C120  S    
C146  H58   S    
C81   C110  S    
C133  C135  S    
C4    H1    S    
C35   C63   S    
C12   H60   S    
C99   O57   A    
C140  H51   S    
C113  C115  S    
C103  O10   A    
C115  H36   S    
C3    C147  S    
Cu2   O4    S    
Cu3   O9    S    
C42   H123  S    
C123  C124  S    
C129  C144  S    
C46   C68   S    
C96   O45   A    
C62   H77   S    
C34   H103  S    
C73   C90   S    
C5    H41   S    
C37   O50   S    
C45   O52   S    
Cu7   O35   S    
C11   C25   S    
C109  O17   A    
Cu2   O13   S    
C47   H7    S    
C30   H91   S    
C19   H67   S    
C69   C82   S    
C24   C67   S    
C4    C137  S    
C17   H65   S    
C40   H119  S    
C79   O26   A    
C45   H6    S    
C77   C127  S    
Cu10  O58   S    
C13   C56   S    
C135  C143  S    
C109  O16   A    
C111  C122  S    
C37   H109  S    
C51   H19   S    
C25   O54   S    
C47   H9    S    
C5    C139  S    
Cu1   O22   S    
C52   H23   S    
C50   O54   S    
C105  H72   S    
C107  O33   A    
C80   C82   S    
C41   H122  S    
C144  H56   S    
C98   O56   A    
C102  O8    A    
C39   C129  S    
C37   H108  S    
C29   H89   S    
C12   C17   S    
C53   H26   S    
C121  C125  S    
C48   H11   S    
C8    C12   S    
C33   H99   S    
Cu11  O39   S    
C28   H86   S    
C82   O44   S    
Cu8   O40   S    
Cu5   O25   S    
C97   O43   A    
C76   O22   A    
Cu10  O38   S    
C29   H88   S    
C70   C89   S    
C122  C124  S    
C7    C141  S    
C124  C126  S    
C116  C137  S    
C85   C88   S    
C39   H115  S    
C24   C62   S    
C54   H30   S    
C55   H33   S    
C18   C22   S    
C142  C147  S    
C83   C127  S    
Cu5   O32   S    
C27   H83   S    
C49   H12   S    
C34   O49   S    
C69   C89   S    
C133  O49   S    
C20   H68   S    
C31   H95   S    
C11   C97   S    
C59   C103  S    
C22   C83   S    
C15   H62   S    
C16   C141  S    
C106  O14   A    
Cu11  O2    S    
C90   C108  S    
C47   H8    S    
C71   C90   S    
C69   H118  S    
C35   C54   S    
C1    C67   S    
C56   C58   S    
C7    C105  S    
C34   C36   S    
C92   O37   A    
C3    C99   S    
C54   H28   S    
C38   H112  S    
C81   C85   S    
C130  C145  S    
C22   O52   S    
C58   C62   S    
Cu1   O24   S    
C104  O13   A    
C106  C119  S    
C36   H105  S    
C14   H61   S    
C88   H35   S    
C80   C84   S    
C26   H81   S    
C113  C128  S    
C15   C19   S    
C26   C27   S    
C78   O29   A    
Cu2   Cu12  S    
C28   C29   S    
Cu12  O11   S    
C111  H38   S    
C112  C117  S    
Cu1   O31   S    
C20   C25   S    
C33   H101  S    
C97   O55   A    
C2    C79   S    
Cu8   O36   S    
C114  C121  S    
Cu6   O28   S    
C65   C67   S    
C80   C109  S    
Cu3   Cu4   S    
C114  H42   S    
C58   C102  S    
Cu5   Cu7   S    
C99   O2    A    
Cu4   O10   S    
C112  C126  S    
C4    C8    S    
C43   H126  S    
C39   H113  S    
C132  C143  S    
C63   C66   S    
Cu9   Cu11  S    
C74   C80   S    
C108  O35   A    
C122  H45   S    
C49   H14   S    
C95   O34   A    
C104  C118  S    
C98   O58   A    
C139  H50   S    
C110  O18   A    
C2    C20   S    
C3    C132  S    
C50   H17   S    
C52   H21   S    
C85   O47   S    
C112  C123  S    
C144  C146  S    
C23   O53   S    
Cu12  O7    S    
C31   H93   S    
C48   O53   S    
Cu7   O29   S    
C24   C53   S    
C123  H46   S    
C137  H49   S    
C79   O30   A    
Cu8   O56   S    
C143  C147  S    
C9    C14   S    
C95   O41   A    
C92   O39   A    
C43   O51   S    
C11   C16   S    
C89   C107  S    
C111  C126  S    
C50   C51   S    
Cu12  O16   S    
C142  H54   S    
C48   H10   S    
C48   C49   S    
C88   C90   S    
C124  H47   S    
C94   C138  S    
C4    C72   S    
C93   O40   A    
C15   C140  S    
C103  O9    A    
C77   O28   A    
C40   C130  S    
Cu3   O18   S    
C125  H48   S    
C21   O51   S    
C5    C9    S    
C6    C10   S    
C42   H124  S    
C87   H34   S    
C72   C116  S    
C111  C117  S    
C35   C57   S    
C55   H32   S    
C136  C144  S    
Cu10  O34   S    
C98   C148  S    
C119  C122  S    
C113  H40   S    
C30   H92   S    
C6    C140  S    
C42   H125  S    
C129  C134  S    
C145  H57   S    
C42   C132  S    
C44   H4    S    
C45   H5    S    
C55   H31   S    
C66   H85   S    
C66   C68   S    
Cu9   O43   S    
C91   C126  S    
C32   O48   S    
C14   C18   S    
C60   H76   S    
C84   C87   S    
Cu1   Cu6   S    
C63   H78   S    
C7    C11   S    
C93   O23   A    
C59   C64   S    
C36   H104  S    
C32   H97   S    
C100  O3    A    
C41   H121  S    
C10   C15   S    
C104  O11   A    
C146  C148  S    
C101  O6    A    
C5    C83   S    
C9    C22   S    
C6    H52   S    
C13   C52   S    
C84   O46   S    
C114  C128  S    
C50   H16   S    
C86   O48   S    
C53   H25   S    
C64   H79   S    
C18   H66   S    
C71   C85   S    
C132  C133  S    
C129  C148  S    
C125  C128  S    
C134  O50   S    
C112  H39   S    
C136  C145  S    
Cu9   O57   S    
C78   O25   A    
C127  C139  S    
C92   C128  S    
C94   H71   S    
C43   H127  S    
C44   H128  S    
Cu1   O1    S    
C72   H69   S    
C34   H102  S    
C130  C148  S    
C141  H53   S    
C73   H24   S    
C75   C81   S    
C134  C136  S    
C71   H13   S    
C46   C64   S    
C118  C121  S    
Cu4   O6    S    
C106  O15   A    
C26   H80   S    
C18   C127  S    
C38   H110  S    
C61   O21   A    
C10   C96   S    
C8    C21   S    
C131  C142  S    
Cu8   O41   S    
Cu5   O12   S    
C44   H3    S    
Cu9   O37   S    
C46   C57   S    
C56   H73   S    
C51   H20   S    
Cu12  O3    S    
C117  H37   S    
C13   C67   S    
C101  C136  S    
C107  O31   A    
C2    C141  S    
C108  O32   A    
C62   C65   S    
C36   H106  S    
C121  H44   S    
C131  C133  S    
C40   H117  S    
C102  O7    A    
Cu6   O20   S    
C10   C23   S    
C2    C105  S    
C23   C94   S    
Cu2   O8    S    
C29   H90   S    
C53   H27   S    
C71   C75   S    
Cu6   O33   S    
C61   C68   S    
C35   C68   S    
C19   C138  S    
C33   H100  S    
C76   C116  S    
C73   C86   S    
C147  H59   S    
Cu5   O26   S    
C77   O24   A    
C14   C139  S    
Cu4   O15   S    
C120  H43   S    
C12   C137  S    
C91   O38   A    
C74   H96   S    
C17   C116  S    
