data_mof_unit_27492.cif
_audit_creation_date              2012-12-10T17:51:23-0500
_audit_creation_method            fapswitch 2.2
_symmetry_space_group_name_H-M    P1
_symmetry_Int_Tables_number       1
_space_group_crystal_system       triclinic
_cell_length_a                    9.922621
_cell_length_b                    10.6582
_cell_length_c                    17.033138
_cell_angle_alpha                 91.368933
_cell_angle_beta                  83.876866
_cell_angle_gamma                 89.935646
_cell_volume                      1790.57797866

loop_
_atom_site_label
_atom_site_type_symbol
_atom_type_description
_atom_site_fract_x
_atom_site_fract_y
_atom_site_fract_z
_atom_type_partial_charge
C1    C     C_R   0.500339 0.739267 0.496662 0.853857
C2    C     C_R   0.537590 0.491673 0.263506 -0.027495
C3    C     C_R   0.360363 0.865135 0.377744 -0.187829
C4    C     C_R   0.479412 0.501134 0.652291 0.850409
C5    C     C_R   0.292535 0.928427 0.322961 -0.141156
C6    C     C_R   0.293249 0.058732 0.322576 -0.148381
C7    C     C_R   0.361725 0.126128 0.376995 -0.205601
C8    C     C_R   0.429885 0.063546 0.433842 0.105564
C9    C     C_R   0.429326 0.931872 0.434160 0.105979
C10   C     C_R   0.501221 0.871436 0.489982 -0.097134
C11   C     C_R   0.576472 0.937661 0.541412 -0.215384
C12   C     C_R   0.343780 0.459058 0.778417 -0.212210
C13   C     C_R   0.576904 0.065641 0.541156 -0.206135
C14   C     C_R   0.501995 0.128018 0.489522 -0.112487
C15   C     C_R   0.842260 0.666506 0.602199 -0.160529
C16   C     C_R   0.500629 0.260569 0.496373 0.859575
C17   C     C_R   0.903529 0.747071 0.653039 -0.214194
C18   C     C_R   0.042838 0.745120 0.653852 -0.179934
C19   C     C_R   0.121752 0.663080 0.603498 -0.147963
C20   C     C_R   0.063240 0.580898 0.550783 0.158531
C21   C     C_R   0.918795 0.581669 0.550430 0.182385
C22   C     C_R   0.937461 0.421987 0.451762 -0.123591
C23   C     C_R   0.509467 0.594743 0.142836 -0.149385
C24   C     C_R   0.080509 0.422245 0.451608 -0.104162
C25   C     C_R   0.520525 0.498056 0.348110 0.828949
C26   C     C_R   0.461488 0.507880 0.737420 -0.020415
C27   C     C_R   0.559816 0.566745 0.778046 -0.206777
C28   C     C_R   0.542441 0.573775 0.859554 -0.202500
C29   C     C_R   0.428473 0.518785 0.900889 0.170234
C30   C     C_R   0.327671 0.463863 0.860268 -0.173542
C31   C     C_3   0.630498 0.265843 0.262134 -0.429489
C32   C     C_3   0.784786 0.249303 0.250210 -0.331510
C33   C     C_3   0.829111 0.136428 0.294816 -0.876171
C34   C     C_R   0.503278 0.598195 0.224008 -0.253701
C35   C     C_3   0.225099 0.647744 0.023940 -0.813023
C36   C     C_R   0.587066 0.381960 0.221631 0.075789
C37   C     C_R   0.590200 0.379161 0.139493 -0.192976
C38   C     C_R   0.545589 0.483161 0.101182 0.154772
C39   C     C_2   0.420502 0.511178 0.986570 0.194078
C40   C     C_2   0.533262 0.474600 0.017413 -0.335765
H1    H     H_    0.649405 0.607637 0.746936 0.148016
H2    H     H_    0.734987 0.673585 0.605532 0.194256
H3    H     H_    0.842241 0.811113 0.692258 0.142269
H4    H     H_    0.470488 0.683602 0.255964 0.136367
H5    H     H_    0.090212 0.807502 0.693759 0.148424
H6    H     H_    0.227929 0.666357 0.607692 0.204553
H7    H     H_    0.141385 0.358623 0.412015 0.144239
H8    H     H_    0.621926 0.441799 0.979345 0.148361
H9    H     H_    0.239278 0.421464 0.891778 0.152502
H10   H     H_    0.481286 0.677463 0.112624 0.148935
H11   H     H_    0.266370 0.414373 0.747270 0.159737
H12   H     H_    0.621515 0.294497 0.105852 0.134080
H13   H     H_    0.619509 0.619312 0.890570 0.136028
H14   H     H_    0.783584 0.049032 0.272702 0.266605
H15   H     H_    0.941227 0.127283 0.285816 0.242198
H16   H     H_    0.797236 0.148568 0.359096 0.269650
H17   H     H_    0.819264 0.235369 0.186335 0.216899
H18   H     H_    0.834147 0.335037 0.271982 0.227130
H19   H     H_    0.597727 0.270359 0.326344 0.196733
H20   H     H_    0.580788 0.182096 0.237912 0.203343
H21   H     H_    0.285520 0.499618 0.090969 0.242951
H22   H     H_    0.126364 0.650005 0.061382 0.239270
H23   H     H_    0.631939 0.890136 0.583563 0.146027
H24   H     H_    0.204850 0.658679 0.961616 0.252799
H25   H     H_    0.287827 0.727383 0.042068 0.233696
H26   H     H_    0.359357 0.764035 0.374206 0.160323
H27   H     H_    0.240515 0.876061 0.280116 0.135965
H28   H     H_    0.241880 0.107824 0.279402 0.130944
H29   H     H_    0.362670 0.226958 0.372413 0.146567
H30   H     H_    0.632649 0.116431 0.583134 0.161982
H31   H     H_    0.891079 0.358082 0.412488 0.151148
N1    N     N_R   0.857140 0.501200 0.500750 -0.120591
N2    N     N_R   0.142740 0.501280 0.500770 -0.123423
N3    N     N_2   0.293142 0.529828 0.033639 -0.305533
O1    O     O_R   0.385310 0.683220 0.500000 -0.642712
O2    O     O_R   0.614640 0.683250 0.500010 -0.629722
O3    O     O_R   0.371780 0.500010 0.615800 -0.636574
O4    O     O_R   0.601110 0.500030 0.615800 -0.633302
O5    O     O_R   0.385360 0.316750 0.499990 -0.615338
O6    O     O_R   0.614690 0.316780 0.500000 -0.614788
O7    O     O_R   0.398890 0.499970 0.384200 -0.630362
O8    O     O_R   0.628220 0.499990 0.384200 -0.607578
Zn1   Zn    Zn3+2 0.346870 0.499980 0.499990 0.927934
Zn2   Zn    Zn3+2 0.653130 0.500020 0.500010 0.939307

loop_
_geom_bond_atom_site_label_1
_geom_bond_atom_site_label_2
_ccdc_geom_bond_type
C33   H15   S    
O5    Zn1   S    
C35   N3    S    
C19   C20   A    
C32   H18   S    
O6    Zn2   S    
O2    Zn2   S    
C19   H6    S    
C7    C8    A    
C26   C27   A    
C29   C30   A    
C36   C37   A    
C11   H23   S    
C5    C6    A    
C24   N2    A    
C13   H30   S    
O3    Zn1   S    
C15   C17   A    
C18   C19   A    
C39   N3    S    
C31   H19   S    
C8    C9    A    
C35   H24   S    
C35   H22   S    
C9    C10   A    
C5    H27   S    
C2    C34   A    
C33   H16   S    
C6    H28   S    
C13   C14   A    
C25   O7    A    
C24   H7    S    
C32   H17   S    
C22   N1    A    
O7    Zn1   S    
C21   N1    A    
C1    O1    A    
C34   H4    S    
C39   C40   D    
C37   H12   S    
C23   H10   S    
C12   C26   A    
C16   O6    A    
C31   H20   S    
C17   H3    S    
C4    O4    A    
C37   C38   A    
C3    C9    A    
C27   H1    S    
C31   C32   S    
C23   C34   A    
C29   C39   S    
C17   C18   A    
N1    Zn2   S    
C30   H9    S    
O8    Zn2   S    
C25   O8    A    
C22   C24   A    
C3    H26   S    
C18   H5    S    
C22   H31   S    
C12   H11   S    
C2    C36   A    
C33   H14   S    
C40   H8    S    
C28   C29   A    
C8    C14   A    
C12   C30   A    
C1    O2    A    
C1    C10   S    
C15   H2    S    
C3    C5    A    
C7    H29   S    
C4    C26   S    
C28   H13   S    
C6    C7    A    
H21   N3    S    
C23   C38   A    
C16   O5    A    
C32   C33   S    
C4    O3    A    
C38   C40   S    
C11   C13   A    
O1    Zn1   S    
C20   N2    A    
C2    C25   S    
C14   C16   S    
C10   C11   A    
O4    Zn2   S    
C15   C21   A    
C20   C21   A    
C27   C28   A    
C35   H25   S    
C31   C36   S    
N2    Zn1   S    
