data_mof_unit_38384.cif
_audit_creation_date              2012-10-26T19:40:07-0400
_audit_creation_method            fapswitch 2.2
_symmetry_space_group_name_H-M    P1
_symmetry_Int_Tables_number       1
_space_group_crystal_system       triclinic
_cell_length_a                    14.96869
_cell_length_b                    8.674737
_cell_length_c                    7.454318
_cell_angle_alpha                 102.918231
_cell_angle_beta                  93.950739
_cell_angle_gamma                 92.524212
_cell_volume                      939.438294404

loop_
_atom_site_label
_atom_site_type_symbol
_atom_type_description
_atom_site_fract_x
_atom_site_fract_y
_atom_site_fract_z
_atom_type_partial_charge
Br1   Br    Br    0.757952 0.846192 0.581774 -0.560533
Br2   Br    Br    0.242048 0.153808 0.418226 -0.560533
C1    C     C_R   0.497467 0.199785 0.453288 0.572115
C2    C     C_R   0.181819 0.349992 0.467644 0.134270
C3    C     C_R   0.766964 0.505042 0.491963 0.021308
C4    C     C_R   0.233036 0.494958 0.508036 0.021308
C5    C     C_R   0.807146 0.360778 0.453048 -0.144697
C6    C     C_R   0.192854 0.639222 0.546952 -0.144697
C7    C     C_R   0.899948 0.357883 0.456077 0.013497
C8    C     C_R   0.100052 0.642116 0.543922 0.013497
C9    C     C_R   0.953021 0.501789 0.497865 0.037137
C10   C     C_R   0.046979 0.498211 0.502135 0.037137
C11   C     C_R   0.912261 0.649011 0.535610 0.038869
C12   C     C_R   0.502533 0.800215 0.546712 0.572115
C13   C     C_R   0.087739 0.350988 0.464390 0.038869
C14   C     C_R   0.940306 0.213015 0.419316 -0.122846
C15   C     C_R   0.059694 0.786984 0.580684 -0.122846
C16   C     C_R   0.033214 0.209357 0.423389 -0.104964
C17   C     C_R   0.966786 0.790643 0.576611 -0.104964
C18   C     C_2   0.496163 0.031837 0.427038 -0.106433
C19   C     C_2   0.503837 0.968163 0.572962 -0.106433
C20   C     C_R   0.329190 0.498283 0.502579 0.585851
C21   C     C_R   0.670810 0.501717 0.497421 0.585851
C22   C     C_R   0.818180 0.650008 0.532356 0.134270
Cu1   Cu    Cu3+1 0.510010 0.517380 0.684380 1.024172
Cu2   Cu    Cu3+1 0.489990 0.482620 0.315620 1.024172
H1    H     H_    0.765780 0.250692 0.423024 0.136326
H2    H     H_    0.569999 0.622377 0.051195 0.252758
H3    H     H_    0.234219 0.749308 0.576976 0.136326
H4    H     H_    0.899872 0.102098 0.387262 0.146317
H5    H     H_    0.100128 0.897902 0.612738 0.146317
H6    H     H_    0.061326 0.094625 0.393609 0.165567
H7    H     H_    0.938674 0.905375 0.606391 0.165567
H8    H     H_    0.488779 0.960259 0.286443 0.141769
H9    H     H_    0.511221 0.039741 0.713557 0.141769
H10   H     H_    0.430001 0.377623 0.948805 0.252758
N1    N     N_2   0.474890 0.456420 0.038520 -0.256954
N2    N     N_2   0.525110 0.543580 0.961480 -0.256954
O1    O     O_R   0.506510 0.286130 0.619770 -0.508455
O2    O     O_R   0.493490 0.713870 0.380230 -0.508455
O3    O     O_R   0.489600 0.256770 0.308360 -0.488915
O4    O     O_R   0.510400 0.743230 0.691640 -0.488914
O5    O     O_R   0.378710 0.514640 0.655720 -0.499785
O6    O     O_R   0.621290 0.485360 0.344280 -0.499785
O7    O     O_R   0.361800 0.485290 0.344300 -0.476374
O8    O     O_R   0.638200 0.514710 0.655700 -0.476374

loop_
_geom_bond_atom_site_label_1
_geom_bond_atom_site_label_2
_ccdc_geom_bond_type
Cu1   O4    S    
C13   C16   A    
Br2   C2    S    
C9    C10   A    
Cu2   N1    S    
N1    N2    D    
C19   H9    S    
Cu1   N2    S    
C7    C9    A    
C20   O5    A    
C3    C21   S    
C10   C13   A    
H2    N2    S    
C12   O4    A    
C18   H8    S    
Cu1   O5    S    
C2    C13   A    
C12   O2    A    
Cu2   O6    S    
C1    C18   S    
C21   O8    A    
Cu1   O1    S    
C9    C11   A    
Cu2   O2    S    
C3    C22   A    
C8    C10   A    
C6    H3    S    
C12   C19   S    
C2    C4    A    
H10   N1    S    
C15   C17   A    
C7    C14   A    
C3    C5    A    
C15   H5    S    
C16   H6    S    
C11   C17   A    
C8    C15   A    
C1    O1    A    
C4    C20   S    
C20   O7    A    
C5    H1    S    
C18   C19   D    
Cu2   O3    S    
Br1   C22   S    
C14   C16   A    
C17   H7    S    
C5    C7    A    
C1    O3    A    
C4    C6    A    
Cu2   O7    S    
Cu1   Cu2   S    
C14   H4    S    
Cu1   O8    S    
C6    C8    A    
C21   O6    A    
C11   C22   A    
