data_mof_unit_9508.cif
_audit_creation_date              2012-12-11T14:23:11-0500
_audit_creation_method            fapswitch 2.2
_symmetry_space_group_name_H-M    P1
_symmetry_Int_Tables_number       1
_space_group_crystal_system       triclinic
_cell_length_a                    11.081827
_cell_length_b                    11.039765
_cell_length_c                    18.658055
_cell_angle_alpha                 89.937041
_cell_angle_beta                  89.92595
_cell_angle_gamma                 59.594211
_cell_volume                      1968.69021515

loop_
_atom_site_label
_atom_site_type_symbol
_atom_type_description
_atom_site_fract_x
_atom_site_fract_y
_atom_site_fract_z
_atom_type_partial_charge
Br1   Br    Br    0.920679 0.236285 0.908369 -0.465376
Br2   Br    Br    0.401800 0.909756 0.828934 -0.570345
Br3   Br    Br    0.542559 0.971559 0.441674 -0.438555
Br4   Br    Br    0.854397 0.755347 0.631028 -0.554694
Br5   Br    Br    0.532640 0.555653 0.860544 -0.478486
C1    C     C_R   0.237309 0.645349 0.609785 0.580747
C2    C     C_R   0.552447 0.200604 0.719882 -0.149566
C3    C     C_R   0.559891 0.204388 0.792618 -0.136749
C4    C     C_R   0.654163 0.623454 0.599893 0.621089
C5    C     C_R   0.915464 0.161706 0.815562 0.161397
C6    C     C_R   0.029770 0.129918 0.771931 -0.122291
C7    C     C_R   0.028515 0.105055 0.699247 -0.177385
C8    C     C_R   0.911202 0.113684 0.668297 -0.081978
C9    C     C_R   0.664798 0.178126 0.677032 0.020596
C10   C     C_R   0.183203 0.665201 0.835457 0.041000
C11   C     C_R   0.196517 0.546887 0.799055 0.024920
C12   C     C_3   0.675237 0.555492 0.799143 0.045756
C13   C     C_R   0.188830 0.549026 0.723224 0.034468
C14   C     C_R   0.201534 0.762752 0.724055 -0.136425
C15   C     C_R   0.190291 0.769303 0.797049 -0.085756
C16   C     C_R   0.628657 0.227596 0.602862 0.568247
C17   C     C_R   0.214351 0.428083 0.836466 -0.085675
C18   C     C_R   0.207884 0.321434 0.800951 -0.141515
C19   C     C_R   0.183900 0.330577 0.727545 -0.167012
C20   C     C_R   0.173879 0.443209 0.688829 -0.095076
C21   C     C_R   0.196758 0.656908 0.685408 0.031102
C22   C     C_R   0.694333 0.694932 0.180247 -0.009599
C23   C     C_3   0.700177 0.679653 0.810955 0.041087
C24   C     C_R   0.795157 0.581023 0.220193 0.047512
C25   C     C_R   0.750830 0.521687 0.272072 0.045105
C26   C     C_R   0.529218 0.739486 0.275786 -0.131738
C27   C     C_R   0.560068 0.775608 0.209112 -0.139679
C28   C     C_R   0.282838 0.623287 0.391494 0.537876
C29   C     C_R   0.938428 0.533874 0.215973 -0.080646
C30   C     C_R   0.032140 0.423768 0.259425 -0.120070
C31   C     C_R   0.987410 0.349762 0.300088 -0.116377
C32   C     C_R   0.848158 0.387688 0.297822 -0.085220
C33   C     C_R   0.625591 0.612187 0.308564 -0.010043
C34   C     C_3   0.670066 0.651912 0.674738 0.012955
C35   C     C_R   0.680893 0.087171 0.189928 -0.004452
C36   C     C_R   0.568490 0.097897 0.231635 -0.008365
C37   C     C_R   0.585770 0.080931 0.306530 0.047268
C38   C     C_R   0.790991 0.101610 0.299791 -0.165358
C39   C     C_R   0.795320 0.081421 0.226020 -0.148597
C40   C     C_R   0.615154 0.588059 0.385588 0.545445
C41   C     C_R   0.436599 0.133383 0.203816 -0.138145
C42   C     C_R   0.336888 0.130533 0.247572 -0.200722
C43   C     C_R   0.368600 0.081105 0.317515 -0.103076
C44   C     C_R   0.495609 0.051386 0.346913 0.196350
C45   C     C_3   0.818192 0.628617 0.688534 -0.002117
C46   C     C_R   0.677152 0.117531 0.339082 0.030643
C47   C     C_R   0.219310 0.639567 0.163553 0.005987
C48   C     C_R   0.251722 0.732604 0.197598 0.043909
C49   C     C_R   0.226182 0.750352 0.271620 0.020540
C50   C     C_R   0.285196 0.507764 0.274734 -0.163845
C51   C     C_R   0.253763 0.516424 0.200702 -0.166330
C52   C     C_R   0.624156 0.216295 0.400141 0.558602
C53   C     C_R   0.263309 0.834603 0.158272 -0.073562
C54   C     C_R   0.193384 0.970999 0.183146 -0.112540
C55   C     C_R   0.135619 0.998153 0.251584 -0.167702
C56   C     C_3   0.647103 0.546096 0.719836 -0.241595
C57   C     C_R   0.158491 0.889169 0.297543 -0.114002
C58   C     C_R   0.256564 0.630224 0.312862 -0.010093
C59   C     C_R   0.700827 0.106370 0.897469 0.579266
C60   C     C_R   0.726228 0.690816 0.887142 0.628988
C61   C     C_R   0.119867 0.704616 0.906565 0.544833
C62   C     C_R   0.696398 0.053977 0.112427 0.539891
C63   C     C_R   0.728312 0.714522 0.106709 0.531269
C64   C     C_3   0.580180 0.821743 0.778343 0.048564
C65   C     C_R   0.114612 0.698213 0.103720 0.523861
C66   C     C_3   0.557961 0.802087 0.698870 -0.197818
C67   C     C_R   0.683593 0.173611 0.827151 0.042495
C68   C     C_3   0.835467 0.646413 0.769032 -0.280229
C69   C     C_R   0.797251 0.161619 0.785824 0.026052
C70   C     C_R   0.791396 0.150352 0.709762 -0.001820
Cr1   Cr    Cr6+3 0.392940 0.397950 0.502230 1.045288
Cr2   Cr    Cr6+3 0.398400 0.708500 0.501260 1.042196
Cr3   Cr    Cr6+3 0.708640 0.393530 0.496460 1.007975
Cr4   Cr    Cr6+3 0.937880 0.938320 0.007620 1.076798
Cr5   Cr    Cr6+3 0.625560 0.937220 0.994510 1.062037
Cr6   Cr    Cr6+3 0.938080 0.625010 0.001190 1.039235
H1    H     H_    0.613983 0.900989 0.781381 0.149126
H2    H     H_    0.217142 0.840881 0.698058 0.153997
H3    H     H_    0.239222 0.413571 0.893008 0.152004
H4    H     H_    0.181001 0.860507 0.823361 0.208385
H5    H     H_    0.225899 0.230558 0.831122 0.169567
H6    H     H_    0.177992 0.248193 0.699763 0.124841
H7    H     H_    0.149730 0.447272 0.632599 0.169686
H8    H     H_    0.432424 0.810998 0.302207 0.159773
H9    H     H_    0.974241 0.592537 0.186736 0.144191
H10   H     H_    0.482430 0.868246 0.181510 0.154910
H11   H     H_    0.138925 0.394085 0.262677 0.122619
H12   H     H_    0.718228 0.436433 0.701561 0.129512
H13   H     H_    0.059227 0.267130 0.335512 0.103359
H14   H     H_    0.451575 0.817690 0.691039 0.162253
H15   H     H_    0.814862 0.329368 0.329711 0.143388
H16   H     H_    0.872769 0.110551 0.325883 0.110190
H17   H     H_    0.402466 0.174111 0.150708 0.164467
H18   H     H_    0.885347 0.068112 0.196747 0.171033
H19   H     H_    0.234803 0.166944 0.226176 0.123725
H20   H     H_    0.293804 0.068916 0.349354 0.128651
H21   H     H_    0.320651 0.409794 0.302997 0.151524
H22   H     H_    0.298226 0.815631 0.102959 0.151016
H23   H     H_    0.926179 0.547654 0.789250 0.153109
H24   H     H_    0.250785 0.431695 0.173403 0.120845
H25   H     H_    0.563187 0.883202 0.665815 0.169629
H26   H     H_    0.175916 0.055620 0.147419 0.124475
H27   H     H_    0.069434 0.103506 0.268171 0.105655
H28   H     H_    0.109369 0.918184 0.349466 0.159182
H29   H     H_    0.860678 0.730880 0.777999 0.151561
H30   H     H_    0.772975 0.457637 0.813219 0.173647
H31   H     H_    0.538296 0.567667 0.712258 0.164528
H32   H     H_    0.897375 0.519682 0.672725 0.158412
H33   H     H_    0.454877 0.219597 0.697237 0.167319
H34   H     H_    0.471326 0.216814 0.822404 0.169363
H35   H     H_    0.121177 0.123698 0.794786 0.172053
H36   H     H_    0.119248 0.078662 0.666514 0.119245
H37   H     H_    0.916307 0.089018 0.611904 0.160691
O1    O     O_R   0.507340 0.255690 0.581430 -0.500213
O2    O     O_R   0.837290 0.593240 0.915240 -0.490123
O3    O     O_R   0.065320 0.635310 0.931580 -0.529016
O4    O     O_R   0.280360 0.527380 0.578910 -0.504333
O5    O     O_R   0.068470 0.828620 0.091850 -0.518959
O6    O     O_R   0.799150 0.057200 0.079350 -0.477096
O7    O     O_R   0.585220 0.080180 0.076770 -0.532039
O8    O     O_R   0.627170 0.809480 0.067050 -0.496736
O9    O     O_R   0.816200 0.596410 0.076500 -0.474853
O10   O     O_R   0.045770 0.638240 0.081070 -0.538484
O11   O     O_3   0.833840 0.833520 0.001110 -0.313857
O12   O     O_R   0.524510 0.695820 0.424050 -0.464547
O13   O     O_R   0.260600 0.739610 0.584580 -0.525347
O14   O     O_R   0.532370 0.695050 0.573830 -0.491054
O15   O     O_R   0.744850 0.503430 0.576380 -0.511659
O16   O     O_R   0.699080 0.276500 0.571950 -0.519652
O17   O     O_R   0.498860 0.256520 0.419860 -0.497555
O18   O     O_R   0.272490 0.528150 0.429140 -0.478081
O19   O     O_R   0.252110 0.740440 0.423010 -0.527391
O20   O     O_R   0.736370 0.504260 0.414810 -0.492018
O21   O     O_R   0.691220 0.277270 0.422180 -0.547340
O22   O     O_3   0.499990 0.499990 0.499980 -0.308496
O23   O     O_R   0.089570 0.825450 0.930590 -0.489971
O24   O     O_R   0.818700 0.054260 0.929860 -0.447851
O25   O     O_R   0.606310 0.077010 0.915520 -0.521010
O26   O     O_R   0.646730 0.806540 0.917560 -0.440979

loop_
_geom_bond_atom_site_label_1
_geom_bond_atom_site_label_2
_ccdc_geom_bond_type
C54   C55   A    
C50   C51   A    
C22   C24   A    
C36   C37   A    
C14   C15   A    
C13   C21   A    
Cr2   O22   S    
Cr3   O21   S    
C8    H37   S    
Br3   C44   S    
C2    C3    A    
C61   O23   A    
C1    C21   S    
C48   C49   A    
C50   H21   S    
C25   C33   A    
Cr5   O8    S    
C9    C16   S    
C31   C32   A    
Cr2   O19   S    
C62   O7    A    
C39   H18   S    
C56   H12   S    
Cr4   O24   S    
C66   H14   S    
Cr5   O7    S    
C10   C11   A    
Cr4   O11   S    
C12   H30   S    
C4    C34   S    
C52   O21   A    
C55   C57   A    
C29   C30   A    
Cr2   O13   S    
C64   C66   S    
C14   C21   A    
C33   C40   S    
C22   C63   S    
C3    H34   S    
C12   C56   S    
C65   O5    A    
C2    C9    A    
C8    C70   A    
C28   O19   A    
C26   H8    S    
C18   H5    S    
C50   C58   A    
C36   C41   A    
C64   H1    S    
Br2   C64   S    
C55   H27   S    
C37   C46   A    
C30   H11   S    
C37   C44   A    
C41   H17   S    
C40   O12   A    
Cr6   O9    S    
C13   C20   A    
C14   H2    S    
C23   C68   S    
Cr3   O20   S    
C19   H6    S    
Cr1   O17   S    
Cr1   O22   S    
Cr1   O18   S    
C10   C15   A    
C34   C56   S    
C3    C67   A    
Cr1   O1    S    
C69   C70   A    
C68   H29   S    
C19   C20   A    
C67   C69   A    
C45   C68   S    
C60   O26   A    
C49   C57   A    
Cr5   O26   S    
C53   C54   A    
C10   C61   S    
Cr4   O5    S    
C24   C29   A    
C35   C62   S    
C20   H7    S    
C54   H26   S    
C42   H19   S    
C32   H15   S    
Br4   C45   S    
C30   C31   A    
C17   H3    S    
C38   C39   A    
C29   H9    S    
C24   C25   A    
C68   H23   S    
Cr6   O11   S    
C42   C43   A    
Cr6   O2    S    
C28   C58   S    
Cr5   O25   S    
C15   H4    S    
C23   C64   S    
C61   O3    A    
C6    H35   S    
Cr3   O16   S    
C63   O9    A    
C46   C52   S    
C43   C44   A    
Cr6   O10   S    
C1    O4    A    
C63   O8    A    
C16   O16   A    
C47   C48   A    
C2    H33   S    
C4    O14   A    
C65   O10   A    
C41   C42   A    
C35   C36   A    
C11   C17   A    
Cr5   O11   S    
C22   C27   A    
C12   C23   S    
C26   C27   A    
Br1   C5    S    
C38   H16   S    
C1    O13   A    
Cr3   O22   S    
C48   C53   A    
C59   O25   A    
Cr4   O6    S    
C26   C33   A    
C45   H32   S    
Cr1   O4    S    
C9    C70   A    
C23   C60   S    
C16   O1    A    
C5    C69   A    
C28   O18   A    
C38   C46   A    
Cr4   O23   S    
C57   H28   S    
C59   O24   A    
C43   H20   S    
C40   O20   A    
C60   O2    A    
Cr2   O12   S    
C59   C67   S    
Cr3   O15   S    
C51   H24   S    
C47   C65   S    
C5    C6    A    
C18   C19   A    
C7    H36   S    
C27   H10   S    
C31   H13   S    
C35   C39   A    
C34   C45   S    
Br5   C12   S    
C7    C8    A    
C25   C32   A    
C11   C13   A    
C49   C58   A    
C66   H25   S    
Cr6   O3    S    
C34   C66   S    
C17   C18   A    
C52   O17   A    
C53   H22   S    
C56   H31   S    
Cr2   O14   S    
C47   C51   A    
C6    C7    A    
C62   O6    A    
C4    O15   A    
