data_mof_unit_9551.cif
_audit_creation_date              2013-03-05T15:40:03-0500
_audit_creation_method            fapswitch 2.2
_symmetry_space_group_name_H-M    P1
_symmetry_Int_Tables_number       1
_space_group_crystal_system       triclinic
_cell_length_a                    7.788766
_cell_length_b                    8.624508
_cell_length_c                    10.613043
_cell_angle_alpha                 89.921014
_cell_angle_beta                  89.669861
_cell_angle_gamma                 92.391655
_cell_volume                      712.289691609

loop_
_atom_site_label
_atom_site_type_symbol
_atom_site_description
_atom_site_fract_x
_atom_site_fract_y
_atom_site_fract_z
_atom_type_partial_charge
O1    O     O_R   0.389250 0.738570 0.508180 -0.559900
O2    O     O_R   0.678390 0.711630 0.486820 -0.621370
C1    C     C_R   0.544384 0.793773 0.499854 0.880587
O3    O     O_R   0.355470 0.513470 0.691600 -0.572544
O4    O     O_R   0.644610 0.486520 0.670240 -0.592146
C2    C     C_R   0.508289 0.496658 0.736881 0.863590
Zn1   Zn    Zn3+2 0.306940 0.517990 0.514260 1.152844
Zn2   Zn    Zn3+2 0.693060 0.482010 0.485740 1.162486
O5    O     O_R   0.321610 0.288370 0.513180 -0.634329
O6    O     O_R   0.610750 0.261430 0.491820 -0.561121
O7    O     O_R   0.355390 0.513480 0.329760 -0.597244
O8    O     O_R   0.644530 0.486530 0.308400 -0.544300
C3    C     C_R   0.455606 0.206230 0.500246 0.842523
C4    C     C_R   0.492828 0.509691 0.262451 0.889089
C5    C     C_2   0.596372 0.621652 0.065709 0.274688
C6    C     C_2   0.470388 0.546428 0.131598 0.118910
C7    C     C_2   0.580708 0.625575 0.927950 0.340800
C8    C     C_2   0.536044 0.492359 0.869040 0.314942
C9    C     C_2   0.565345 0.955958 0.517444 0.236322
C10   C     C_2   0.434525 0.044037 0.482801 0.220224
N1    N     N_2   0.950320 0.457950 0.466680 0.029950
N2    N     N_2   0.049680 0.542050 0.533320 0.034517
O9    O     O_3   0.740761 0.684352 0.125015 -0.683442
H1    H     H_    0.822242 0.724227 0.059309 0.394143
N3    N     N_R   0.304009 0.511232 0.076716 0.214092
O10   O     O_R   0.229141 0.375043 0.093347 -0.258022
O11   O     O_R   0.225067 0.616398 0.013875 -0.312306
O12   O     O_3   0.602096 0.763016 0.861093 -0.757868
H2    H     H_    0.623820 0.848297 0.922249 0.369636
O13   O     O_3   0.540230 0.350719 0.930621 -0.743012
H3    H     H_    0.507458 0.267228 0.870008 0.352614
O14   O     O_3   0.708327 0.017629 0.580638 -0.720284
H4    H     H_    0.781904 0.932809 0.607619 0.390540
O15   O     O_3   0.291377 0.982386 0.419765 -0.720764
H5    H     H_    0.217657 0.067199 0.392914 0.384251
N4    N     N_R   0.008014 0.439335 0.344417 0.316827
O16   O     O_R   0.021339 0.559953 0.270717 -0.264250
O17   O     O_R   0.995968 0.301907 0.294320 -0.314757
N5    N     N_R   0.990671 0.560988 0.655494 0.311897
O18   O     O_R   0.984416 0.442761 0.731972 -0.304867
O19   O     O_R   0.986477 0.700093 0.702060 -0.332947

loop_
_geom_bond_atom_site_label_1
_geom_bond_atom_site_label_2
_geom_bond_distance
_ccdc_geom_bond_type
C7    C8    1.342784 D    
O4    Zn2   1.992742 S    
O9    H1    0.991639 S    
C1    C9    1.414237 S    
C8    O13   1.386297 S    
N3    O11   1.301961 A    
Zn1   N2    2.032015 S    
C9    C10   1.348545 D    
Zn2   O8    1.922495 S    
C10   O15   1.390500 S    
O14   H4    0.990887 S    
N4    O17   1.299745 A    
Zn2   N1    2.032016 S    
N5    O19   1.299747 A    
N1    N4    1.382498 S    
N1    N2    1.259398 D    
Zn1   O7    1.992742 S    
O13   H3    0.992625 S    
O3    Zn1   1.922495 S    
N2    N5    1.385340 S    
C5    O9    1.382630 S    
O12   H2    0.991492 S    
O8    C4    1.303800 A    
O2    C1    1.292575 A    
O4    C2    1.278467 A    
C2    C8    1.421071 S    
O7    C4    1.285090 A    
C4    C6    1.437276 S    
C9    O14   1.390356 S    
C5    C6    1.345542 D    
Zn1   O5    1.988453 S    
N5    O18   1.301530 A    
O3    C2    1.299816 A    
O15   H5    0.991119 S    
C6    N3    1.444669 S    
C5    C7    1.468287 S    
O5    C3    1.292384 A    
N4    O16   1.300982 A    
C3    C10   1.414168 S    
N3    O10   1.300723 A    
O1    Zn1   1.982841 S    
C7    O12   1.384245 S    
Zn2   O6    1.982842 S    
O2    Zn2   1.988453 S    
O1    C1    1.282620 A    
O6    C3    1.282752 A    
