data_mof_unit_47255.cif
_audit_creation_date              2012-12-11T14:03:52-0500
_audit_creation_method            fapswitch 2.2
_symmetry_space_group_name_H-M    P1
_symmetry_Int_Tables_number       1
_space_group_crystal_system       triclinic
_cell_length_a                    19.175139
_cell_length_b                    11.023618
_cell_length_c                    18.814233
_cell_angle_alpha                 90.806639
_cell_angle_beta                  90.587538
_cell_angle_gamma                 89.978482
_cell_volume                      3976.33812601

loop_
_atom_site_label
_atom_site_type_symbol
_atom_type_description
_atom_site_fract_x
_atom_site_fract_y
_atom_site_fract_z
_atom_type_partial_charge
C1    C     C_R   0.238842 0.465094 0.647413 0.543284
C2    C     C_R   0.761298 0.467029 0.352996 0.568038
C3    C     C_R   0.738859 0.965035 0.647475 0.544084
C4    C     C_R   0.261292 0.967030 0.352998 0.572760
C5    C     C_2   0.298670 0.889571 0.543376 0.398721
C6    C     C_2   0.704184 0.901053 0.455543 0.342475
C7    C     C_2   0.798701 0.389561 0.543371 0.398166
C8    C     C_2   0.203928 0.401440 0.455404 0.342844
C9    C     C_R   0.999919 0.674600 0.428405 0.019810
C10   C     C_R   0.991853 0.658291 0.576865 0.021973
C11   C     C_R   0.500309 0.174595 0.428148 0.019980
C12   C     C_R   0.492237 0.158319 0.576590 0.022034
C13   C     C_R   0.974988 0.901205 0.441299 0.225459
C14   C     C_R   0.949978 0.870383 0.587203 0.213310
C15   C     C_R   0.475608 0.401231 0.440926 0.225862
C16   C     C_R   0.450403 0.370503 0.586757 0.213528
C17   C     C_R   0.942952 0.991896 0.481714 0.464124
C18   C     C_R   0.931321 0.977121 0.553586 0.427464
C19   C     C_R   0.443551 0.491984 0.481265 0.464538
C20   C     C_R   0.431795 0.477235 0.553110 0.427903
C21   C     C_R   0.977324 0.771151 0.545784 -0.142434
C22   C     C_R   0.984664 0.782393 0.470401 -0.157076
C23   C     C_R   0.477785 0.271212 0.545446 -0.142370
C24   C     C_R   0.485189 0.282430 0.470093 -0.157106
C25   C     C_R   0.995756 0.552921 0.533505 -0.121632
C26   C     C_R   0.016057 0.565581 0.463213 -0.110457
C27   C     C_R   0.496222 0.052929 0.533245 -0.121271
C28   C     C_R   0.516487 0.065593 0.462942 -0.110143
C29   C     C_R   0.984710 0.434686 0.559486 0.366394
C30   C     C_R   0.043236 0.463649 0.426515 0.324300
C31   C     C_R   0.485159 0.934679 0.559194 0.365651
C32   C     C_R   0.543629 0.963681 0.426195 0.323352
C33   C     C_R   0.006747 0.333012 0.520730 0.331042
C34   C     C_R   0.031757 0.346185 0.451816 0.315046
C35   C     C_R   0.507233 0.833016 0.520437 0.330975
C36   C     C_R   0.532224 0.846195 0.451518 0.315901
C37   C     C_2   0.257982 0.941248 0.912605 -0.085940
C38   C     C_2   0.739901 0.933235 0.087993 -0.038621
C39   C     C_2   0.758761 0.436825 0.912986 -0.050387
C40   C     C_2   0.239037 0.435442 0.089782 -0.030406
C41   C     C_2   0.266559 0.975763 0.068816 0.230283
C42   C     C_2   0.753692 0.918339 0.918540 0.272797
C43   C     C_2   0.759408 0.461854 0.070009 0.227652
C44   C     C_2   0.254864 0.410992 0.915794 0.300946
C45   C     C_R   0.228286 0.878658 0.650417 0.562936
C46   C     C_R   0.771362 0.881551 0.348259 0.573096
C47   C     C_R   0.728269 0.378624 0.650394 0.561644
C48   C     C_R   0.271347 0.381591 0.348246 0.573829
C49   C     C_2   0.249500 0.059815 0.020642 0.319252
C50   C     C_2   0.743459 0.001282 0.970363 0.339058
C51   C     C_2   0.754526 0.549172 0.021247 0.311402
C52   C     C_2   0.241838 0.488747 0.969221 0.339492
C53   C     C_2   0.221862 0.024854 0.949874 0.275853
C54   C     C_2   0.777785 0.987820 0.038999 0.312092
C55   C     C_2   0.724957 0.521680 0.950734 0.305723
C56   C     C_2   0.277462 0.475912 0.036915 0.304241
C57   C     C_2   0.987046 0.664094 0.915761 0.301475
C58   C     C_2   0.995430 0.655670 0.076174 0.337078
C59   C     C_2   0.486507 0.166452 0.915477 0.304844
C60   C     C_2   0.495761 0.154605 0.076188 0.329562
C61   C     C_2   0.968031 0.572252 0.030923 -0.046245
C62   C     C_2   0.987467 0.565553 0.956884 -0.071419
C63   C     C_2   0.464792 0.075786 0.030384 -0.052565
C64   C     C_2   0.483796 0.067584 0.956109 -0.075145
C65   C     C_R   0.027702 0.653651 0.646360 0.578107
C66   C     C_R   0.970738 0.657641 0.355287 0.606574
C67   C     C_R   0.527827 0.153647 0.646246 0.577235
C68   C     C_R   0.470846 0.157633 0.355189 0.605154
C69   C     C_R   0.240765 0.461406 0.846929 0.549715
C70   C     C_R   0.772103 0.506953 0.141371 0.605986
C71   C     C_R   0.740129 0.964019 0.848368 0.552693
C72   C     C_R   0.274649 0.015128 0.141765 0.627359
C73   C     C_R   0.228396 0.876898 0.851388 0.578664
C74   C     C_R   0.771366 0.875129 0.148807 0.617614
C75   C     C_R   0.728476 0.376302 0.851326 0.597739
C76   C     C_R   0.270860 0.376462 0.149839 0.616507
C77   C     C_R   0.027250 0.653657 0.849440 0.538847
C78   C     C_R   0.970160 0.651706 0.149044 0.544824
C79   C     C_R   0.527215 0.153964 0.849457 0.541501
C80   C     C_R   0.470503 0.151581 0.149206 0.530639
C81   C     C_2   0.254642 0.942542 0.589136 0.321492
C82   C     C_2   0.744631 0.952346 0.407473 0.418674
C83   C     C_2   0.754550 0.442419 0.589051 0.321766
C84   C     C_2   0.244580 0.452515 0.407421 0.419832
C85   C     C_2   0.252497 0.905353 0.420209 0.294889
C86   C     C_2   0.746141 0.902529 0.579554 0.293544
C87   C     C_2   0.752528 0.405312 0.420198 0.294659
C88   C     C_2   0.246087 0.402792 0.579379 0.294618
C89   C     C_2   0.300134 0.935556 0.471343 0.005490
C90   C     C_2   0.707291 0.951325 0.526939 -0.036080
C91   C     C_2   0.800200 0.435454 0.471315 0.006177
C92   C     C_2   0.207066 0.451540 0.526858 -0.035576
Cr1   Cr    Cr6+3 0.113970 0.508630 0.747920 1.057559
Cr2   Cr    Cr6+3 0.886030 0.508630 0.252080 1.020135
Cr3   Cr    Cr6+3 0.613970 0.008630 0.747920 1.057498
Cr4   Cr    Cr6+3 0.386030 0.008630 0.252080 1.030502
Cr5   Cr    Cr6+3 0.269200 0.666740 0.749850 1.134336
Cr6   Cr    Cr6+3 0.730800 0.666740 0.250150 1.050485
Cr7   Cr    Cr6+3 0.769200 0.166740 0.749850 1.134899
Cr8   Cr    Cr6+3 0.230800 0.166740 0.250150 1.053427
Cr9   Cr    Cr6+3 0.112300 0.820070 0.749800 1.076756
Cr10  Cr    Cr6+3 0.887700 0.820070 0.250200 1.087018
Cr11  Cr    Cr6+3 0.612300 0.320070 0.749800 1.079973
Cr12  Cr    Cr6+3 0.387700 0.320070 0.250200 1.082921
H1    H     H_    0.337049 0.008349 0.462281 0.020686
H2    H     H_    0.683078 0.039406 0.534729 0.057711
H3    H     H_    0.837144 0.508201 0.462243 0.020614
H4    H     H_    0.182650 0.539420 0.534789 0.057410
H5    H     H_    0.309155 0.911945 0.931014 0.089161
H6    H     H_    0.684560 0.916863 0.078225 0.047625
H7    H     H_    0.808375 0.401518 0.932484 0.055006
H8    H     H_    0.182699 0.427518 0.083157 0.068726
H9    H     H_    0.931371 0.503976 0.048545 0.080441
H10   H     H_    0.007425 0.478335 0.938780 0.098078
H11   H     H_    0.425080 0.012669 0.047742 0.093218
H12   H     H_    0.500125 0.978608 0.937124 0.095737
O1    O     O_R   0.043230 0.549300 0.667990 -0.475447
O2    O     O_R   0.956770 0.549300 0.332010 -0.491141
O3    O     O_R   0.543230 0.049300 0.667990 -0.475498
O4    O     O_R   0.456770 0.049300 0.332010 -0.492089
O5    O     O_R   0.262920 0.788600 0.824420 -0.494721
O6    O     O_R   0.737080 0.788600 0.175580 -0.499165
O7    O     O_R   0.762920 0.288600 0.824420 -0.495813
O8    O     O_R   0.237080 0.288600 0.175580 -0.492534
O9    O     O_R   0.167530 0.905110 0.830340 -0.455130
O10   O     O_R   0.832470 0.905110 0.169660 -0.466485
O11   O     O_R   0.667530 0.405110 0.830340 -0.455834
O12   O     O_R   0.332470 0.405110 0.169660 -0.471992
O13   O     O_R   0.054010 0.748440 0.822860 -0.504860
O14   O     O_R   0.945990 0.748440 0.177140 -0.504745
O15   O     O_R   0.554010 0.248440 0.822860 -0.499527
O16   O     O_R   0.445990 0.248440 0.177140 -0.504007
O17   O     O_3   0.165160 0.665150 0.749190 -0.279982
O18   O     O_3   0.834840 0.665150 0.250810 -0.294757
O19   O     O_3   0.665160 0.165150 0.749190 -0.280215
O20   O     O_3   0.334840 0.165150 0.250810 -0.308221
O21   O     O_R   0.178620 0.457600 0.674100 -0.546696
O22   O     O_R   0.821380 0.457600 0.325900 -0.514224
O23   O     O_R   0.678620 0.957600 0.674100 -0.545994
O24   O     O_R   0.321380 0.957600 0.325900 -0.512907
O25   O     O_R   0.284680 0.542100 0.669460 -0.424683
O26   O     O_R   0.715320 0.542100 0.330540 -0.513296
O27   O     O_R   0.784680 0.042100 0.669460 -0.424322
O28   O     O_R   0.215320 0.042100 0.330540 -0.512951
O29   O     O_R   0.262860 0.790390 0.676650 -0.449723
O30   O     O_R   0.737140 0.790390 0.323350 -0.466894
O31   O     O_R   0.762860 0.290390 0.676650 -0.450757
O32   O     O_R   0.237140 0.290390 0.323350 -0.467914
O33   O     O_R   0.167460 0.907030 0.670940 -0.506673
O34   O     O_R   0.832540 0.907030 0.329060 -0.465181
O35   O     O_R   0.667460 0.407030 0.670940 -0.508047
O36   O     O_R   0.332540 0.407030 0.329060 -0.463674
O37   O     O_R   0.053950 0.750220 0.675100 -0.468530
O38   O     O_R   0.946050 0.750220 0.324900 -0.459823
O39   O     O_R   0.553950 0.250220 0.675100 -0.469738
O40   O     O_R   0.446050 0.250220 0.324900 -0.459566
O41   O     O_R   0.043300 0.547370 0.827390 -0.522881
O42   O     O_R   0.956700 0.547370 0.172610 -0.547030
O43   O     O_R   0.543300 0.047370 0.827390 -0.524762
O44   O     O_R   0.456700 0.047370 0.172610 -0.547272
O45   O     O_R   0.178690 0.455820 0.821860 -0.492411
O46   O     O_R   0.821310 0.455820 0.178140 -0.527453
O47   O     O_R   0.678690 0.955820 0.821860 -0.496574
O48   O     O_R   0.321310 0.955820 0.178140 -0.490979
O49   O     O_R   0.284750 0.540170 0.828860 -0.522483
O50   O     O_R   0.715250 0.540170 0.171140 -0.540245
O51   O     O_R   0.784750 0.040170 0.828860 -0.522910
O52   O     O_R   0.215250 0.040170 0.171140 -0.540103
O53   O     O_3   0.159773 0.071546 0.921156 -0.560228
C93   C     C_3   0.122094 0.147330 0.968039 -0.076542
H13   H     H_    0.146626 0.238400 0.972035 0.185567
H14   H     H_    0.115833 0.106624 0.021283 0.115128
H15   H     H_    0.068922 0.160168 0.945598 0.103313
O54   O     O_3   0.849942 0.997117 0.045984 -0.536754
C94   C     C_3   0.873337 0.108121 0.018310 -0.117142
H16   H     H_    0.850005 0.186468 0.047004 0.154985
H17   H     H_    0.862694 0.114926 0.960319 0.138987
H18   H     H_    0.930677 0.113723 0.026153 0.099321
O55   O     O_3   0.663665 0.573854 0.923905 -0.561304
C95   C     C_3   0.629621 0.650100 0.973414 -0.082832
H19   H     H_    0.659713 0.734879 0.982909 0.181557
H20   H     H_    0.619347 0.602935 0.024084 0.107288
H21   H     H_    0.578317 0.676413 0.950622 0.112731
O56   O     O_3   0.349759 0.472034 0.039793 -0.521066
C96   C     C_3   0.375564 0.590171 0.029639 -0.112832
H22   H     H_    0.358535 0.652503 0.073131 0.163044
H23   H     H_    0.359813 0.626382 0.976914 0.142071
H24   H     H_    0.433383 0.586923 0.031370 0.105691
O57   O     O_3   0.274107 0.853894 0.051538 -0.648288
C97   C     C_3   0.212883 0.791673 0.069964 -0.077709
H25   H     H_    0.174328 0.798385 0.025880 0.214945
H26   H     H_    0.189642 0.822985 0.121002 0.126183
H27   H     H_    0.225771 0.695077 0.077263 0.176098
O58   O     O_3   0.794498 0.815859 0.931394 -0.513784
C98   C     C_3   0.801265 0.741556 0.870068 -0.064570
H28   H     H_    0.831298 0.659326 0.884233 0.155382
H29   H     H_    0.830941 0.788557 0.828413 0.069303
H30   H     H_    0.749482 0.712588 0.848817 0.136276
O59   O     O_3   0.739221 0.342711 0.052743 -0.597129
C99   C     C_3   0.726006 0.271187 0.112889 -0.065883
H31   H     H_    0.700748 0.185787 0.094787 0.191265
H32   H     H_    0.689021 0.315595 0.150041 0.127941
H33   H     H_    0.775271 0.247190 0.140832 0.128242
O60   O     O_3   0.298092 0.310805 0.926459 -0.516794
C100  C     C_3   0.301913 0.236396 0.864964 -0.083286
H34   H     H_    0.333372 0.154951 0.877476 0.142886
H35   H     H_    0.328594 0.283965 0.821590 0.064604
H36   H     H_    0.249277 0.206302 0.846739 0.144188
O61   O     O_3   0.046853 0.735150 0.053267 -0.573665
C101  C     C_3   0.037927 0.853058 0.081772 -0.097896
H37   H     H_    0.983229 0.885468 0.075625 0.202833
H38   H     H_    0.070888 0.916108 0.051573 0.111708
H39   H     H_    0.055719 0.857585 0.138145 0.115856
O62   O     O_3   0.952627 0.768080 0.941365 -0.527788
C102  C     C_3   0.962934 0.873470 0.901468 -0.050464
H40   H     H_    0.946924 0.860435 0.845033 0.114678
H41   H     H_    0.017488 0.906409 0.907461 0.162076
H42   H     H_    0.928942 0.945526 0.923035 0.160546
O63   O     O_3   0.551689 0.225360 0.054258 -0.538710
C103  C     C_3   0.550345 0.342072 0.085718 -0.066052
H43   H     H_    0.499028 0.387147 0.077268 0.172561
H44   H     H_    0.590231 0.398455 0.059696 0.162654
H45   H     H_    0.564091 0.338635 0.143163 0.099272
O64   O     O_3   0.457621 0.274356 0.942941 -0.522321
C104  C     C_3   0.460859 0.375036 0.897815 -0.037997
H46   H     H_    0.442985 0.352953 0.842913 0.107040
H47   H     H_    0.513992 0.415189 0.899235 0.162651
H48   H     H_    0.424888 0.445594 0.918028 0.168880
F1    F     F_    0.329867 0.781448 0.557022 -0.496145
F2    F     F_    0.676326 0.789029 0.444700 -0.626168
F3    F     F_    0.830072 0.281637 0.557134 -0.496020
F4    F     F_    0.175896 0.289567 0.444482 -0.626546
O65   O     O_3   0.214558 0.797580 0.418837 -0.520129
C105  C     C_3   0.171596 0.784908 0.478544 -0.087889
H49   H     H_    0.200081 0.740358 0.522277 0.163498
H50   H     H_    0.129388 0.721460 0.463979 0.147827
H51   H     H_    0.147485 0.871714 0.496432 0.108539
O66   O     O_3   0.767503 0.781510 0.580235 -0.551161
C106  C     C_3   0.808463 0.747994 0.521070 -0.045215
H52   H     H_    0.777042 0.697048 0.481319 0.214891
H53   H     H_    0.848314 0.682278 0.538306 0.122200
H54   H     H_    0.834935 0.825164 0.495684 0.053536
O67   O     O_3   0.714694 0.297439 0.418773 -0.522930
C107  C     C_3   0.671729 0.284592 0.478457 -0.087951
H55   H     H_    0.700264 0.240259 0.522230 0.163744
H56   H     H_    0.629677 0.220861 0.463884 0.147956
H57   H     H_    0.647429 0.371274 0.496280 0.109572
O68   O     O_3   0.267815 0.281940 0.579853 -0.551100
C108  C     C_3   0.308535 0.248823 0.520425 -0.045982
H58   H     H_    0.276972 0.198087 0.480695 0.213840
H59   H     H_    0.348472 0.182981 0.537273 0.121675
H60   H     H_    0.334962 0.326192 0.495194 0.054485
F5    F     F_    0.220257 0.045278 0.570066 -0.675192
F6    F     F_    0.775715 0.061073 0.422438 -0.567712
F7    F     F_    0.719959 0.544865 0.569839 -0.675166
F8    F     F_    0.275818 0.561078 0.422478 -0.566344
F9    F     F_    0.923974 0.097319 0.450650 -0.490959
F10   F     F_    0.902383 0.068809 0.591865 -0.474035
F11   F     F_    0.424567 0.597346 0.450131 -0.490883
F12   F     F_    0.402635 0.568818 0.591306 -0.473853
O69   O     O_3   0.993594 0.933733 0.373284 -0.518429
C109  C     C_3   0.066498 0.932132 0.366580 -0.071759
H61   H     H_    0.086424 0.837851 0.364697 0.148879
H62   H     H_    0.092426 0.987566 0.409082 0.175640
H63   H     H_    0.079826 0.973156 0.314996 0.143902
O70   O     O_3   0.945401 0.871468 0.660940 -0.517475
C110  C     C_3   0.894466 0.790545 0.686083 -0.055350
H64   H     H_    0.881147 0.714184 0.649780 0.138401
H65   H     H_    0.846780 0.841143 0.700073 0.155030
H66   H     H_    0.914652 0.749378 0.735594 0.101253
O71   O     O_3   0.494167 0.433592 0.372863 -0.518127
C111  C     C_3   0.567046 0.431518 0.365999 -0.073362
H67   H     H_    0.586806 0.337124 0.364223 0.147343
H68   H     H_    0.593145 0.487006 0.408364 0.177041
H69   H     H_    0.580336 0.472222 0.314315 0.141584
O72   O     O_3   0.445395 0.371411 0.660429 -0.518006
C112  C     C_3   0.394536 0.289954 0.685095 -0.055375
H70   H     H_    0.381095 0.214278 0.648382 0.139348
H71   H     H_    0.346882 0.340370 0.699395 0.155136
H72   H     H_    0.414897 0.247566 0.734137 0.100168
F13   F     F_    0.079333 0.479146 0.365448 -0.627783
F14   F     F_    0.949720 0.416963 0.620990 -0.570473
F15   F     F_    0.579614 0.979252 0.365069 -0.629834
F16   F     F_    0.450015 0.916901 0.620600 -0.570567
O73   O     O_3   0.002532 0.219764 0.550196 -0.429225
C113  C     C_3   0.064497 0.198328 0.589054 -0.014389
H73   H     H_    0.071036 0.264947 0.633647 0.140284
H74   H     H_    0.110864 0.199722 0.554054 0.216555
H75   H     H_    0.061564 0.106644 0.612405 0.170557
O74   O     O_3   0.045887 0.243024 0.411319 -0.461576
C114  C     C_3   0.009973 0.247690 0.345328 0.028085
H76   H     H_    0.041190 0.296785 0.305607 0.158973
H77   H     H_    0.956808 0.288006 0.349847 0.148766
H78   H     H_    0.002891 0.154228 0.324405 0.155030
O75   O     O_3   0.503039 0.719725 0.549855 -0.429689
C115  C     C_3   0.564600 0.698928 0.589502 -0.013969
H79   H     H_    0.570173 0.765216 0.634386 0.140898
H80   H     H_    0.611441 0.701450 0.555184 0.216242
H81   H     H_    0.561845 0.606962 0.612504 0.170655
O76   O     O_3   0.546473 0.742997 0.411087 -0.460741
C116  C     C_3   0.510881 0.747628 0.344919 0.028941
H82   H     H_    0.542416 0.796319 0.305287 0.158407
H83   H     H_    0.457783 0.788318 0.349109 0.149060
H84   H     H_    0.503691 0.654122 0.324103 0.155193
F17   F     F_    0.249026 0.178796 0.040234 -0.657268
F18   F     F_    0.706252 0.104705 0.958547 -0.635215
F19   F     F_    0.770841 0.666159 0.038369 -0.646643
F20   F     F_    0.198669 0.585723 0.960006 -0.681978

loop_
_geom_bond_atom_site_label_1
_geom_bond_atom_site_label_2
_ccdc_geom_bond_type
C35   O75   S    
C80   O16   A    
C87   C91   D    
C19   C20   A    
C94   H17   S    
C116  H82   S    
C95   H19   S    
C12   C23   A    
C71   O47   A    
C85   O65   S    
C14   C21   A    
Cr7   O27   S    
C62   H10   S    
C19   F11   S    
O71   C111  S    
C29   C33   A    
C104  H48   S    
C107  H55   S    
C114  H76   S    
C111  H67   S    
C84   F8    S    
C52   F20   S    
C8    C92   S    
C47   C83   S    
C37   H5    S    
C98   H30   S    
C63   H11   S    
C58   C61   D    
C39   H7    S    
O59   C99   S    
C21   C22   A    
O60   C100  S    
C105  H50   S    
C70   O46   A    
C41   C49   D    
C95   H20   S    
C9    C26   A    
Cr7   O51   S    
C10   C21   A    
C25   C29   A    
C12   C27   A    
C27   C31   A    
C2    O22   A    
C91   H3    S    
C28   C32   A    
C3    O27   A    
Cr8   O28   S    
C60   O63   S    
C56   O56   S    
Cr3   O3    S    
C40   C76   S    
Cr8   O8    S    
C105  H51   S    
C102  H40   S    
Cr3   O47   S    
C94   H16   S    
Cr12  O12   S    
Cr1   O45   S    
C16   C20   A    
C77   O13   A    
C115  H79   S    
C33   O73   S    
C73   O5    A    
O76   C116  S    
C116  H84   S    
Cr7   O31   S    
C113  H75   S    
Cr5   O29   S    
C45   C81   S    
Cr10  O14   S    
C4    O28   A    
Cr9   O17   S    
Cr3   O23   S    
C107  H57   S    
C41   O57   S    
Cr12  O36   S    
C113  H74   S    
C54   O54   S    
C46   O30   A    
C111  H69   S    
C49   C53   S    
C31   C35   A    
C86   O66   S    
C33   C34   A    
C51   C55   S    
C36   O76   S    
C59   O64   S    
C98   H28   S    
C99   H32   S    
C81   F5    S    
C5    C89   S    
C7    C83   D    
C97   H25   S    
Cr5   O17   S    
C40   H8    S    
C108  H58   S    
Cr3   O43   S    
C32   C36   A    
C114  H77   S    
Cr1   O17   S    
O69   C109  S    
C110  H66   S    
C96   H23   S    
C93   H13   S    
O56   C96   S    
O54   C94   S    
Cr5   O5    S    
C46   C82   S    
C92   H4    S    
C115  H81   S    
C29   F14   S    
Cr9   O9    S    
C23   C24   A    
C39   C75   S    
C32   F15   S    
Cr11  O11   S    
O65   C105  S    
C37   C53   D    
C44   C52   D    
C71   O51   A    
C112  H70   S    
Cr6   O26   S    
C72   O52   A    
Cr1   O1    S    
C103  H43   S    
O61   C101  S    
C100  H35   S    
C47   O31   A    
C30   C34   A    
C76   O8    A    
C102  H42   S    
C25   C26   A    
C6    C90   S    
Cr4   O48   S    
C88   O68   S    
C79   O15   A    
C17   C18   A    
C2    C87   S    
C106  H53   S    
Cr6   O50   S    
C42   C50   D    
C10   C25   A    
C15   C24   A    
C26   C30   A    
C16   C23   A    
C101  H38   S    
C6    F2    S    
C2    O26   A    
C3    O23   A    
C17   F9    S    
C1    O21   A    
C11   C68   S    
C38   C74   S    
C58   O61   S    
Cr6   O6    S    
C60   C80   S    
C108  H60   S    
Cr12  O20   S    
Cr4   O44   S    
C55   O55   S    
Cr10  O10   S    
Cr4   O24   S    
C110  H64   S    
C109  H61   S    
Cr11  O35   S    
C101  H39   S    
C13   C17   A    
C78   O14   A    
C68   O4    A    
Cr2   O2    S    
C73   O9    A    
C104  H47   S    
C107  H56   S    
C75   O11   A    
C61   C62   S    
C69   O49   A    
C63   C64   S    
O72   C112  S    
C111  H68   S    
C112  H72   S    
C89   H1    S    
C44   O60   S    
C65   O1    A    
Cr11  O15   S    
C103  H45   S    
Cr8   O20   S    
C98   H29   S    
Cr9   O13   S    
C64   H12   S    
C106  H52   S    
C16   O72   S    
O64   C104  S    
C109  H63   S    
Cr4   O20   S    
C7    F3    S    
C15   C19   A    
C50   C54   S    
C49   F17   S    
C79   O43   A    
C80   O44   A    
O67   C107  S    
C67   O39   A    
O74   C114  S    
C97   H27   S    
C39   C55   D    
C40   C56   D    
C38   H6    S    
Cr10  O38   S    
C53   O53   S    
C1    C88   S    
C115  H80   S    
O58   C98   S    
Cr2   O42   S    
C3    C86   S    
C50   F18   S    
C94   H18   S    
C116  H83   S    
C57   C77   S    
C90   H2    S    
C59   C79   S    
O63   C103  S    
C66   O38   A    
C85   C89   D    
C30   F13   S    
C83   F7    S    
O73   C113  S    
C5    C81   D    
C38   C54   D    
C7    C91   S    
C72   O48   A    
Cr7   O19   S    
C44   C69   S    
Cr5   O25   S    
Cr10  O34   S    
Cr11  O39   S    
C74   O6    A    
C47   O35   A    
C48   O36   A    
C86   C90   D    
C76   O12   A    
C45   O29   A    
C105  H49   S    
O75   C115  S    
O68   C108  S    
O66   C106  S    
C97   H26   S    
C8    C84   D    
C102  H41   S    
C31   F16   S    
C110  H65   S    
C43   C51   D    
C96   H22   S    
C93   H14   S    
C11   C28   A    
Cr5   O49   S    
C42   C71   S    
C13   C22   A    
O57   C97   S    
C18   F10   S    
C1    O25   A    
C58   C78   S    
O55   C95   S    
Cr12  O16   S    
C82   F6    S    
C93   H15   S    
C6    C82   D    
O53   C93   S    
C14   C18   A    
C103  H44   S    
C57   C62   D    
C100  H34   S    
C59   C64   D    
C60   C63   D    
C75   O7    A    
C69   O45   A    
C70   O50   A    
C113  H73   S    
C9    C22   A    
C11   C24   A    
C42   O58   S    
Cr11  O19   S    
C9    C66   S    
C88   C92   D    
C99   H31   S    
C65   O37   A    
Cr2   O46   S    
C95   H21   S    
C15   O71   S    
C10   C65   S    
C78   O42   A    
C12   C67   S    
C108  H59   S    
C114  H78   S    
O62   C102  S    
C96   H24   S    
C109  H62   S    
C4    C85   S    
Cr6   O30   S    
C48   C84   S    
Cr10  O18   S    
C4    O24   A    
C87   O67   S    
Cr9   O37   S    
Cr3   O19   S    
C104  H46   S    
Cr12  O40   S    
Cr1   O41   S    
C20   F12   S    
C41   C72   S    
C51   F19   S    
C46   O34   A    
C43   C70   S    
C112  H71   S    
C61   H9    S    
C5    F1    S    
Cr7   O7    S    
C100  H36   S    
C37   C73   S    
Cr4   O4    S    
C68   O40   A    
Cr6   O18   S    
Cr8   O52   S    
C8    F4    S    
C74   O10   A    
C67   O3    A    
Cr8   O32   S    
C99   H33   S    
Cr2   O22   S    
C48   O32   A    
Cr9   O33   S    
Cr2   O18   S    
C106  H54   S    
C45   O33   A    
Cr1   O21   S    
O70   C110  S    
C14   O70   S    
C57   O62   S    
C101  H37   S    
C66   O2    A    
C27   C28   A    
C43   O59   S    
C35   C36   A    
C13   O69   S    
C52   C56   S    
C77   O41   A    
C34   O74   S    
