data_mof_unit_23012.cif
_audit_creation_date              2012-10-26T19:43:53-0400
_audit_creation_method            fapswitch 2.2
_symmetry_space_group_name_H-M    P1
_symmetry_Int_Tables_number       1
_space_group_crystal_system       triclinic
_cell_length_a                    12.350291
_cell_length_b                    13.176417
_cell_length_c                    13.862636
_cell_angle_alpha                 105.36858
_cell_angle_beta                  73.649494
_cell_angle_gamma                 116.662401
_cell_volume                      1909.01710782

loop_
_atom_site_label
_atom_site_type_symbol
_atom_type_description
_atom_site_fract_x
_atom_site_fract_y
_atom_site_fract_z
_atom_type_partial_charge
C1    C     C_R   0.144598 0.713624 0.507440 0.529348
C2    C     C_R   0.563859 0.022522 0.463692 0.030506
C3    C     C_R   0.610941 0.942216 0.399230 0.052932
C4    C     C_R   0.984325 0.504589 0.686437 0.548708
C5    C     C_R   0.530122 0.832916 0.362675 -0.138822
C6    C     C_R   0.403767 0.799877 0.394018 -0.115161
C7    C     C_R   0.648362 0.131674 0.498708 -0.136396
C8    C     C_R   0.820586 0.084125 0.401965 -0.135155
C9    C     C_R   0.226593 0.836807 0.509035 -0.040901
C10   C     C_R   0.640531 0.678304 0.657761 -0.137927
C11   C     C_R   0.250933 0.349916 0.364950 0.051369
C12   C     C_1   0.975547 0.507586 0.791709 -0.037677
C13   C     C_R   0.348825 0.315991 0.335742 -0.159814
C14   C     C_R   0.448230 0.372357 0.386399 -0.138477
C15   C     C_R   0.450812 0.463886 0.467480 -0.002638
C16   C     C_R   0.856164 0.286179 0.485412 0.543567
C17   C     C_R   0.347537 0.494969 0.495234 0.179755
C18   C     C_R   0.551071 0.525342 0.522335 -0.024553
C19   C     C_R   0.545314 0.616213 0.602689 0.009570
C20   C     C_R   0.443974 0.644506 0.628823 -0.173593
C21   C     C_R   0.346958 0.584632 0.576984 -0.093064
C22   C     C_R   0.657504 0.501407 0.501438 0.008535
C23   C     C_R   0.738679 0.973123 0.370054 -0.132245
C24   C     C_R   0.741324 0.649341 0.635539 0.288229
C25   C     C_R   0.015677 0.495273 0.313490 0.541034
C26   C     C_1   0.023520 0.489058 0.207695 -0.040005
C27   C     C_2   0.037975 0.473789 0.011062 0.026333
C28   C     C_2   0.965932 0.509697 0.984471 -0.119186
C29   C     C_1   0.969815 0.509299 0.879918 -0.072070
C30   C     C_1   0.030531 0.482349 0.118257 -0.039286
C31   C     C_3   0.802742 0.695912 0.797796 -0.298745
C32   C     C_3   0.130773 0.433768 0.932096 -0.250096
C33   C     C_3   0.184330 0.373175 0.973687 -0.446317
C34   C     C_R   0.775200 0.164326 0.464759 -0.001484
C35   C     C_3   0.143917 0.110328 0.733083 -0.311669
C36   C     C_R   0.177992 0.918420 0.562111 -0.095373
C37   C     C_R   0.254366 0.035315 0.578125 0.140190
C38   C     C_R   0.381683 0.070764 0.544338 -0.115260
C39   C     C_R   0.434231 0.990545 0.492126 0.004904
C40   C     C_R   0.354186 0.874315 0.465361 0.012276
Cu1   Cu    Cu3+1 0.899780 0.525060 0.522890 0.956822
Cu2   Cu    Cu3+1 0.100220 0.474940 0.477110 0.916027
H1    H     H_    0.902452 0.540519 0.042344 0.115220
H2    H     H_    0.918745 0.108269 0.374737 0.124132
H3    H     H_    0.564664 0.772434 0.309661 0.105934
H4    H     H_    0.775087 0.912300 0.320429 0.106166
H5    H     H_    0.617987 0.193720 0.552526 0.118431
H6    H     H_    0.080042 0.891350 0.591357 0.136480
H7    H     H_    0.436776 0.162008 0.557605 0.096118
H8    H     H_    0.879164 0.798097 0.686039 0.216946
H9    H     H_    0.738972 0.737672 0.841643 0.105606
H10   H     H_    0.886676 0.735537 0.832057 0.137069
H11   H     H_    0.757254 0.602848 0.803676 0.169489
H12   H     H_    0.346177 0.716490 0.358477 0.153523
H13   H     H_    0.237930 0.433344 0.033055 0.158150
H14   H     H_    0.109172 0.297459 0.006393 0.151573
H15   H     H_    0.247259 0.342985 0.910871 0.129552
H16   H     H_    0.085473 0.372514 0.868535 0.150421
H17   H     H_    0.207655 0.509395 0.900429 0.147289
H18   H     H_    0.260895 0.201249 0.616309 0.253273
H19   H     H_    0.105424 0.176678 0.763686 0.142833
H20   H     H_    0.212065 0.125656 0.779005 0.137744
H21   H     H_    0.066709 0.024772 0.740519 0.142913
H22   H     H_    0.438928 0.713434 0.690964 0.108252
H23   H     H_    0.636244 0.748511 0.718656 0.092300
H24   H     H_    0.669721 0.434346 0.441117 0.121706
H25   H     H_    0.174226 0.305541 0.325157 0.123759
H26   H     H_    0.521472 0.342569 0.360698 0.101152
H27   H     H_    0.347633 0.245728 0.273583 0.102107
H28   H     H_    0.272827 0.611555 0.604417 0.183398
N1    N     N_R   0.748810 0.563010 0.557590 -0.212075
N2    N     N_R   0.250540 0.437620 0.443020 -0.235739
N3    N     N_2   0.837485 0.711997 0.692309 -0.451878
N4    N     N_2   0.203095 0.117861 0.627530 -0.510456
O1    O     O_R   0.025040 0.682470 0.528790 -0.474582
O2    O     O_R   0.194310 0.640150 0.490130 -0.529424
O3    O     O_R   0.903380 0.524130 0.659910 -0.465666
O4    O     O_R   0.072660 0.481800 0.621240 -0.513379
O5    O     O_R   0.805690 0.359850 0.509870 -0.513506
O6    O     O_R   0.974960 0.317530 0.471210 -0.502014
O7    O     O_R   0.927340 0.518200 0.378760 -0.498366
O8    O     O_R   0.096620 0.475870 0.340090 -0.508642

loop_
_geom_bond_atom_site_label_1
_geom_bond_atom_site_label_2
_ccdc_geom_bond_type
C33   H13   S    
C15   C18   A    
C37   N4    S    
C35   N4    S    
Cu2   O6    S    
C12   C29   T    
Cu1   Cu2   S    
C3    C23   A    
C19   C20   A    
Cu2   O8    S    
C32   H16   S    
C31   H10   S    
C38   H7    S    
C28   C29   S    
Cu1   O3    S    
C38   C39   A    
C24   N3    S    
C31   N3    S    
C8    C23   A    
C18   C19   A    
C22   H24   S    
C16   C34   S    
C2    C39   A    
C2    C7    A    
C9    C36   A    
C4    C12   S    
Cu1   N1    S    
C33   H14   S    
C23   H4    S    
C13   C14   A    
C27   C30   S    
C25   O7    A    
C6    H12   S    
C11   H25   S    
C1    O1    A    
C1    C9    S    
H8    N3    S    
C39   C40   A    
C11   N2    A    
C10   C24   A    
C25   C26   S    
C5    H3    S    
C9    C40   A    
C17   C21   A    
C16   O6    A    
C7    H5    S    
C20   H22   S    
C4    O4    A    
C37   C38   A    
Cu1   O1    S    
C10   C19   A    
Cu1   O7    S    
Cu2   N2    S    
C35   H19   S    
C8    C34   A    
C31   H11   S    
Cu2   O4    S    
C25   O8    A    
C7    C34   A    
C6    C40   A    
C22   N1    A    
C10   H23   S    
C15   C17   A    
C36   C37   A    
C33   H15   S    
C27   C32   S    
C18   C22   A    
C1    O2    A    
C8    H2    S    
C31   H9    S    
C3    C5    A    
Cu1   O5    S    
C26   C30   T    
C28   H1    S    
Cu2   O2    S    
C21   H28   S    
C16   O5    A    
C32   C33   S    
C2    C3    A    
C4    O3    A    
C11   C13   A    
C5    C6    A    
C13   H27   S    
H18   N4    S    
C36   H6    S    
C35   H20   S    
C20   C21   A    
C17   N2    A    
C27   C28   D    
C14   H26   S    
C14   C15   A    
C35   H21   S    
C32   H17   S    
C24   N1    A    
