data_mof_unit_15097.cif
_audit_creation_date              2012-12-11T17:34:04-0500
_audit_creation_method            fapswitch 2.2
_symmetry_space_group_name_H-M    P1
_symmetry_Int_Tables_number       1
_space_group_crystal_system       triclinic
_cell_length_a                    8.346947
_cell_length_b                    16.430201
_cell_length_c                    18.786276
_cell_angle_alpha                 99.865701
_cell_angle_beta                  91.51595
_cell_angle_gamma                 93.415075
_cell_volume                      2532.01965639

loop_
_atom_site_label
_atom_site_type_symbol
_atom_type_description
_atom_site_fract_x
_atom_site_fract_y
_atom_site_fract_z
_atom_type_partial_charge
Ba1   Ba    Ba6+2 0.845660 0.536000 0.465120 1.683952
Ba2   Ba    Ba6+2 0.344160 0.464070 0.534880 1.712527
C1    C     C_3   0.659435 0.830504 0.299822 -0.355280
C2    C     C_R   0.908803 0.424072 0.095938 0.055662
C3    C     C_R   0.755345 0.388522 0.072442 -0.029890
C4    C     C_3   0.072586 0.712352 0.267073 0.219429
C5    C     C_R   0.695539 0.391180 0.002753 -0.068672
C6    C     C_R   0.787854 0.429647 0.955048 0.021328
C7    C     C_R   0.940022 0.467913 0.978500 0.065998
C8    C     C_R   0.731099 0.428710 0.884010 -0.074033
C9    C     C_R   0.825550 0.463734 0.834373 0.017590
C10   C     C_R   0.975038 0.506844 0.858836 -0.074466
C11   C     C_R   0.030951 0.509112 0.931404 0.007931
C12   C     C_3   0.656645 0.743598 0.317814 0.306037
C13   C     C_R   0.775906 0.455863 0.760767 0.016517
C14   C     C_R   0.878449 0.486324 0.712306 -0.285736
C15   C     C_R   0.021301 0.533551 0.735413 0.110101
C16   C     C_3   0.007979 0.731919 0.194733 -0.312636
C17   C     C_R   0.069296 0.546656 0.810897 -0.124626
C18   C     C_R   0.155220 0.500019 0.072287 0.015762
C19   C     C_R   0.218056 0.495273 0.142685 -0.080361
C20   C     C_R   0.120511 0.458888 0.191652 -0.034356
C21   C     C_R   0.969549 0.420485 0.165751 -0.024726
C22   C     C_R   0.207336 0.597234 0.840559 0.569889
C23   C     C_3   0.502469 0.326790 0.313126 0.250934
C24   C     C_R   0.264963 0.598733 0.912663 -0.076090
C25   C     C_R   0.180190 0.550054 0.956445 -0.013825
C26   C     C_R   0.244321 0.542672 0.025766 -0.003783
C27   C     C_R   0.408849 0.644865 0.942092 -0.024686
C28   C     C_3   0.207036 0.717425 0.621385 0.379112
C29   C     C_R   0.479502 0.628030 0.006169 -0.042066
C30   C     C_R   0.398832 0.577263 0.048113 -0.043520
C31   C     C_R   0.377368 0.527722 0.163841 -0.117157
C32   C     C_R   0.468863 0.564417 0.113699 0.550576
C33   C     C_R   0.435800 0.526071 0.235421 0.116095
C34   C     C_3   0.481420 0.296011 0.231177 -0.120370
C35   C     C_R   0.333710 0.495200 0.284306 -0.225330
C36   C     C_R   0.176609 0.462961 0.264797 0.028082
C37   C     C_R   0.381797 0.729658 0.471631 -0.245228
C38   C     C_R   0.529793 0.757571 0.505919 0.000318
C39   C     C_R   0.584738 0.841036 0.511064 -0.144399
C40   C     C_3   0.238808 0.810780 0.642248 -0.368574
C41   C     C_R   0.490168 0.896970 0.481874 0.240000
C42   C     C_R   0.338369 0.867975 0.450164 -0.177412
C43   C     C_R   0.283603 0.784939 0.446116 0.056184
C44   C     C_R   0.621255 0.145088 0.484843 -0.121241
C45   C     C_3   0.150706 0.305387 0.731764 0.300998
C46   C     C_R   0.669538 0.228947 0.489833 0.000130
C47   C     C_R   0.721489 0.091248 0.513898 0.242402
C48   C     C_R   0.815318 0.260379 0.524271 -0.312924
C49   C     C_R   0.920257 0.207955 0.549161 0.018574
C50   C     C_R   0.872705 0.123576 0.545133 -0.133892
C51   C     C_3   0.985854 0.281318 0.376826 0.297594
C52   C     C_3   0.960091 0.187766 0.354614 -0.347602
C53   C     C_3   0.733341 0.690655 0.692724 0.678980
C54   C     C_3   0.808567 0.757398 0.753295 -0.188757
C55   C     C_2   0.640069 0.623955 0.721175 0.525758
C56   C     C_3   0.172809 0.281624 0.806713 -0.214463
C57   C     C_2   0.322385 0.247395 0.212730 0.628135
C58   C     C_2   0.621543 0.247344 0.202912 0.581936
C59   C     C_2   0.070421 0.815527 0.181471 0.516282
C60   C     C_2   0.237583 0.352816 0.862636 0.435788
C61   C     C_2   0.753697 0.245858 0.701571 0.539192
C62   C     C_2   0.481154 0.716153 0.912194 0.646238
C63   C     C_2   0.248744 0.702142 0.262860 0.364650
C64   C     C_3   0.575236 0.247897 0.694590 0.259045
C65   C     C_3   0.494599 0.164601 0.704889 -0.302600
C66   C     C_R   0.001090 0.464537 0.049126 0.067519
F1    F     F_    0.854114 0.655105 0.654070 -0.762188
F2    F     F_    0.289774 0.642977 0.798989 -0.708126
F3    F     F_    0.627314 0.586991 0.126490 -0.707172
H1    H     H_    0.768143 0.735754 0.347538 0.098123
H2    H     H_    0.677029 0.876803 0.350308 0.103766
H3    H     H_    0.877873 0.805343 0.729603 0.092690
H4    H     H_    0.891775 0.729885 0.788369 0.110544
H5    H     H_    0.713819 0.787747 0.786752 0.106520
H6    H     H_    0.557239 0.737750 0.354291 0.058610
H7    H     H_    0.543872 0.839882 0.272674 0.130012
H8    H     H_    0.388111 0.350725 0.334263 -0.010580
H9    H     H_    0.597679 0.378038 0.322642 0.025665
H10   H     H_    0.480667 0.351138 0.204298 -0.183229
H11   H     H_    0.758963 0.840721 0.263882 0.128698
H12   H     H_    0.335792 0.825292 0.684984 0.140906
H13   H     H_    0.256872 0.341619 0.718295 0.102527
H14   H     H_    0.048395 0.345227 0.732557 -0.044518
H15   H     H_    0.055476 0.257918 0.824114 0.143933
H16   H     H_    0.257021 0.231536 0.804123 0.131636
H17   H     H_    0.541038 0.256409 0.638909 0.032777
H18   H     H_    0.511789 0.155186 0.761704 0.149122
H19   H     H_    0.545826 0.112985 0.668168 0.098517
H20   H     H_    0.011002 0.652665 0.274186 0.105182
H21   H     H_    0.364897 0.161494 0.691323 0.149185
H22   H     H_    0.681311 0.358427 0.107894 0.058146
H23   H     H_    0.275890 0.838159 0.594957 0.045840
H24   H     H_    0.577396 0.362327 0.985935 0.126460
H25   H     H_    0.841038 0.477379 0.655760 0.073925
H26   H     H_    0.614467 0.398225 0.867665 0.113341
H27   H     H_    0.896757 0.387762 0.199460 0.075308
H28   H     H_    0.593319 0.659971 0.026387 0.177839
H29   H     H_    0.376211 0.498846 0.339752 0.057416
H30   H     H_    0.507851 0.122260 0.457172 0.116735
H31   H     H_    0.262239 0.910316 0.429368 0.098384
H32   H     H_    0.698317 0.862201 0.539262 0.122729
H33   H     H_    0.952279 0.083387 0.566778 0.103734
H34   H     H_    0.128044 0.839336 0.662816 0.123185
H35   H     H_    0.338604 0.665701 0.468670 0.079616
H36   H     H_    0.851111 0.325489 0.528402 0.067986
H37   H     H_    0.040572 0.682952 0.149745 0.101649
H38   H     H_    0.875570 0.730256 0.193681 0.160365
H39   H     H_    0.319101 0.689529 0.603092 -0.043483
H40   H     H_    0.113324 0.704156 0.577167 0.067419
H41   H     H_    0.591160 0.571517 0.682608 0.042995
H42   H     H_    0.232427 0.270423 0.179833 -0.030780
H43   H     H_    0.742966 0.272376 0.218366 -0.035173
H44   H     H_    0.044021 0.870988 0.218487 0.047482
H45   H     H_    0.870911 0.307175 0.393527 0.003061
H46   H     H_    0.266661 0.412900 0.848510 0.026400
H47   H     H_    0.825570 0.291262 0.679264 -0.146043
H48   H     H_    0.408637 0.750741 0.880831 0.064165
H49   H     H_    0.319937 0.724801 0.221948 0.043708
H50   H     H_    0.076535 0.295450 0.422288 0.060120
H51   H     H_    0.867767 0.172427 0.309879 0.146769
H52   H     H_    0.919619 0.158800 0.400488 0.045109
H53   H     H_    0.074295 0.161259 0.336337 0.170615
N1    N     N_2   0.538744 0.982557 0.484983 -0.229975
N2    N     N_2   0.676636 0.005164 0.511539 -0.227926
O1    O     O_2   0.884010 0.444810 0.325060 -0.488716
O2    O     O_2   0.257460 0.213905 0.554779 -0.493959
O3    O     O_3   0.124712 0.232257 0.680666 -0.581878
O4    O     O_3   0.132090 0.451130 0.414310 -0.491472
O5    O     O_3   0.558660 0.599640 0.536520 -0.486017
O6    O     O_2   0.381010 0.300300 0.465220 -0.452495
O7    O     O_3   0.546454 0.261862 0.347666 -0.628904
O8    O     O_2   0.444738 0.465740 0.759013 -0.475905
O9    O     O_3   0.522634 0.311980 0.746919 -0.652484
O10   O     O_3   0.640770 0.594650 0.368950 -0.504967
O11   O     O_2   0.777163 0.544358 0.244720 -0.461473
O12   O     O_3   0.630188 0.727810 0.649780 -0.679144
O13   O     O_3   0.039509 0.313419 0.317053 -0.641330
O14   O     O_3   0.638022 0.684428 0.253985 -0.550768
O15   O     O_2   0.808690 0.699720 0.534830 -0.406628
O16   O     O_3   0.053760 0.638480 0.405010 -0.466560
O17   O     O_2   0.955626 0.788677 0.459659 -0.508492
O18   O     O_2   0.624775 0.625347 0.785736 -0.582180
O19   O     O_2   0.292821 0.182625 0.234838 -0.533568
O20   O     O_2   0.601534 0.180146 0.163142 -0.531755
O21   O     O_2   0.150561 0.821626 0.128999 -0.547171
O22   O     O_2   0.259020 0.343268 0.925098 -0.577108
O23   O     O_3   0.040549 0.775806 0.324946 -0.635308
O24   O     O_2   0.817518 0.195093 0.731479 -0.576052
O25   O     O_2   0.622405 0.739428 0.924769 -0.569162
O26   O     O_2   0.313939 0.668927 0.307590 -0.661351
O27   O     O_2   0.305690 0.555220 0.674980 -0.434126
O28   O     O_3   0.057610 0.548940 0.585700 -0.468906
O29   O     O_3   0.548930 0.405410 0.631060 -0.494655
O30   O     O_3   0.155606 0.686837 0.682353 -0.528484
O31   O     O_3   0.631040 0.400420 0.463490 -0.481144
O32   O     O_3   0.135930 0.361590 0.595000 -0.510369
P1    P     P_3+3 0.056550 0.421630 0.336220 0.971566
P2    P     P_3+3 0.635450 0.689180 0.556380 1.048464
P3    P     P_3+3 0.081808 0.746540 0.409588 0.978519
P4    P     P_3+3 0.133150 0.578440 0.663790 1.151799
P5    P     P_3+3 0.112216 0.254288 0.592711 0.963637
P6    P     P_3+3 0.624747 0.584149 0.275360 1.073113
P7    P     P_3+3 0.559052 0.296366 0.441087 0.967840
P8    P     P_3+3 0.574802 0.409917 0.724409 0.909322

loop_
_geom_bond_atom_site_label_1
_geom_bond_atom_site_label_2
_ccdc_geom_bond_type
C56   C60   S    
C37   H35   S    
C53   C54   S    
Ba2   O29   S    
C54   H5    S    
C23   H9    S    
C58   H43   S    
C16   H38   S    
C40   H23   S    
C52   H52   S    
C34   C57   S    
C56   H16   S    
Ba2   P4    S    
O16   P3    S    
C22   F2    S    
C5    C6    A    
C51   C52   S    
C47   N2    S    
C44   C47   A    
C24   C25   A    
C62   H48   S    
C45   O3    S    
C45   H14   S    
C33   C35   A    
C22   C24   A    
C36   P1    S    
C64   H17   S    
C55   H41   S    
C19   C31   A    
O29   P8    S    
C13   C14   A    
C20   C36   A    
C65   H18   S    
O3    P5    S    
Ba1   Ba2   S    
C12   H6    S    
C7    C11   A    
C60   H46   S    
C43   P3    S    
Ba1   O16   S    
C15   C17   A    
C4    O23   S    
C9    C13   A    
C63   H49   S    
C4    C63   S    
C46   P7    S    
C14   C15   A    
C59   H44   S    
Ba2   O6    S    
O8    P8    D    
C13   P8    S    
C49   P5    S    
C29   H28   S    
Ba1   O10   S    
C23   O7    S    
C51   H45   S    
Ba2   O32   S    
C37   C43   A    
C46   C48   A    
C64   C65   S    
C52   H51   S    
C27   C62   S    
O13   P1    S    
Ba2   O28   S    
C54   H4    S    
C51   O13   S    
C19   C20   A    
C39   C41   A    
C41   N1    S    
O5    P2    S    
C58   O20   D    
C56   H15   S    
C18   C66   A    
C31   C32   A    
C4    C16   S    
C44   H30   S    
C44   C46   A    
C14   H25   S    
C54   H3    S    
C62   O25   D    
C49   C50   A    
C26   C30   A    
O6    P7    D    
Ba1   O4    S    
C15   P4    S    
O31   P7    S    
C37   C38   A    
C3    C5    A    
C61   H47   S    
C42   H31   S    
C6    C7    A    
C18   C26   A    
C48   C49   A    
C65   H19   S    
C39   H32   S    
O4    P1    S    
C30   C32   A    
C8    H26   S    
C41   C42   A    
C61   O24   D    
C35   C36   A    
O7    P7    S    
O15   P2    D    
C29   C30   A    
Ba1   P1    S    
C34   H10   S    
C57   H42   S    
C47   C50   A    
C1    H11   S    
Ba2   O5    S    
C45   H13   S    
C10   C11   A    
C53   O12   S    
C53   F1    S    
C1    C12   S    
O32   P5    S    
C57   O19   D    
C38   C39   A    
C28   H39   S    
Ba2   O27   S    
C53   C55   S    
C48   H36   S    
O23   P3    S    
O1    P1    D    
Ba2   O4    S    
C42   C43   A    
C2    C66   A    
O10   P6    S    
C2    C21   A    
C52   H53   S    
C50   H33   S    
C55   O18   D    
C23   H8    S    
C12   H1    S    
C38   P2    S    
Ba1   P2    S    
C28   C40   S    
C40   H12   S    
Ba1   O1    S    
C12   O14   S    
C2    C3    A    
Ba1   O5    S    
O28   P4    S    
O11   P6    D    
C3    H22   S    
C9    C10   A    
C16   C59   S    
O14   P6    S    
C5    H24   S    
O27   P4    D    
C33   P6    S    
C28   H40   S    
C63   O26   D    
Ba1   O31   S    
C17   C22   A    
C59   O21   D    
C7    C66   A    
C27   C29   A    
C51   H50   S    
C45   C56   S    
N1    N2    D    
Ba2   O31   S    
C10   C17   A    
C28   O30   S    
C65   H21   S    
C31   C33   A    
O9    P8    S    
O2    P5    D    
Ba1   O28   S    
C1    H2    S    
C40   H34   S    
C16   H37   S    
C61   C64   S    
Ba1   O15   S    
C8    C9    A    
C23   C34   S    
O30   P4    S    
C64   O9    S    
O12   P2    S    
C21   H27   S    
C18   C19   A    
C24   C27   A    
C6    C8    A    
C25   C26   A    
C34   C58   S    
C20   C21   A    
C11   C25   A    
C60   O22   D    
C1    H7    S    
C32   F3    S    
O17   P3    D    
C35   H29   S    
C4    H20   S    
