data_mof_unit_66289.cif
_audit_creation_date              2013-03-05T16:02:11-0500
_audit_creation_method            fapswitch 2.2
_symmetry_space_group_name_H-M    P1
_symmetry_Int_Tables_number       1
_space_group_crystal_system       monoclinic
_cell_length_a                    15.955464
_cell_length_b                    11.731107
_cell_length_c                    10.469948
_cell_angle_alpha                 90.0
_cell_angle_beta                  89.949496
_cell_angle_gamma                 90.0
_cell_volume                      1959.7144298

loop_
_atom_site_label
_atom_site_type_symbol
_atom_site_description
_atom_site_fract_x
_atom_site_fract_y
_atom_site_fract_z
_atom_type_partial_charge
O1    O     O_R   0.500000 0.337200 0.605810 -0.568053
O2    O     O_R   0.500000 0.337200 0.394190 -0.568053
C1    C     C_R   0.500000 0.283315 0.500000 0.816642
O3    O     O_R   0.379430 0.500010 0.605860 -0.556352
O4    O     O_R   0.379430 0.500010 0.394140 -0.553533
O5    O     O_R   0.620570 0.500010 0.605860 -0.553532
O6    O     O_R   0.620570 0.500010 0.394140 -0.556354
C2    C     C_R   0.339865 0.500122 0.500066 0.813312
C3    C     C_R   0.660135 0.500122 0.499934 0.813312
Cu1   Cu    Cu3+1 0.500000 0.500000 0.625300 1.069803
Cu2   Cu    Cu3+1 0.500000 0.500000 0.374700 1.069802
C4    C     C_1   0.500000 0.059729 0.500000 0.054318
O7    O     O_R   0.500000 0.662810 0.605810 -0.561646
O8    O     O_R   0.500000 0.662810 0.394190 -0.561646
C5    C     C_1   0.500000 0.161940 0.500000 -0.125183
N1    N     N_1   0.500000 0.499990 0.186410 -0.125121
N2    N     N_1   0.500000 0.499990 0.813590 -0.125121
C6    C     C_1   0.500000 0.499991 0.072066 0.168857
C7    C     C_1   0.500000 0.499991 0.927934 0.168858
C8    C     C_R   0.500000 0.716693 0.500000 0.841335
C9    C     C_3   0.048433 0.449361 0.619914 0.012088
C10   C     C_3   0.049989 0.453194 0.380204 0.011127
C11   C     C_3   0.950011 0.453185 0.619792 0.011128
C12   C     C_3   0.951567 0.449369 0.380081 0.012088
H1    H     H_    0.930942 0.362426 0.606052 0.131090
H2    H     H_    0.934768 0.358589 0.398935 0.114558
H3    H     H_    0.065232 0.358581 0.601052 0.114559
H4    H     H_    0.069058 0.362434 0.393936 0.131091
C13   C     C_1   0.500000 0.940272 0.500000 0.062450
C14   C     C_1   0.500000 0.838063 0.500000 -0.105629
C15   C     C_1   0.749171 0.504854 0.499672 -0.022183
C16   C     C_1   0.250829 0.504854 0.500328 -0.022184
C17   C     C_3   0.083755 0.519404 0.501110 -0.239821
C18   C     C_3   0.916245 0.519404 0.498891 -0.239821
C19   C     C_3   0.948535 0.649495 0.496180 0.350389
C20   C     C_3   0.051465 0.649495 0.503833 0.350390
C21   C     C_1   0.824212 0.510927 0.499154 0.208959
C22   C     C_1   0.175788 0.510927 0.500846 0.208958
N3    N     N_R   0.085456 0.703898 0.621553 0.172611
O9    O     O_R   0.160013 0.749209 0.618599 -0.255543
O10   O     O_R   0.048064 0.699778 0.731619 -0.188206
N4    N     N_R   0.086490 0.718902 0.397816 0.182755
O11   O     O_R   0.156121 0.690659 0.341288 -0.273136
O12   O     O_R   0.064586 0.825765 0.391028 -0.214690
N5    N     N_R   0.913510 0.718894 0.602203 0.182755
O13   O     O_R   0.935414 0.825757 0.609001 -0.214687
O14   O     O_R   0.843880 0.690647 0.658729 -0.273133
N6    N     N_R   0.914544 0.703907 0.378465 0.172611
O15   O     O_R   0.951936 0.699795 0.268398 -0.188209
O16   O     O_R   0.839987 0.749218 0.381422 -0.255546
N7    N     N_R   0.090949 0.485035 0.258764 0.220540
O17   O     O_R   0.155766 0.426932 0.220404 -0.288063
O18   O     O_R   0.061586 0.563468 0.183574 -0.137327
N8    N     N_R   0.086618 0.470125 0.746350 0.224378
O19   O     O_R   0.064064 0.404904 0.840956 -0.206428
O20   O     O_R   0.156457 0.526290 0.758579 -0.262333
N9    N     N_R   0.913382 0.470143 0.253647 0.224378
O21   O     O_R   0.935937 0.404929 0.159035 -0.206421
O22   O     O_R   0.843543 0.526308 0.241423 -0.262335
N10   N     N_R   0.909051 0.485018 0.741234 0.220539
O23   O     O_R   0.844232 0.426915 0.779587 -0.288069
O24   O     O_R   0.938415 0.563445 0.816433 -0.137324

loop_
_geom_bond_atom_site_label_1
_geom_bond_atom_site_label_2
_geom_bond_distance
_ccdc_geom_bond_type
O5    Cu1   1.934309 S    
O4    C2    1.275637 A    
C13   C14   1.199026 T    
C16   C22   1.199447 T    
C4    C13   1.401362 S    
C18   C21   1.471795 S    
Cu2   N1    1.971387 S    
C12   N9    1.477955 S    
C20   N4    1.485351 S    
C19   C20   1.644306 S    
C4    C5    1.199046 T    
O3    C2    1.275404 A    
C11   C18   1.580251 S    
O5    C3    1.275637 A    
N6    O16   1.303289 A    
O2    C1    1.275487 A    
C9    H3    1.115729 S    
N3    O10   1.298093 A    
C10   H4    1.116663 S    
N5    O13   1.303384 A    
O6    Cu2   1.934666 S    
N9    O21   1.302069 A    
C9    N8    1.477955 S    
N4    O12   1.303384 A    
O2    Cu2   1.920695 S    
N10   O24   1.298649 A    
N6    O15   1.298093 A    
N2    C7    1.197175 T    
C12   H2    1.115729 S    
O4    Cu2   1.934311 S    
C10   C12   1.571009 S    
C11   H1    1.116663 S    
C9    C11   1.571008 S    
C11   N10   1.477092 S    
C18   C19   1.610968 S    
Cu2   O8    1.920812 S    
N8    O20   1.300948 A    
N9    O22   1.300947 A    
C9    C17   1.593351 S    
N4    O11   1.301225 A    
C19   N6    1.490549 S    
Cu1   N2    1.971388 S    
O3    Cu1   1.934668 S    
N7    O17   1.301808 A    
C19   N5    1.485351 S    
O8    C8    1.275474 A    
C17   C20   1.610968 S    
C1    C5    1.423864 S    
N1    C6    1.197175 T    
C6    C7    1.509056 S    
Cu1   Cu2   2.623769 S    
N5    O14   1.301223 A    
N3    O9    1.303288 A    
O6    C3    1.275404 A    
C10   C17   1.580250 S    
C3    C15   1.421687 S    
N8    O19   1.302070 A    
C10   N7    1.477092 S    
C8    C14   1.423806 S    
O7    C8    1.275473 A    
N7    O18   1.298647 A    
C20   N3    1.490550 S    
C12   C18   1.593351 S    
O1    Cu1   1.920695 S    
C17   C22   1.471795 S    
C15   C21   1.199447 T    
N10   O23   1.301810 A    
O1    C1    1.275486 A    
Cu1   O7    1.920812 S    
C2    C16   1.421687 S    
