data_mof_unit_15689.cif
_audit_creation_date              2012-12-10T18:42:34-0500
_audit_creation_method            fapswitch 2.2
_symmetry_space_group_name_H-M    P1
_symmetry_Int_Tables_number       1
_space_group_crystal_system       triclinic
_cell_length_a                    8.647467
_cell_length_b                    10.600816
_cell_length_c                    9.934309
_cell_angle_alpha                 89.908992
_cell_angle_beta                  97.684034
_cell_angle_gamma                 91.882835
_cell_volume                      902.011829151

loop_
_atom_site_label
_atom_site_type_symbol
_atom_type_description
_atom_site_fract_x
_atom_site_fract_y
_atom_site_fract_z
_atom_type_partial_charge
C1    C     C_R   0.501862 0.260620 0.500174 0.906708
C2    C     C_R   0.382476 0.063956 0.555782 -0.267448
C3    C     C_R   0.493992 0.871760 0.498736 -0.110166
C4    C     C_R   0.501914 0.128103 0.499966 -0.103190
C5    C     C_R   0.582368 0.591808 0.079820 0.069638
C6    C     C_R   0.422757 0.406124 0.918931 0.073288
C7    C     C_R   0.577083 0.593828 0.935425 0.221751
C8    C     C_R   0.419258 0.407776 0.062909 0.185724
C9    C     C_3   0.736673 0.138992 0.249658 -0.751603
C10   C     C_3   0.125837 0.925462 0.656667 -0.829174
C11   C     C_3   0.593653 0.815367 0.874009 -0.710037
C12   C     C_R   0.498272 0.739367 0.499739 0.856004
C13   C     C_3   0.168376 0.331141 0.120803 -0.745179
C14   C     C_R   0.202417 0.500096 0.465526 0.909092
C15   C     C_R   0.797669 0.499330 0.534557 0.925097
C16   C     C_2   0.040935 0.519216 0.450421 -0.106631
C17   C     C_2   0.959424 0.480272 0.549973 -0.085545
C18   C     C_R   0.618384 0.066146 0.443611 0.203951
C19   C     C_R   0.374995 0.933033 0.554196 0.218525
C20   C     C_R   0.614183 0.936363 0.444527 -0.279513
H1    H     H_    0.705604 0.885804 0.405000 0.154721
H2    H     H_    0.624670 0.178548 0.203767 0.254725
H3    H     H_    0.216102 0.779091 0.553539 0.218286
H4    H     H_    0.059422 0.980444 0.574383 0.230652
H5    H     H_    0.172993 0.988143 0.742994 0.244902
H6    H     H_    0.044705 0.854611 0.694655 0.242109
H7    H     H_    0.783031 0.695416 0.125937 0.147798
H8    H     H_    0.696158 0.662234 0.257189 0.268147
H9    H     H_    0.228546 0.300912 0.850490 0.181408
H10   H     H_    0.396437 0.221022 0.869559 0.157646
H11   H     H_    0.777199 0.690885 0.894851 0.196057
H12   H     H_    0.294790 0.117499 0.596557 0.167270
H13   H     H_    0.622100 0.858885 0.976133 0.223724
H14   H     H_    0.464867 0.810413 0.845584 0.264414
H15   H     H_    0.645079 0.877125 0.800074 0.228871
H16   H     H_    0.359076 0.221134 0.100912 0.196628
H17   H     H_    0.131968 0.303680 0.220012 0.245314
H18   H     H_    0.100782 0.270584 0.041161 0.194672
H19   H     H_    0.139031 0.431257 0.099943 0.232665
H20   H     H_    0.987238 0.545382 0.247397 0.195188
H21   H     H_    0.037265 0.679459 0.337692 0.167744
H22   H     H_    0.011452 0.454711 0.753397 0.194824
H23   H     H_    0.965009 0.320214 0.662953 0.165455
H24   H     H_    0.852330 0.105571 0.441153 0.208247
H25   H     H_    0.747609 0.043022 0.207719 0.224467
H26   H     H_    0.833453 0.200925 0.221828 0.229222
N1    N     N_R   0.499960 0.499970 0.857200 -0.112441
N2    N     N_2   0.334106 0.312122 0.124969 -0.256533
N3    N     N_R   0.500040 0.500030 0.142800 -0.120163
N4    N     N_3   0.974665 0.593284 0.336928 -0.475113
N5    N     N_3   0.026277 0.407038 0.664162 -0.442464
N6    N     N_2   0.744908 0.134205 0.395938 -0.308192
N7    N     N_2   0.251369 0.861541 0.605241 -0.291634
N8    N     N_3   0.672441 0.689461 0.157218 -0.445086
N9    N     N_3   0.346031 0.305912 0.836869 -0.387022
N10   N     N_2   0.657485 0.690826 0.870858 -0.255796
O1    O     O_R   0.499990 0.316750 0.614620 -0.608925
O2    O     O_R   0.500010 0.683250 0.385380 -0.630063
O3    O     O_R   0.499990 0.316780 0.385290 -0.582497
O4    O     O_R   0.500010 0.683220 0.614710 -0.584259
O5    O     O_R   0.271750 0.499990 0.587840 -0.580591
O6    O     O_R   0.728250 0.500010 0.412160 -0.612820
O7    O     O_R   0.271750 0.500010 0.358510 -0.615761
O8    O     O_R   0.728250 0.499990 0.641490 -0.632392
Zn1   Zn    Zn3+2 0.500000 0.499980 0.653120 0.970569
Zn2   Zn    Zn3+2 0.500000 0.500020 0.346880 0.954735

loop_
_geom_bond_atom_site_label_1
_geom_bond_atom_site_label_2
_ccdc_geom_bond_type
H24   N6    S    
C13   N2    S    
C2    C4    A    
C15   O8    A    
C8    N2    S    
C9    H25   S    
C1    O1    A    
H11   N10   S    
C5    C7    A    
H10   N9    S    
C6    N9    S    
C13   H17   S    
H22   N5    S    
C1    C4    S    
C12   O2    A    
O8    Zn1   S    
C19   N7    S    
C11   H15   S    
O7    Zn2   S    
C4    C18   A    
C3    C20   A    
C3    C19   A    
C10   H6    S    
C13   H18   S    
C9    N6    S    
H7    N8    S    
C7    N10   S    
H23   N5    S    
H20   N4    S    
C14   O7    A    
C10   H5    S    
H3    N7    S    
C15   O6    A    
C16   N4    S    
O4    Zn1   S    
H16   N2    S    
C18   C20   A    
C1    O3    A    
O3    Zn2   S    
C14   C16   S    
C9    H2    S    
C5    N3    A    
C13   H19   S    
N3    Zn2   S    
O6    Zn2   S    
C18   N6    S    
C12   O4    A    
O5    Zn1   S    
C5    N8    S    
C11   H13   S    
C20   H1    S    
C9    H26   S    
C17   N5    S    
C2    H12   S    
C6    N1    A    
C15   C17   S    
H21   N4    S    
H8    N8    S    
C10   N7    S    
C6    C8    A    
C3    C12   S    
H9    N9    S    
C10   H4    S    
C2    C19   A    
C14   O5    A    
C8    N3    A    
N1    Zn1   S    
C11   H14   S    
C11   N10   S    
C7    N1    A    
O1    Zn1   S    
C16   C17   D    
O2    Zn2   S    
