data_mof_unit_64158.cif
_audit_creation_date              2013-03-05T16:08:28-0500
_audit_creation_method            fapswitch 2.2
_symmetry_space_group_name_H-M    P1
_symmetry_Int_Tables_number       1
_space_group_crystal_system       triclinic
_cell_length_a                    23.630752
_cell_length_b                    14.431958
_cell_length_c                    13.128835
_cell_angle_alpha                 90.00117
_cell_angle_beta                  89.996629
_cell_angle_gamma                 89.999879
_cell_volume                      4477.4318895

loop_
_atom_site_label
_atom_site_type_symbol
_atom_site_description
_atom_site_fract_x
_atom_site_fract_y
_atom_site_fract_z
_atom_type_partial_charge
O1    O     O_R   0.500000 0.376050 0.578280 -0.562500
O2    O     O_R   0.500000 0.623950 0.421720 -0.562529
O3    O     O_R   0.500000 0.623950 0.578280 -0.564322
O4    O     O_R   0.500000 0.376050 0.421720 -0.564383
C1    C     C_R   0.500000 0.328679 0.499999 0.831062
C2    C     C_R   0.500000 0.671321 0.500001 0.831179
O5    O     O_R   0.417880 0.500000 0.578280 -0.529404
O6    O     O_R   0.582120 0.500000 0.421720 -0.528856
O7    O     O_R   0.582120 0.500000 0.578280 -0.529263
O8    O     O_R   0.417880 0.500000 0.421720 -0.528998
C3    C     C_R   0.389362 0.500046 0.499945 0.998148
C4    C     C_R   0.610640 0.499981 0.499937 0.997905
Cu1   Cu    Cu3+1 0.500000 0.500000 0.592680 1.073586
Cu2   Cu    Cu3+1 0.500000 0.500000 0.407320 1.074022
C5    C     C_R   0.880454 0.580258 0.478133 0.731943
C6    C     C_R   0.119571 0.416804 0.506951 0.729764
C7    C     C_R   0.880529 0.417629 0.510139 0.694669
C8    C     C_R   0.119405 0.580365 0.481442 0.697817
N1    N     N_R   0.852514 0.499200 0.495973 -0.412793
N2    N     N_R   0.147478 0.498910 0.496027 -0.413071
C9    C     C_R   0.940056 0.413963 0.502043 -0.149754
C10   C     C_R   0.059915 0.581426 0.472146 -0.150289
C11   C     C_R   0.940154 0.582147 0.474296 -0.124923
C12   C     C_R   0.059851 0.413914 0.504306 -0.124934
C13   C     C_R   0.970065 0.497880 0.487622 -0.119201
C14   C     C_R   0.029919 0.497669 0.487656 -0.119969
C15   C     C_R   0.970279 0.329353 0.510089 0.327324
C16   C     C_R   0.029716 0.663981 0.450199 0.326963
C17   C     C_R   0.970162 0.665404 0.456107 0.437773
C18   C     C_R   0.029845 0.329717 0.516151 0.437492
O9    O     O_2   0.850101 0.658533 0.464882 -0.415610
O10   O     O_2   0.149967 0.338582 0.520233 -0.414422
O11   O     O_2   0.850533 0.341134 0.534124 -0.457638
O12   O     O_2   0.149291 0.659997 0.478934 -0.460079
C19   C     C_R   0.238191 0.504791 0.405947 0.555427
C20   C     C_R   0.761811 0.498054 0.405740 0.555241
C21   C     C_R   0.237273 0.494434 0.590241 0.574179
C22   C     C_R   0.762750 0.500977 0.590352 0.577005
C23   C     C_R   0.297173 0.505023 0.406535 0.471762
C24   C     C_R   0.702828 0.498279 0.406336 0.471401
C25   C     C_R   0.296346 0.494804 0.591464 0.466330
C26   C     C_R   0.703675 0.501166 0.591584 0.465079
C27   C     C_R   0.326946 0.500001 0.499435 -0.519929
C28   C     C_R   0.673061 0.499826 0.499404 -0.520215
C29   C     C_R   0.208142 0.499417 0.497573 -0.107866
C30   C     C_R   0.791859 0.499412 0.497522 -0.111200
C31   C     C_1   0.499999 0.227108 0.499997 -0.152659
C32   C     C_1   0.500000 0.772892 0.500002 -0.152506
C33   C     C_1   0.499999 0.142300 0.499998 0.036428
C34   C     C_1   0.499999 0.857700 0.500001 0.036529
C35   C     C_1   0.499999 0.042403 0.499999 0.050422
C36   C     C_1   0.499999 0.957597 0.500000 0.050457
N3    N     N_1   0.500000 0.500000 0.268070 -0.105635
N4    N     N_1   0.500000 0.500000 0.731930 -0.106359
C37   C     C_1   0.500000 0.500000 0.173591 0.253534
C38   C     C_1   0.500000 0.500000 0.826409 0.252304
C39   C     C_1   0.500000 0.500000 0.050684 -0.001389
C40   C     C_1   0.500000 0.500000 0.949316 -0.001229
O13   O     O_3   0.942925 0.245012 0.509173 -0.660358
H1    H     H_    0.917125 0.245345 0.449599 0.370904
O14   O     O_3   0.057072 0.743640 0.419681 -0.661205
H2    H     H_    0.083266 0.725922 0.363966 0.376827
O15   O     O_3   0.940326 0.746857 0.440831 -0.622240
H3    H     H_    0.966339 0.800517 0.438055 0.389100
O16   O     O_3   0.059690 0.248098 0.530256 -0.621756
H4    H     H_    0.033672 0.196366 0.546150 0.389964
F1    F     F_    0.210004 0.509355 0.316012 -0.557756
F2    F     F_    0.790001 0.496231 0.315687 -0.553844
F3    F     F_    0.208190 0.489529 0.679217 -0.545347
F4    F     F_    0.791855 0.502586 0.679441 -0.543622
F5    F     F_    0.324942 0.510341 0.316166 -0.564308
F6    F     F_    0.675059 0.496824 0.315798 -0.563843
F7    F     F_    0.323397 0.489762 0.682536 -0.563239
F8    F     F_    0.676641 0.502790 0.682830 -0.563095

loop_
_geom_bond_atom_site_label_1
_geom_bond_atom_site_label_2
_geom_bond_distance
_ccdc_geom_bond_type
O5    Cu1   1.949758 S    
C22   F4    1.357109 S    
C21   F3    1.357121 S    
C19   C23   1.393834 A    
O3    C2    1.234346 A    
C17   O15   1.385356 S    
N1    C30   1.433463 S    
C31   C33   1.223950 T    
O5    C3    1.229609 A    
C1    C31   1.465860 S    
C7    O11   1.349208 S    
O1    C1    1.234349 A    
C11   C17   1.415488 A    
C16   C17   1.409603 A    
C12   C14   1.417453 A    
C22   C26   1.396070 A    
O7    Cu1   1.949734 S    
C33   C35   1.441706 S    
C34   C36   1.441705 S    
C20   C30   1.398814 A    
N2    C29   1.433707 S    
O3    Cu1   1.798808 S    
C6    N2    1.363659 A    
C16   O14   1.378430 S    
C32   C34   1.223950 T    
C9    C15   1.418557 A    
O13   H1    0.991736 S    
C6    C12   1.412279 A    
C10   C16   1.418385 A    
Cu1   Cu2   2.433562 S    
C15   C18   1.409833 A    
O4    Cu2   1.798808 S    
C25   C27   1.410042 A    
O2    C2    1.234348 A    
C26   C28   1.410125 A    
N3    C37   1.240399 T    
N4    C38   1.240402 T    
C26   F8    1.357810 S    
C35   C36   1.223924 T    
C20   C24   1.393821 A    
O8    Cu2   1.949736 S    
C23   C27   1.409929 A    
C13   C14   1.414398 A    
C7    C9    1.411665 A    
C5    N1    1.363549 A    
C19   F1    1.357291 S    
O6    C4    1.228344 A    
C3    C27   1.474957 S    
C8    O12   1.349296 S    
C2    C32   1.465860 S    
C37   C39   1.613619 S    
O1    Cu1   1.798800 S    
C21   C29   1.399761 A    
C19   C29   1.399003 A    
Cu1   N4    1.828190 S    
C9    C13   1.416140 A    
O6    Cu2   1.949756 S    
C24   F6    1.357953 S    
C8    C10   1.411169 A    
O4    C1    1.234345 A    
C20   F2    1.357276 S    
C5    O9    1.349403 S    
C6    O10   1.349345 S    
C4    C28   1.475068 S    
C15   O13   1.378255 S    
C39   C40   1.330849 T    
C5    C11   1.411929 A    
C7    N1    1.363356 A    
C38   C40   1.613623 S    
C8    N2    1.363344 A    
C11   C13   1.417471 A    
C21   C25   1.396048 A    
O14   H2    0.991728 S    
O2    Cu2   1.798800 S    
O7    C4    1.229658 A    
C12   C18   1.415448 A    
C22   C30   1.399605 A    
C18   O16   1.385357 S    
O8    C3    1.228327 A    
C25   F7    1.357810 S    
O15   H3    0.989413 S    
C24   C28   1.410028 A    
Cu2   N3    1.828190 S    
O16   H4    0.989424 S    
C10   C14   1.415980 A    
C23   F5    1.357952 S    
