data_mof_unit_33526.cif
_audit_creation_date              2012-12-10T16:48:45-0500
_audit_creation_method            fapswitch 2.2
_symmetry_space_group_name_H-M    P1
_symmetry_Int_Tables_number       1
_space_group_crystal_system       triclinic
_cell_length_a                    17.386202
_cell_length_b                    8.682913
_cell_length_c                    7.443803
_cell_angle_alpha                 102.822548
_cell_angle_beta                  90.824728
_cell_angle_gamma                 93.125686
_cell_volume                      1093.67900895

loop_
_atom_site_label
_atom_site_type_symbol
_atom_type_description
_atom_site_fract_x
_atom_site_fract_y
_atom_site_fract_z
_atom_type_partial_charge
C1    C     C_R   0.497642 0.199756 0.453684 0.888128
C2    C     C_R   0.502358 0.800243 0.546316 0.888133
C3    C     C_2   0.496505 0.031950 0.427486 -0.363000
C4    C     C_2   0.503495 0.968050 0.572513 -0.363006
C5    C     C_R   0.351362 0.498637 0.524355 0.826200
C6    C     C_R   0.648638 0.501359 0.475645 0.826191
C7    C     C_R   0.267740 0.499157 0.535843 -0.119848
C8    C     C_R   0.732260 0.500825 0.464156 -0.119855
C9    C     C_R   0.220938 0.426324 0.380326 0.479544
C10   C     C_R   0.779065 0.573645 0.619674 0.479538
C11   C     C_R   0.141593 0.440560 0.387284 -0.231677
C12   C     C_R   0.858408 0.559400 0.612712 -0.231661
C13   C     C_R   0.108677 0.528753 0.545160 0.121541
C14   C     C_R   0.891321 0.471210 0.454831 0.121538
C15   C     C_R   0.155424 0.600502 0.698778 -0.176525
C16   C     C_R   0.844572 0.399467 0.301214 -0.176519
C17   C     C_R   0.234565 0.584716 0.694833 -0.296577
C18   C     C_R   0.765432 0.415263 0.305163 -0.296571
C19   C     C_2   0.025997 0.552696 0.550165 -0.202197
C20   C     C_2   0.974002 0.447264 0.449821 -0.202200
Cu1   Cu    Cu3+1 0.508700 0.517250 0.683000 0.966427
Cu2   Cu    Cu3+1 0.491300 0.482750 0.317000 0.966438
H1    H     H_    0.729901 0.356223 0.186519 0.171734
H2    H     H_    0.270095 0.643763 0.813477 0.171742
H3    H     H_    0.991782 0.339250 0.360743 0.147746
H4    H     H_    0.008217 0.660711 0.639242 0.147747
H5    H     H_    0.130655 0.669441 0.821425 0.141765
H6    H     H_    0.869339 0.330528 0.178564 0.141763
H7    H     H_    0.893425 0.614726 0.733170 0.133175
H8    H     H_    0.106577 0.385230 0.266827 0.133166
H9    H     H_    0.489913 0.960628 0.287612 0.180543
H10   H     H_    0.510087 0.039372 0.712388 0.180542
H11   H     H_    0.439291 0.378721 0.957681 0.226349
H12   H     H_    0.560709 0.621278 0.042319 0.226349
N1    N     N_2   0.478180 0.456750 0.041980 -0.220428
N2    N     N_2   0.521820 0.543250 0.958020 -0.220434
O1    O     O_R   0.505650 0.286040 0.618880 -0.591676
O2    O     O_R   0.494350 0.713960 0.381120 -0.591670
O3    O     O_R   0.490960 0.256910 0.309800 -0.579276
O4    O     O_R   0.509040 0.743090 0.690200 -0.579274
O5    O     O_R   0.394600 0.516230 0.672450 -0.608876
O6    O     O_R   0.605400 0.483770 0.327550 -0.608877
O7    O     O_R   0.379910 0.487100 0.363380 -0.544745
O8    O     O_R   0.620090 0.512900 0.636620 -0.544771
O9    O     O_3   0.252573 0.331769 0.227429 -0.576596
C21   C     C_3   0.244794 0.401041 0.073928 -0.269221
H13   H     H_    0.263793 0.529089 0.107543 0.156927
H14   H     H_    0.184693 0.383959 0.017386 0.154081
H15   H     H_    0.282235 0.341053 0.963722 0.186482
O10   O     O_3   0.747436 0.668204 0.772576 -0.576594
C22   C     C_3   0.755179 0.598880 0.926045 -0.269226
H16   H     H_    0.815289 0.615789 0.982533 0.154055
H17   H     H_    0.736101 0.470873 0.892410 0.156976
H18   H     H_    0.717783 0.658956 0.036300 0.186483

loop_
_geom_bond_atom_site_label_1
_geom_bond_atom_site_label_2
_ccdc_geom_bond_type
C16   H6    S    
C7    C17   A    
C2    C4    S    
C9    O9    S    
C2    O4    A    
C12   H7    S    
Cu1   O8    S    
C11   C13   A    
C2    O2    A    
C15   H5    S    
Cu2   O7    S    
C1    O1    A    
C22   H18   S    
C19   C20   D    
O10   C22   S    
C5    O7    A    
Cu1   N2    S    
C6    O8    A    
Cu1   Cu2   S    
C3    H9    S    
Cu2   N1    S    
C9    C11   A    
C21   H15   S    
C4    H10   S    
Cu1   O4    S    
C10   C12   A    
Cu1   O5    S    
Cu2   O3    S    
C8    C10   A    
H11   N1    S    
C12   C14   A    
H12   N2    S    
C13   C15   A    
C14   C16   A    
O9    C21   S    
C17   H2    S    
C20   H3    S    
C1    O3    A    
C18   H1    S    
Cu2   O2    S    
C21   H14   S    
C14   C20   S    
Cu1   O1    S    
C7    C9    A    
C6    O6    A    
Cu2   O6    S    
C5    C7    S    
C19   H4    S    
C5    O5    A    
C21   H13   S    
C13   C19   S    
C6    C8    S    
C22   H17   S    
C15   C17   A    
C16   C18   A    
C8    C18   A    
C3    C4    D    
C22   H16   S    
C11   H8    S    
C1    C3    S    
N1    N2    D    
C10   O10   S    
