data_mof_unit_9178.cif
_audit_creation_date              2012-12-10T20:21:46-0500
_audit_creation_method            fapswitch 2.2
_symmetry_space_group_name_H-M    P1
_symmetry_Int_Tables_number       1
_space_group_crystal_system       triclinic
_cell_length_a                    19.334003
_cell_length_b                    18.466188
_cell_length_c                    8.900013
_cell_angle_alpha                 89.996697
_cell_angle_beta                  90.071044
_cell_angle_gamma                 89.989917
_cell_volume                      3177.52761841

loop_
_atom_site_label
_atom_site_type_symbol
_atom_type_description
_atom_site_fract_x
_atom_site_fract_y
_atom_site_fract_z
_atom_type_partial_charge
C1    C     C_R   0.365659 0.500009 0.499550 0.855888
C2    C     C_R   0.545904 0.197994 0.593399 -0.085359
C3    C     C_R   0.500028 0.841591 0.499963 -0.006154
C4    C     C_R   0.499970 0.158409 0.500045 -0.006154
C5    C     C_R   0.440243 0.961956 0.539680 -0.173940
C6    C     C_R   0.559755 0.038042 0.460327 -0.173929
C7    C     C_R   0.559773 0.961970 0.460322 -0.174077
C8    C     C_R   0.440225 0.038029 0.539688 -0.174070
C9    C     C_R   0.499980 0.077015 0.500008 0.127939
C10   C     C_R   0.500018 0.922984 0.500000 0.127916
C11   C     C_R   0.499968 0.500001 0.218449 0.946243
C12   C     C_R   0.634341 0.499995 0.500363 0.855865
C13   C     C_R   0.500032 0.499999 0.781551 0.946273
C14   C     C_1   0.499987 0.500002 0.065354 -0.202804
C15   C     C_1   0.500013 0.499998 0.934646 -0.202842
C16   C     C_R   0.745599 0.434144 0.502447 -0.193906
C17   C     C_R   0.254452 0.565918 0.496357 -0.193854
C18   C     C_R   0.254379 0.434236 0.498652 -0.194145
C19   C     C_R   0.745577 0.565832 0.500119 -0.194055
C20   C     C_R   0.817232 0.434192 0.502311 -0.182124
C21   C     C_R   0.182824 0.565932 0.495589 -0.182256
C22   C     C_R   0.182746 0.434341 0.497827 -0.181651
C23   C     C_R   0.545155 0.725763 0.589558 -0.033517
C24   C     C_R   0.817206 0.565788 0.500058 -0.181810
C25   C     C_R   0.853139 0.499990 0.500901 0.120735
C26   C     C_R   0.146863 0.500169 0.496600 0.120724
C27   C     C_R   0.709454 0.499988 0.501014 -0.026698
C28   C     C_R   0.290549 0.500050 0.498253 -0.026707
C29   C     C_R   0.964524 0.544978 0.599086 -0.189394
C30   C     C_R   0.035481 0.455274 0.398086 -0.189422
C31   C     C_R   0.036155 0.545091 0.597853 -0.188488
C32   C     C_R   0.963843 0.455161 0.399317 -0.188519
C33   C     C_R   0.071750 0.500239 0.497357 0.108532
C34   C     C_R   0.454841 0.274236 0.410452 -0.033499
C35   C     C_R   0.928252 0.500005 0.499837 0.108533
C36   C     C_R   0.592748 0.838031 0.701107 0.122661
C37   C     C_R   0.565475 0.876537 0.823381 -0.118827
C38   C     C_R   0.609727 0.907292 0.929958 -0.134791
C39   C     C_R   0.681351 0.900932 0.913750 -0.098095
C40   C     C_R   0.708842 0.862978 0.791770 -0.131632
C41   C     C_R   0.664721 0.831038 0.686263 -0.180564
C42   C     C_R   0.407242 0.161967 0.298921 0.122675
C43   C     C_R   0.335268 0.168924 0.313836 -0.180575
C44   C     C_R   0.291142 0.136982 0.208346 -0.131631
C45   C     C_R   0.454867 0.725793 0.410401 -0.033589
C46   C     C_R   0.318625 0.099060 0.086312 -0.098075
C47   C     C_R   0.390249 0.092735 0.070038 -0.134807
C48   C     C_R   0.434508 0.123493 0.176597 -0.118854
C49   C     C_R   0.407391 0.838099 0.298630 0.122600
C50   C     C_R   0.434767 0.876769 0.176685 -0.118683
C51   C     C_R   0.390615 0.907567 0.069940 -0.134868
C52   C     C_R   0.318980 0.901078 0.085637 -0.098428
C53   C     C_R   0.291383 0.862958 0.207279 -0.131390
C54   C     C_R   0.335407 0.830982 0.312957 -0.180425
C55   C     C_R   0.592607 0.161902 0.701377 0.122606
C56   C     C_R   0.545136 0.274207 0.589594 -0.033584
C57   C     C_R   0.664591 0.169008 0.687044 -0.180415
C58   C     C_R   0.708612 0.137036 0.792735 -0.131386
C59   C     C_R   0.681011 0.098932 0.914394 -0.098433
C60   C     C_R   0.609375 0.092454 0.930095 -0.134896
C61   C     C_R   0.565227 0.123248 0.823338 -0.118696
C62   C     C_R   0.545960 0.801974 0.593303 -0.085372
C63   C     C_R   0.454035 0.198026 0.406713 -0.085384
C64   C     C_R   0.454097 0.802006 0.406600 -0.085342
H1    H     H_    0.718685 0.382693 0.503807 0.151494
H2    H     H_    0.062586 0.421018 0.318784 0.132084
H3    H     H_    0.063791 0.579367 0.676379 0.132453
H4    H     H_    0.936199 0.420859 0.320858 0.132428
H5    H     H_    0.579881 0.695121 0.660875 0.136937
H6    H     H_    0.420112 0.304878 0.339141 0.136930
H7    H     H_    0.420147 0.695172 0.339064 0.136815
H8    H     H_    0.579857 0.304829 0.660926 0.136829
H9    H     H_    0.393644 0.933372 0.571749 0.133040
H10   H     H_    0.606353 0.066626 0.428256 0.133032
H11   H     H_    0.606383 0.933397 0.428233 0.133058
H12   H     H_    0.281400 0.617347 0.495318 0.151523
H13   H     H_    0.393615 0.066601 0.571780 0.133055
H14   H     H_    0.510081 0.881462 0.837367 0.118079
H15   H     H_    0.588519 0.935624 0.025678 0.110186
H16   H     H_    0.715511 0.925068 0.996125 0.109695
H17   H     H_    0.764314 0.857807 0.779640 0.121238
H18   H     H_    0.686513 0.801039 0.593061 0.120204
H19   H     H_    0.313482 0.198898 0.407080 0.120212
H20   H     H_    0.235669 0.142126 0.220527 0.121228
H21   H     H_    0.284460 0.074924 0.003949 0.109689
H22   H     H_    0.411451 0.064427 0.974279 0.110178
H23   H     H_    0.281276 0.382768 0.500133 0.151693
H24   H     H_    0.489902 0.118596 0.162562 0.118076
H25   H     H_    0.490172 0.881792 0.163080 0.117967
H26   H     H_    0.411915 0.936029 0.974483 0.110279
H27   H     H_    0.284896 0.925244 0.003130 0.109664
H28   H     H_    0.235902 0.857689 0.219013 0.121594
H29   H     H_    0.313534 0.800857 0.405893 0.120145
H30   H     H_    0.686467 0.199122 0.594097 0.120150
H31   H     H_    0.764092 0.142299 0.781001 0.121596
H32   H     H_    0.715092 0.074770 0.996913 0.109665
H33   H     H_    0.588073 0.064005 0.025566 0.110276
H34   H     H_    0.718649 0.617287 0.498935 0.151739
H35   H     H_    0.509822 0.118235 0.836947 0.117958
H36   H     H_    0.844631 0.383012 0.504631 0.127536
H37   H     H_    0.155469 0.617133 0.492999 0.127544
H38   H     H_    0.155334 0.383183 0.500059 0.127614
H39   H     H_    0.844573 0.616973 0.497551 0.127621
H40   H     H_    0.937428 0.579205 0.678457 0.132107
N1    N     N_R   0.500000 0.689440 0.500000 -0.101657
N2    N     N_R   0.500000 0.310560 0.500000 -0.101657
O1    O     O_R   0.398180 0.560840 0.499960 -0.628176
O2    O     O_R   0.601820 0.439160 0.500040 -0.628157
O3    O     O_R   0.601820 0.560840 0.500040 -0.628199
O4    O     O_R   0.398180 0.439160 0.499960 -0.628174
O5    O     O_R   0.500000 0.560800 0.285330 -0.616128
O6    O     O_R   0.500000 0.439200 0.714670 -0.616111
O7    O     O_R   0.500000 0.560800 0.714670 -0.616090
O8    O     O_R   0.500000 0.439200 0.285330 -0.616107
Zn1   Zn    Zn3+2 0.500000 0.581210 0.500000 0.942881
Zn2   Zn    Zn3+2 0.500000 0.418790 0.500000 0.942893

loop_
_geom_bond_atom_site_label_1
_geom_bond_atom_site_label_2
_ccdc_geom_bond_type
C7    C10   A    
C21   C26   A    
C45   H7    S    
C43   H19   S    
C23   H5    S    
C58   H31   S    
C6    C9    A    
C3    C64   A    
C31   H3    S    
C4    C63   A    
C36   C37   A    
C13   O6    A    
C2    C55   S    
C51   H26   S    
C38   C39   A    
C11   C14   S    
C38   H15   S    
C49   C54   A    
C23   N1    A    
C11   O8    A    
C54   H29   S    
C50   H25   S    
C23   C62   A    
C44   C46   A    
C8    C9    A    
C56   H8    S    
C17   H12   S    
C48   H24   S    
C19   C27   A    
C42   C43   A    
C34   H6    S    
C32   H4    S    
C46   H21   S    
C21   H37   S    
C16   C27   A    
C59   C60   A    
C49   C64   S    
C36   C41   A    
C61   H35   S    
C36   C62   S    
C12   O3    A    
C19   H34   S    
C45   N1    A    
C6    H10   S    
C12   C27   S    
C11   O5    A    
C51   C52   A    
C34   N2    A    
C32   C35   A    
C18   C28   A    
C24   C25   A    
C60   H33   S    
C39   C40   A    
C12   O2    A    
C7    H11   S    
C58   C59   A    
C53   C54   A    
C17   C21   A    
C29   H40   S    
N2    Zn2   S    
C60   C61   A    
C2    C4    A    
C43   C44   A    
C47   H22   S    
C37   C38   A    
C1    O4    A    
C1    C28   S    
C26   C33   S    
C47   C48   A    
C20   H36   S    
C16   C20   A    
C56   N2    A    
C53   H28   S    
C31   C33   A    
C50   C51   A    
C42   C48   A    
O1    Zn1   S    
C30   H2    S    
C1    O1    A    
C40   C41   A    
C25   C35   S    
C57   H30   S    
C55   C57   A    
C22   C26   A    
C8    H13   S    
C59   H32   S    
O4    Zn2   S    
O6    Zn2   S    
C52   C53   A    
C3    C62   A    
C46   C47   A    
C30   C33   A    
C18   C22   A    
C17   C28   A    
C40   H17   S    
N1    Zn1   S    
C44   H20   S    
C5    C8    A    
O8    Zn2   S    
C6    C7    A    
C37   H14   S    
C29   C35   A    
C45   C64   A    
C18   H23   S    
C22   H38   S    
C24   H39   S    
C39   H16   S    
O2    Zn2   S    
C13   C15   S    
C19   C24   A    
C5    C10   A    
C29   C31   A    
C3    C10   S    
C2    C56   A    
C30   C32   A    
C57   C58   A    
C41   H18   S    
C55   C61   A    
C34   C63   A    
C5    H9    S    
O3    Zn1   S    
C49   C50   A    
C20   C25   A    
C14   C15   T    
C52   H27   S    
O5    Zn1   S    
C16   H1    S    
C4    C9    S    
C42   C63   S    
C13   O7    A    
O7    Zn1   S    
