data_mof_unit_25312.cif
_audit_creation_date              2012-12-11T17:05:27-0500
_audit_creation_method            fapswitch 2.2
_symmetry_space_group_name_H-M    P1
_symmetry_Int_Tables_number       1
_space_group_crystal_system       triclinic
_cell_length_a                    6.993088
_cell_length_b                    14.508979
_cell_length_c                    16.022615
_cell_angle_alpha                 90.229155
_cell_angle_beta                  90.056129
_cell_angle_gamma                 89.905581
_cell_volume                      1625.67966757

loop_
_atom_site_label
_atom_site_type_symbol
_atom_type_description
_atom_site_fract_x
_atom_site_fract_y
_atom_site_fract_z
_atom_type_partial_charge
O1    O     O_R   0.494380 0.415640 0.412830 -0.535271
O2    O     O_R   0.823960 0.405540 0.586560 -0.543247
O3    O     O_R   0.994270 0.584360 0.587170 -0.541373
C1    C     C_R   0.655382 0.383595 0.615136 0.695149
O4    O     O_R   0.824090 0.404620 0.413450 -0.542976
O5    O     O_R   0.994400 0.583430 0.412820 -0.537679
C2    C     C_R   0.655305 0.383516 0.383841 0.734414
O6    O     O_R   0.494250 0.416570 0.587180 -0.537708
O7    O     O_3   0.660800 0.558670 0.500000 -0.372339
V1    V     V_3+5 0.935650 0.489120 0.500000 1.382358
O8    O     O_R   0.324110 0.594460 0.413440 -0.540225
C3    C     C_R   0.154994 0.616466 0.384802 0.684854
O9    O     O_R   0.323980 0.595380 0.586550 -0.544853
C4    C     C_R   0.154813 0.617527 0.615365 0.683629
V2    V     V_3+5 0.435660 0.510880 0.500000 1.382668
O10   O     O_3   0.160640 0.441330 0.500000 -0.369102
C5    C     C_3   0.931330 0.705481 0.712583 -0.316114
H1    H     H_    0.842240 0.728603 0.659113 0.147548
H2    H     H_    0.868240 0.639475 0.734555 0.137742
C6    C     C_3   0.918889 0.777271 0.783698 -0.309865
H3    H     H_    0.844457 0.745937 0.838002 0.131436
H4    H     H_    0.830501 0.836720 0.762735 0.180720
C7    C     C_3   0.233613 0.783466 0.658962 -0.047346
C8    C     C_3   0.252826 0.654112 0.763137 -0.393545
C9    C     C_3   0.142712 0.689107 0.685036 0.058832
H5    H     H_    0.405841 0.642052 0.747352 0.145954
H6    H     H_    0.193026 0.586857 0.783629 0.150528
C10   C     C_3   0.121313 0.810752 0.810210 0.010877
C11   C     C_3   0.218778 0.854709 0.732664 0.517982
C12   C     C_3   0.239765 0.724780 0.836035 -0.453039
H7    H     H_    0.172624 0.691495 0.891145 0.162813
H8    H     H_    0.386660 0.745850 0.854800 0.148109
H9    H     H_    0.388559 0.771049 0.647075 0.088434
H10   H     H_    0.366023 0.876795 0.749965 0.027223
C13   C     C_R   0.274491 0.750770 0.188168 0.102005
C14   C     C_R   0.118471 0.810693 0.179528 -0.109513
C15   C     C_R   0.965899 0.800037 0.236040 -0.176388
H11   H     H_    0.842508 0.844654 0.231938 0.130791
C16   C     C_R   0.977284 0.736474 0.302246 -0.176469
H12   H     H_    0.861396 0.733335 0.346747 0.131749
C17   C     C_R   0.142106 0.682051 0.314220 -0.108542
C18   C     C_R   0.286033 0.688120 0.253791 0.103563
C19   C     C_3   0.494832 0.704207 0.264689 -0.413275
C20   C     C_3   0.482334 0.772206 0.192986 -0.400447
H13   H     H_    0.580882 0.641851 0.249587 0.173731
H14   H     H_    0.527975 0.737429 0.325622 0.171770
H15   H     H_    0.560817 0.749059 0.136341 0.172112
H16   H     H_    0.508802 0.844786 0.212225 0.166735
C21   C     C_R   0.482568 0.259351 0.693197 0.074754
C22   C     C_R   0.646667 0.312743 0.681269 -0.098847
C23   C     C_R   0.800611 0.298895 0.736338 -0.191956
H17   H     H_    0.925442 0.342085 0.731918 0.136886
C24   C     C_R   0.788209 0.234396 0.801588 -0.173299
H18   H     H_    0.903717 0.227693 0.845482 0.153087
C25   C     C_R   0.621388 0.183181 0.814751 -0.099766
C26   C     C_R   0.468215 0.198511 0.760458 0.119630
C27   C     C_3   0.271818 0.232539 0.781024 -0.045679
C28   C     C_3   0.283995 0.293688 0.704523 -0.403474
H19   H     H_    0.164438 0.176634 0.775165 0.171943
H20   H     H_    0.277495 0.369011 0.717826 0.171791
H21   H     H_    0.189743 0.270557 0.652617 0.164765
C29   C     C_R   0.479988 0.262871 0.300832 0.085860
C30   C     C_R   0.645350 0.314610 0.315216 -0.168649
C31   C     C_R   0.795852 0.303742 0.258334 -0.289569
H22   H     H_    0.915590 0.349489 0.262690 0.158721
C32   C     C_R   0.783563 0.240974 0.191153 0.592764
C33   C     C_R   0.622587 0.183700 0.181362 -0.200527
C34   C     C_R   0.471576 0.195504 0.237751 -0.077554
C35   C     C_3   0.273389 0.221912 0.214528 -0.273143
C36   C     C_3   0.285801 0.298872 0.278516 -0.018652
H23   H     H_    0.169880 0.167126 0.231738 0.163419
H24   H     H_    0.264329 0.245365 0.148602 0.231091
H25   H     H_    0.182695 0.291618 0.330807 0.140531
O11   O     O_R   0.771490 0.080820 0.910070 -0.531209
O12   O     O_R   0.441590 0.092730 0.083780 -0.546669
O13   O     O_R   0.271350 0.913900 0.084390 -0.540926
C37   C     C_R   0.610593 0.115730 0.111916 0.747884
O14   O     O_R   0.441780 0.091820 0.910670 -0.542014
O15   O     O_R   0.271540 0.912980 0.910040 -0.548998
C38   C     C_R   0.610471 0.114897 0.883026 0.712742
O16   O     O_R   0.771300 0.081740 0.084420 -0.507567
O17   O     O_3   0.604960 0.938700 0.997240 -0.385912
V3    V     V_3+5 0.330090 0.008230 0.997220 1.435301
O18   O     O_R   0.941820 0.901930 0.910640 -0.543758
C39   C     C_R   0.110607 0.879872 0.881770 0.720685
O19   O     O_R   0.941630 0.902840 0.083750 -0.548639
C40   C     C_R   0.110451 0.880962 0.112540 0.681173
V4    V     V_3+5 0.830090 0.986410 0.997190 1.449306
O20   O     O_3   0.105080 0.055990 0.997200 -0.352328
C41   C     C_3   0.262615 0.288638 0.862891 -0.751536
H26   H     H_    0.246443 0.241818 0.916941 0.232987
H27   H     H_    0.393395 0.331034 0.871807 0.216643
H28   H     H_    0.138686 0.336447 0.861935 0.199968
F1    F     F_    0.918772 0.243039 0.130758 -0.717719
C42   C     C_3   0.289345 0.395293 0.237981 -0.733613
H29   H     H_    0.420646 0.405509 0.200118 0.211077
H30   H     H_    0.165902 0.404654 0.195390 0.217243
H31   H     H_    0.282276 0.449549 0.286743 0.208526
C43   C     C_3   0.151891 0.822014 0.576690 -0.673998
H32   H     H_    0.997853 0.839150 0.582675 0.232396
H33   H     H_    0.230075 0.885682 0.559304 0.228243
H34   H     H_    0.170464 0.771854 0.524836 0.160645
F2    F     F_    0.119642 0.933625 0.709526 -0.708464

loop_
_geom_bond_atom_site_label_1
_geom_bond_atom_site_label_2
_ccdc_geom_bond_type
C7    C43   S    
C25   C26   A    
C17   C18   A    
C42   H29   S    
C33   C37   S    
C8    H6    S    
C1    O6    A    
C41   H26   S    
C42   H31   S    
C16   C17   A    
C24   H18   S    
C11   F2    S    
C15   H11   S    
C7    C11   S    
C10   C11   S    
C8    H5    S    
O5    C3    A    
C12   H7    S    
O19   V4    S    
C27   H19   S    
C28   H20   S    
V2    O10   S    
C5    C6    S    
C26   C27   S    
C29   C36   S    
C35   H23   S    
C13   C18   A    
O8    V2    S    
O14   V3    S    
C13   C14   A    
C34   C35   S    
C7    H9    S    
O1    V2    S    
O7    V1    S    
C20   H15   S    
C32   F1    S    
V4    O20   S    
C28   H21   S    
C32   C33   A    
O11   C38   A    
O9    C4    A    
C36   H25   S    
O13   V3    S    
C22   C23   A    
C24   C25   A    
C14   C40   S    
V3    O20   S    
C27   C41   S    
C23   H17   S    
C8    C9    S    
C16   H12   S    
O4    C2    A    
O19   C40   A    
C6    C10   S    
C11   H10   S    
C21   C28   S    
C33   C34   A    
C1    C22   S    
C23   C24   A    
C31   C32   A    
C35   H24   S    
O2    C1    A    
C19   C20   S    
C3    C17   S    
O12   C37   A    
C41   H27   S    
C43   H32   S    
C37   O16   A    
C29   C30   A    
C5    H1    S    
O18   C39   A    
C13   C20   S    
C19   H13   S    
O13   C40   A    
C2    C30   S    
O3    C4    A    
C43   H33   S    
C6    H4    S    
C21   C22   A    
O6    V2    S    
O9    V2    S    
C18   C19   S    
O2    V1    S    
O15   C39   A    
C41   H28   S    
C14   C15   A    
O1    C2    A    
O18   V4    S    
O5    V1    S    
O8    C3    A    
C42   H30   S    
C21   C26   A    
C29   C34   A    
C5    C9    S    
C31   H22   S    
C10   C12   S    
C36   C42   S    
O7    V2    S    
O4    V1    S    
C15   C16   A    
O3    V1    S    
V1    O10   S    
C12   H8    S    
C25   C38   S    
O12   V3    S    
C27   C28   S    
O17   V4    S    
C5    H2    S    
O14   C38   A    
C7    C9    S    
C4    C9    S    
C35   C36   S    
C19   H14   S    
C8    C12   S    
O16   V4    S    
C30   C31   A    
O15   V3    S    
C43   H34   S    
C6    H3    S    
O17   V3    S    
C10   C39   S    
O11   V4    S    
C20   H16   S    
