data_mof_unit_60109.cif
_audit_creation_date              2012-12-10T21:33:31-0500
_audit_creation_method            fapswitch 2.2
_symmetry_space_group_name_H-M    P1
_symmetry_Int_Tables_number       1
_space_group_crystal_system       triclinic
_cell_length_a                    14.156857
_cell_length_b                    16.178017
_cell_length_c                    16.951688
_cell_angle_alpha                 88.214786
_cell_angle_beta                  90.837865
_cell_angle_gamma                 92.79391
_cell_volume                      3875.61188293

loop_
_atom_site_label
_atom_site_type_symbol
_atom_type_description
_atom_site_fract_x
_atom_site_fract_y
_atom_site_fract_z
_atom_type_partial_charge
C1    C     C_R   0.498466 0.489129 0.652545 0.874099
C2    C     C_R   0.533204 0.149980 0.544667 -0.260014
C3    C     C_R   0.512551 0.891109 0.518718 0.312604
C4    C     C_R   0.487446 0.108890 0.481281 0.312609
C5    C     C_R   0.555844 0.842817 0.576739 -0.319486
C6    C     C_R   0.444155 0.157184 0.423260 -0.319491
C7    C     C_R   0.556051 0.756446 0.571431 0.097713
C8    C     C_R   0.443949 0.243554 0.428569 0.097718
C9    C     C_R   0.670943 0.500216 0.500087 0.912470
C10   C     C_R   0.329057 0.499783 0.499913 0.912466
C11   C     C_1   0.772390 0.500646 0.500117 -0.167567
C12   C     C_R   0.501533 0.510871 0.347455 0.874094
C13   C     C_1   0.227610 0.499354 0.499883 -0.167566
C14   C     C_1   0.857597 0.500588 0.500100 0.003763
C15   C     C_1   0.142403 0.499412 0.499900 0.003763
C16   C     C_1   0.957408 0.500204 0.500034 0.019082
C17   C     C_1   0.042592 0.499795 0.499966 0.019082
C18   C     C_R   0.493817 0.482199 0.737667 -0.032106
C19   C     C_R   0.506173 0.517802 0.262333 -0.032099
C20   C     C_R   0.467985 0.550338 0.779755 -0.219852
C21   C     C_R   0.532023 0.449670 0.220243 -0.219851
C22   C     C_R   0.466373 0.545405 0.861153 -0.153934
C23   C     C_R   0.512822 0.402838 0.859148 -0.185181
C24   C     C_R   0.533623 0.454603 0.138845 -0.153933
C25   C     C_R   0.491360 0.471955 0.901375 0.323210
C26   C     C_R   0.508606 0.528045 0.098625 0.323210
C27   C     C_2   0.607240 0.711685 0.634410 0.934577
C28   C     C_2   0.392764 0.288317 0.365589 0.934589
C29   C     C_R   0.487126 0.597156 0.140854 -0.185179
C30   C     C_R   0.514388 0.407783 0.777352 -0.210272
C31   C     C_R   0.485571 0.592211 0.222650 -0.210270
C32   C     C_R   0.466282 0.762813 0.452459 -0.034269
C33   C     C_R   0.533715 0.237186 0.547542 -0.034274
C34   C     C_R   0.466793 0.850019 0.455333 -0.260015
H1    H     H_    0.551009 0.392594 0.250156 0.192639
H2    H     H_    0.430101 0.731832 0.404239 0.139382
H3    H     H_    0.568589 0.115634 0.591244 0.160355
H4    H     H_    0.431405 0.884364 0.408757 0.160355
H5    H     H_    0.591689 0.873098 0.625748 0.173365
H6    H     H_    0.408311 0.126903 0.374249 0.173356
H7    H     H_    0.628966 0.693700 0.751429 0.344747
H8    H     H_    0.371054 0.306315 0.248569 0.344748
H9    H     H_    0.449020 0.607420 0.749842 0.192647
H10   H     H_    0.553435 0.400843 0.107586 0.158930
H11   H     H_    0.446576 0.599172 0.892409 0.158931
H12   H     H_    0.530863 0.345919 0.889863 0.145068
H13   H     H_    0.469063 0.654069 0.110140 0.145068
H14   H     H_    0.533516 0.354240 0.745390 0.157702
H15   H     H_    0.466428 0.645748 0.254613 0.157696
H16   H     H_    0.569895 0.268167 0.595763 0.139384
N1    N     N_2   0.497175 0.465777 0.984163 -0.202122
N2    N     N_2   0.502787 0.534223 0.015837 -0.202127
N3    N     N_R   0.510540 0.716920 0.509720 -0.120404
N4    N     N_R   0.489460 0.283080 0.490280 -0.120406
N5    N     N_2   0.517880 0.979295 0.527583 -0.173920
N6    N     N_2   0.482117 0.020705 0.472416 -0.173919
O1    O     O_R   0.496230 0.422540 0.612660 -0.631465
O2    O     O_R   0.588378 0.726560 0.713295 -0.832129
O3    O     O_2   0.330037 0.333781 0.381775 -0.607203
O4    O     O_R   0.411639 0.273454 0.286704 -0.832119
O5    O     O_R   0.503770 0.577460 0.387340 -0.631463
O6    O     O_R   0.503000 0.561840 0.618900 -0.610980
O7    O     O_R   0.497000 0.438160 0.381100 -0.610977
O8    O     O_R   0.622900 0.430330 0.496880 -0.615507
O9    O     O_R   0.377100 0.569670 0.503120 -0.615509
O10   O     O_R   0.629670 0.569640 0.503120 -0.549237
O11   O     O_R   0.370330 0.430360 0.496880 -0.549242
O12   O     O_2   0.669961 0.666217 0.618223 -0.607197
Zn1   Zn    Zn3+2 0.495480 0.406980 0.495830 0.975933
Zn2   Zn    Zn3+2 0.504520 0.593020 0.504170 0.975932

loop_
_geom_bond_atom_site_label_1
_geom_bond_atom_site_label_2
_ccdc_geom_bond_type
O5    Zn2   S    
O9    Zn2   S    
C2    C4    A    
N5    N6    D    
C25   N1    S    
C32   C34   A    
C18   C30   A    
C14   C16   S    
C26   N2    S    
C9    O8    A    
C5    C7    A    
C3    C34   A    
C20   C22   A    
C19   C31   A    
C1    O6    A    
C22   H11   S    
C13   C15   T    
C29   C31   A    
C23   H12   S    
C34   H4    S    
O8    Zn1   S    
C4    N6    S    
C12   O5    A    
C9    C11   S    
C2    H3    S    
C1    C18   S    
O10   Zn2   S    
N4    Zn1   S    
C28   O3    D    
C31   H15   S    
C21   H1    S    
N3    Zn2   S    
C32   H2    S    
C2    C33   A    
C30   H14   S    
C19   C21   A    
C24   H10   S    
C29   H13   S    
H7    O2    S    
C18   C20   A    
C28   O4    S    
C8    C28   S    
C11   C14   T    
C6    H6    S    
C10   O11   A    
C21   C24   A    
C7    N3    A    
H8    O4    S    
N1    N2    D    
C23   C30   A    
C3    C5    A    
C32   N3    A    
C20   H9    S    
C7    C27   S    
O6    Zn2   S    
C26   C29   A    
C4    C6    A    
C23   C25   A    
C10   O9    A    
C8    N4    A    
C33   N4    A    
C15   C17   S    
C5    H5    S    
C9    O10   A    
C27   O2    S    
C6    C8    A    
C27   O12   D    
C12   C19   S    
O1    Zn1   S    
C33   H16   S    
C12   O7    A    
C3    N5    S    
C22   C25   A    
O7    Zn1   S    
C24   C26   A    
C16   C17   T    
O11   Zn1   S    
C10   C13   S    
C1    O1    A    
