data_mof_unit_32995.cif
_audit_creation_date              2013-03-05T15:41:29-0500
_audit_creation_method            fapswitch 2.2
_symmetry_space_group_name_H-M    P1
_symmetry_Int_Tables_number       1
_space_group_crystal_system       triclinic
_cell_length_a                    11.799703
_cell_length_b                    18.087764
_cell_length_c                    10.212514
_cell_angle_alpha                 89.925931
_cell_angle_beta                  110.233045
_cell_angle_gamma                 90.047475
_cell_volume                      2045.15879377

loop_
_atom_site_label
_atom_site_type_symbol
_atom_site_description
_atom_site_fract_x
_atom_site_fract_y
_atom_site_fract_z
_atom_type_partial_charge
O1    O     O_R   0.267710 0.668200 0.902110 -0.518702
O2    O     O_R   0.732290 0.331800 0.097890 -0.523323
O3    O     O_R   0.732290 0.168200 0.097890 -0.514616
O4    O     O_R   0.267710 0.831800 0.902110 -0.523145
O5    O     O_R   0.099480 0.674460 0.038850 -0.490305
O6    O     O_R   0.900520 0.325540 0.961150 -0.504941
O7    O     O_R   0.900520 0.174460 0.961150 -0.490571
O8    O     O_R   0.099480 0.825540 0.038850 -0.506771
C1    C     C_R   0.120574 0.636708 0.155031 0.541840
C2    C     C_R   0.924863 0.354494 0.858603 0.553705
C3    C     C_R   0.877548 0.136685 0.844338 0.548457
C4    C     C_R   0.076219 0.854952 0.141369 0.551555
O9    O     O_R   0.116720 0.669210 0.267660 -0.510573
O10   O     O_R   0.883280 0.330790 0.732340 -0.514212
O11   O     O_R   0.883280 0.169210 0.732340 -0.513125
O12   O     O_R   0.116720 0.830790 0.267660 -0.513112
O13   O     O_R   0.366710 0.675440 0.427590 -0.511020
O14   O     O_R   0.633290 0.324560 0.572410 -0.518715
O15   O     O_R   0.633290 0.175440 0.572410 -0.511551
O16   O     O_R   0.366710 0.824560 0.427590 -0.518000
C5    C     C_R   0.471283 0.648803 0.444900 0.526334
C6    C     C_R   0.529898 0.353023 0.557860 0.571733
C7    C     C_R   0.528735 0.148780 0.555283 0.530654
C8    C     C_R   0.469688 0.853113 0.441885 0.570119
O17   O     O_R   0.534870 0.669390 0.371760 -0.512150
O18   O     O_R   0.465130 0.330610 0.628240 -0.515738
O19   O     O_R   0.465130 0.169390 0.628240 -0.509785
O20   O     O_R   0.534870 0.830610 0.371760 -0.521675
O21   O     O_R   0.453080 0.674480 0.075160 -0.505042
O22   O     O_R   0.546920 0.325520 0.924840 -0.497796
O23   O     O_R   0.546920 0.174480 0.924840 -0.508184
O24   O     O_R   0.453080 0.825520 0.075160 -0.498563
C9    C     C_R   0.377692 0.643972 0.964580 0.539069
C10   C     C_R   0.646908 0.363585 0.991039 0.547895
C11   C     C_R   0.622879 0.143351 0.034694 0.525561
C12   C     C_R   0.353413 0.863711 0.008165 0.550067
Cr1   Cr    Cr6+3 0.187610 0.750000 0.979860 1.024860
Cr2   Cr    Cr6+3 0.812390 0.250000 0.020140 1.028073
Cr3   Cr    Cr6+3 0.245810 0.750000 0.341640 1.000283
Cr4   Cr    Cr6+3 0.754190 0.250000 0.658360 1.001409
Cr5   Cr    Cr6+3 0.485760 0.750000 0.219910 1.000450
Cr6   Cr    Cr6+3 0.514240 0.250000 0.780090 1.009162
O25   O     O_3   0.306390 0.750000 0.180470 -0.293878
O26   O     O_3   0.693610 0.250000 0.819530 -0.294276
C13   C     C_R   0.500742 0.426415 0.491544 0.001665
C14   C     C_R   0.504900 0.579775 0.523699 -0.070274
C15   C     C_R   0.497862 0.926287 0.509145 0.005899
C16   C     C_R   0.495310 0.079667 0.477005 -0.071634
C17   C     C_R   0.291519 0.425027 0.503782 0.046277
C18   C     C_R   0.718340 0.582915 0.534443 0.052469
C19   C     C_R   0.709810 0.924617 0.507433 0.048902
C20   C     C_R   0.281085 0.083664 0.462795 0.049306
C21   C     C_R   0.217492 0.456398 0.570631 -0.171980
C22   C     C_R   0.808868 0.548764 0.496675 -0.118578
C23   C     C_R   0.789903 0.957052 0.450128 -0.182432
C24   C     C_R   0.189091 0.049742 0.498345 -0.119807
C25   C     C_R   0.235638 0.528994 0.617167 -0.148289
C26   C     C_R   0.797698 0.475281 0.456854 -0.179243
C27   C     C_R   0.772996 0.029460 0.402045 -0.147187
C28   C     C_R   0.198830 0.976116 0.537402 -0.180317
C29   C     C_R   0.326892 0.570815 0.596126 -0.081590
C30   C     C_R   0.693625 0.436016 0.445576 -0.099835
C31   C     C_R   0.676897 0.070266 0.411994 -0.071439
C32   C     C_R   0.302351 0.936273 0.549282 -0.098127
C33   C     C_R   0.409878 0.538331 0.541288 -0.019675
C34   C     C_R   0.599474 0.468457 0.481503 -0.034591
C35   C     C_R   0.591026 0.037872 0.462439 -0.017142
C36   C     C_R   0.398443 0.968569 0.516724 -0.027193
C37   C     C_R   0.398595 0.463013 0.505624 0.019686
C38   C     C_R   0.608343 0.544011 0.516203 -0.035416
C39   C     C_R   0.601391 0.962664 0.499215 0.028270
C40   C     C_R   0.390924 0.044288 0.482709 -0.032466
H1    H     H_    0.140907 0.426271 0.579075 0.099559
H2    H     H_    0.892531 0.577143 0.507510 0.150917
H3    H     H_    0.868113 0.927061 0.446385 0.096347
H4    H     H_    0.105520 0.078436 0.486382 0.149845
H5    H     H_    0.175872 0.553839 0.664664 0.132108
H6    H     H_    0.870698 0.448086 0.436313 0.115871
H7    H     H_    0.836764 0.054821 0.360790 0.128320
H8    H     H_    0.124648 0.948964 0.555042 0.116116
H9    H     H_    0.337895 0.627378 0.633026 0.142170
H10   H     H_    0.685983 0.380942 0.402227 0.158521
H11   H     H_    0.666254 0.126374 0.372491 0.141060
H12   H     H_    0.308252 0.881055 0.591848 0.159061
H13   H     H_    0.463706 0.102633 0.156009 0.100869
H14   H     H_    0.472536 0.952850 0.213719 0.136994
H15   H     H_    0.542310 0.603036 0.852716 0.103802
H16   H     H_    0.519298 0.451848 0.787028 0.149308
C41   C     C_2   0.371765 0.945532 0.999315 -0.021831
C42   C     C_2   0.589226 0.066971 0.063791 0.016077
C43   C     C_2   0.629157 0.445487 0.998629 -0.025095
C44   C     C_2   0.411737 0.567588 0.937552 0.019018
C45   C     C_2   0.443151 0.981871 0.115018 -0.134415
C46   C     C_2   0.498616 0.056110 0.114512 -0.130553
C47   C     C_2   0.554807 0.481510 0.884519 -0.142703
C48   C     C_2   0.503267 0.556297 0.888917 -0.134941
H17   H     H_    0.870572 0.053979 0.045455 0.152299
H18   H     H_    0.875392 0.901349 0.951830 0.150637
H19   H     H_    0.115609 0.557847 0.945374 0.156994
H20   H     H_    0.129914 0.403572 0.041623 0.147037
C49   C     C_2   0.031098 0.930493 0.118752 -0.007047
C50   C     C_2   0.913210 0.058081 0.861999 0.003723
C51   C     C_2   0.968883 0.430186 0.878969 -0.001776
C52   C     C_2   0.086072 0.557843 0.136731 -0.006248
C53   C     C_2   0.931315 0.945845 0.011554 -0.152887
C54   C     C_2   0.898114 0.022532 0.971067 -0.136264
C55   C     C_2   0.069844 0.446921 0.983576 -0.155606
C56   C     C_2   0.096888 0.524238 0.023576 -0.138341
C57   C     C_2   0.252463 0.353466 0.431419 0.241368
H21   H     H_    0.184603 0.320707 0.454395 0.148217
O27   O     O_2   0.291361 0.332222 0.341602 -0.537321
C58   C     C_2   0.746434 0.654698 0.609706 0.243135
H22   H     H_    0.681961 0.680303 0.649623 0.140512
O28   O     O_2   0.844419 0.684477 0.633463 -0.537514
C59   C     C_2   0.744394 0.851931 0.577295 0.239103
H23   H     H_    0.811848 0.818634 0.554960 0.150434
O29   O     O_2   0.702989 0.830637 0.665050 -0.534661
C60   C     C_2   0.254872 0.155822 0.388294 0.247175
H24   H     H_    0.320164 0.181056 0.349034 0.137616
O30   O     O_2   0.157613 0.186444 0.364630 -0.531716
C61   C     C_3   0.631880 0.003106 0.996259 -0.252234
C62   C     C_3   0.705032 0.945574 0.101330 -0.408839
H25   H     H_    0.792488 0.968928 0.168092 0.144163
H26   H     H_    0.656178 0.925206 0.169082 0.185974
H27   H     H_    0.721334 0.896778 0.044735 0.150710
H28   H     H_    0.555825 0.974232 0.920293 0.159451
H29   H     H_    0.680428 0.024272 0.929633 0.128264
C63   C     C_3   0.315503 0.982511 0.858207 -0.277846
C64   C     C_3   0.301341 0.066868 0.851346 -0.421316
H30   H     H_    0.280469 0.090044 0.940537 0.147906
H31   H     H_    0.383106 0.092164 0.842720 0.205299
H32   H     H_    0.228006 0.083830 0.755501 0.141709
H33   H     H_    0.370792 0.966539 0.796209 0.156705
H34   H     H_    0.225349 0.958803 0.806878 0.158912
C65   C     C_3   0.358617 0.503345 0.992944 -0.272454
C66   C     C_3   0.371892 0.514292 0.146420 -0.409277
H35   H     H_    0.467200 0.521768 0.212306 0.160854
H36   H     H_    0.324627 0.564693 0.160525 0.152332
H37   H     H_    0.335129 0.465691 0.184893 0.167764
H38   H     H_    0.264223 0.496750 0.924530 0.132949
H39   H     H_    0.399334 0.449142 0.985638 0.175051
C67   C     C_3   0.684423 0.482427 0.139075 -0.266795
C68   C     C_3   0.706224 0.566403 0.145715 -0.417186
H40   H     H_    0.783569 0.581165 0.239290 0.137711
H41   H     H_    0.725726 0.588447 0.054956 0.147966
H42   H     H_    0.628002 0.595328 0.157025 0.201578
H43   H     H_    0.624037 0.468702 0.196157 0.161422
H44   H     H_    0.772025 0.456183 0.193840 0.156925
C69   C     C_3   0.971366 0.026156 0.762650 -0.272477
C70   C     C_3   0.991343 0.942883 0.764486 -0.425561
H45   H     H_    0.065867 0.925531 0.858788 0.187515
H46   H     H_    0.908983 0.913687 0.759106 0.184366
H47   H     H_    0.013387 0.925129 0.673354 0.109727
H48   H     H_    0.915840 0.042197 0.655885 0.180551
H49   H     H_    0.058714 0.054102 0.784379 0.141559
C71   C     C_3   0.112779 0.990591 0.201586 -0.266013
C72   C     C_3   0.169268 0.038342 0.117205 -0.426063
H50   H     H_    0.173786 0.007349 0.026419 0.165663
H51   H     H_    0.117258 0.090053 0.081989 0.187852
H52   H     H_    0.262308 0.054519 0.182121 0.125631
H53   H     H_    0.060011 0.025787 0.248249 0.161543
H54   H     H_    0.188717 0.963890 0.282809 0.180736
C73   C     C_3   0.047804 0.521985 0.249457 -0.275385
C74   C     C_3   0.013375 0.440336 0.235795 -0.422109
H55   H     H_    0.933142 0.430011 0.142702 0.183862
H56   H     H_    0.087950 0.406177 0.230100 0.188948
H57   H     H_    0.994422 0.421513 0.328873 0.110912
H58   H     H_    0.123342 0.529996 0.347607 0.178502
H59   H     H_    0.970833 0.553538 0.258783 0.148468
C75   C     C_3   0.885298 0.489197 0.794390 -0.266904
C76   C     C_3   0.829099 0.537303 0.878124 -0.427687
H60   H     H_    0.734875 0.551670 0.814401 0.127300
H61   H     H_    0.828257 0.507328 0.971657 0.168159
H62   H     H_    0.879409 0.589940 0.909413 0.187217
H63   H     H_    0.936964 0.524247 0.745938 0.160895
H64   H     H_    0.809502 0.461813 0.713960 0.183082

loop_
_geom_bond_atom_site_label_1
_geom_bond_atom_site_label_2
_geom_bond_distance
_ccdc_geom_bond_type
C12   C41   1.502671 S    
C26   C30   1.388045 A    
C68   H42   1.101683 S    
C76   H60   1.107588 S    
O4    C12   1.331149 A    
C45   C46   1.494106 S    
C24   H4    1.083540 S    
O23   Cr6   1.949680 S    
C23   C27   1.388250 A    
C47   C48   1.490703 S    
C63   C64   1.533963 S    
C52   C73   1.518890 S    
C58   O28   1.221092 D    
O1    C9    1.307970 A    
C65   C66   1.533413 S    
C75   H64   1.100962 S    
O7    C3    1.319682 A    
H19   C56   1.084763 S    
C76   H61   1.100763 S    
C63   H33   1.093830 S    
C18   C22   1.399323 A    
H18   C53   1.084995 S    
C19   C39   1.429796 A    
C32   C36   1.413013 A    
C74   H55   1.101200 S    
C61   H29   1.098304 S    
O5    Cr1   1.933933 S    
C57   O27   1.221509 D    
C33   C37   1.404930 A    
C75   C76   1.524217 S    
C68   H40   1.102022 S    
O21   C9    1.295025 A    
O20   Cr5   2.061428 S    
C44   C48   1.351481 D    
C19   C59   1.483623 S    
O13   Cr3   1.938660 S    
O14   Cr4   1.938659 S    
C60   H24   1.084085 S    
C32   H12   1.081397 S    
C1    O9    1.307158 A    
C22   H2    1.083533 S    
C3    O11   1.307906 A    
C72   H50   1.101034 S    
C4    O12   1.286623 A    
O3    Cr2   2.055890 S    
C59   O29   1.221419 D    
C70   H47   1.097867 S    
C51   C75   1.506075 S    
C55   C56   1.461188 S    
O6    Cr2   1.933931 S    
C10   C43   1.502176 S    
C7    O19   1.282705 A    
O8    C4    1.286460 A    
Cr4   O26   2.008467 S    
C19   C23   1.400219 A    
O1    Cr1   2.058493 S    
C43   C67   1.511209 S    
C23   H3    1.082898 S    
O2    C10   1.332372 A    
C30   H10   1.081589 S    
H16   C47   1.080352 S    
C71   H54   1.099904 S    
C72   H51   1.108271 S    
C17   C37   1.432110 A    
C41   C45   1.360301 D    
Cr5   O25   2.013009 S    
Cr6   O26   2.013009 S    
C16   C40   1.406511 A    
C66   H37   1.109822 S    
C58   H22   1.083983 S    
Cr2   O26   2.043425 S    
C42   C46   1.353700 D    
C75   H63   1.107080 S    
C49   C53   1.330455 D    
C65   H38   1.097592 S    
C76   H62   1.108881 S    
C31   C35   1.412343 A    
C14   C38   1.407214 A    
O22   C10   1.330880 A    
C13   C37   1.425857 A    
C25   H5    1.082712 S    
C14   C33   1.410304 A    
C66   H36   1.104368 S    
C2    O10   1.284817 A    
C9    C44   1.491655 S    
O17   Cr5   2.059271 S    
C61   H28   1.094863 S    
O16   Cr3   1.938593 S    
C30   C34   1.413063 A    
C64   H30   1.105604 S    
Cr3   O25   2.008466 S    
O12   Cr3   2.057009 S    
C49   C71   1.504293 S    
C43   C47   1.357969 D    
O13   C5    1.279007 A    
C24   C28   1.383114 A    
C31   H11   1.082854 S    
C71   C72   1.525548 S    
Cr1   O25   2.043425 S    
O15   C7    1.278740 A    
C69   H48   1.098939 S    
O5    C1    1.315271 A    
C20   C40   1.430817 A    
H14   C45   1.081204 S    
C63   H34   1.097471 S    
H13   C46   1.086120 S    
O2    Cr2   2.058492 S    
O3    C11   1.307191 A    
C36   C40   1.407822 A    
H15   C48   1.086271 S    
C2    C51   1.453392 S    
C18   C58   1.487321 S    
C67   H44   1.098573 S    
C15   C39   1.421174 A    
C61   C62   1.528850 S    
H17   C54   1.085572 S    
C71   H53   1.107582 S    
C72   H52   1.107677 S    
C42   C61   1.518714 S    
C70   H46   1.090253 S    
C44   C65   1.518394 S    
O8    Cr1   1.936248 S    
O24   Cr5   1.949678 S    
C27   H7    1.082735 S    
O24   C12   1.331149 A    
C15   C36   1.425320 A    
C52   C56   1.350972 D    
O18   Cr6   2.059271 S    
C17   C57   1.483181 S    
C5    C14   1.463309 S    
C22   C26   1.383257 A    
C68   H41   1.103396 S    
C5    O17   1.282967 A    
C28   H8    1.071438 S    
H20   C55   1.085217 S    
C21   C25   1.388062 A    
C7    C16   1.463239 S    
O21   Cr5   1.951908 S    
O14   C6    1.284903 A    
C8    C15   1.475749 S    
C67   H43   1.093536 S    
C74   H57   1.102528 S    
C21   H1    1.083500 S    
C8    O20   1.285440 A    
C66   H35   1.101065 S    
O6    C2    1.288380 A    
C25   C29   1.391439 A    
C53   C54   1.461455 S    
C27   C31   1.386431 A    
C28   C32   1.387409 A    
C64   H32   1.102183 S    
C62   H27   1.108404 S    
C74   H56   1.093553 S    
C73   H58   1.096529 S    
C18   C38   1.430415 A    
C4    C49   1.455704 S    
C29   H9    1.082822 S    
C69   C70   1.523831 S    
O19   Cr6   2.061430 S    
C59   H23   1.083978 S    
C34   C38   1.406940 A    
C1    C52   1.477371 S    
C17   C21   1.401910 A    
O23   C11   1.297185 A    
O7    Cr2   1.936249 S    
C50   C54   1.349465 D    
C3    C50   1.476103 S    
C35   C39   1.404894 A    
C16   C35   1.409654 A    
C69   H49   1.099234 S    
C73   H59   1.104775 S    
C60   O30   1.221111 D    
O11   Cr4   2.057010 S    
O9    Cr3   2.056604 S    
C73   C74   1.525087 S    
O15   Cr4   1.938594 S    
C26   H6    1.074187 S    
C50   C69   1.522343 S    
O10   Cr4   2.056603 S    
C11   C42   1.494745 S    
C29   C33   1.413792 A    
C65   H39   1.106053 S    
C6    C13   1.475319 S    
O4    Cr1   2.055888 S    
C6    O18   1.282068 A    
C13   C34   1.423727 A    
C67   C68   1.538014 S    
C70   H45   1.101447 S    
O22   Cr6   1.951907 S    
C51   C55   1.331183 D    
C62   H25   1.105259 S    
C57   H21   1.084488 S    
C62   H26   1.105288 S    
O16   C8    1.281011 A    
C20   C24   1.399111 A    
C64   H31   1.098142 S    
C41   C63   1.517012 S    
C20   C60   1.487738 S    
