data_mof_unit_40994.cif
_audit_creation_date              2012-12-10T20:34:57-0500
_audit_creation_method            fapswitch 2.2
_symmetry_space_group_name_H-M    P1
_symmetry_Int_Tables_number       1
_space_group_crystal_system       triclinic
_cell_length_a                    10.690381
_cell_length_b                    10.665752
_cell_length_c                    9.873754
_cell_angle_alpha                 89.596634
_cell_angle_beta                  90.899717
_cell_angle_gamma                 90.030366
_cell_volume                      1125.64803989

loop_
_atom_site_label
_atom_site_type_symbol
_atom_type_description
_atom_site_fract_x
_atom_site_fract_y
_atom_site_fract_z
_atom_type_partial_charge
C1    C     C_R   0.505465 0.259869 0.500283 0.882933
C2    C     C_3   0.879508 0.499205 0.502623 -0.026835
C3    C     C_3   0.932652 0.632317 0.545431 0.108186
C4    C     C_3   0.926142 0.472300 0.355607 -0.434159
C5    C     C_R   0.560714 0.062580 0.616444 0.048556
C6    C     C_R   0.529075 0.128577 0.498314 -0.108539
C7    C     C_R   0.525702 0.065528 0.373827 -0.162742
C8    C     C_R   0.525413 0.936203 0.373114 -0.198466
C9    C     C_R   0.528045 0.871032 0.496865 -0.098637
C10   C     C_R   0.558846 0.934347 0.615504 0.129302
C11   C     C_3   0.507383 0.924629 0.754906 -0.533015
C12   C     C_R   0.258161 0.497711 0.498743 0.855375
C13   C     C_3   0.510467 0.067280 0.757031 -0.223107
C14   C     C_R   0.392314 0.477863 0.069788 0.203212
C15   C     C_R   0.603332 0.534228 0.073464 -0.086306
C16   C     C_R   0.603012 0.534337 0.929859 -0.045148
C17   C     C_R   0.391809 0.479112 0.927341 0.221005
C18   C     C_3   0.311631 0.364837 0.921843 -0.485117
C19   C     C_3   0.314586 0.362316 0.075316 -0.435103
C20   C     C_R   0.504709 0.740009 0.499436 0.877573
C21   C     C_R   0.742536 0.498417 0.501032 0.840137
C22   C     C_3   0.074928 0.392493 0.596166 -0.189814
C23   C     C_3   0.931348 0.387071 0.591600 -0.001388
C24   C     C_3   0.077788 0.625508 0.546728 -0.390484
C25   C     C_3   0.068636 0.473985 0.352469 -0.355718
C26   C     C_3   0.122274 0.495847 0.497169 0.017406
H1    H     H_    0.102969 0.422407 0.699298 0.144845
H2    H     H_    0.889743 0.542526 0.281033 0.211154
H3    H     H_    0.121136 0.700677 0.484548 0.209698
H4    H     H_    0.512418 0.114630 0.278246 0.189830
H5    H     H_    0.512146 0.888764 0.277283 0.179084
H6    H     H_    0.410771 0.885895 0.755492 0.216348
H7    H     H_    0.574076 0.877780 0.826589 0.209463
H8    H     H_    0.415924 0.109972 0.761554 0.169846
H9    H     H_    0.687605 0.560123 0.128327 0.155441
H10   H     H_    0.686477 0.560196 0.877733 0.196661
H11   H     H_    0.216868 0.385182 0.881061 0.192898
H12   H     H_    0.358463 0.283964 0.875153 0.235650
H13   H     H_    0.221494 0.379982 0.119126 0.193089
H14   H     H_    0.366123 0.280680 0.119142 0.236963
H15   H     H_    0.899940 0.299118 0.541229 0.172282
H16   H     H_    0.115391 0.641084 0.650941 0.190201
H17   H     H_    0.099678 0.549961 0.282652 0.205810
H18   H     H_    0.102718 0.383798 0.311656 0.218837
H19   H     H_    0.891751 0.379315 0.320159 0.209814
N1    N     N_R   0.499150 0.499140 0.142800 -0.110535
N2    N     N_R   0.499150 0.499180 0.857150 -0.100262
O1    O     O_R   0.500020 0.316790 0.614690 -0.609734
O2    O     O_R   0.500000 0.316760 0.385350 -0.613643
O3    O     O_R   0.314800 0.500000 0.614670 -0.642209
O4    O     O_R   0.314790 0.499960 0.385330 -0.619314
O5    O     O_R   0.500000 0.683240 0.614650 -0.611064
O6    O     O_R   0.499980 0.683210 0.385310 -0.627353
O7    O     O_R   0.685210 0.500040 0.614670 -0.574046
O8    O     O_R   0.685200 0.500000 0.385330 -0.642148
Zn1   Zn    Zn3+2 0.500010 0.500020 0.653130 0.979713
Zn2   Zn    Zn3+2 0.499990 0.499980 0.346870 0.961574
C27   C     C_2   0.882102 0.733556 0.449211 0.425587
H20   H     H_    0.783455 0.757123 0.451471 0.063246
O9    O     O_2   0.948172 0.788382 0.368152 -0.553999
C28   C     C_2   0.605294 0.118070 0.856549 0.504266
H21   H     H_    0.701566 0.085730 0.854788 0.103487
O10   O     O_2   0.574965 0.195166 0.940536 -0.583520
C29   C     C_2   0.133782 0.264726 0.575528 0.384128
H22   H     H_    0.201437 0.229362 0.649457 0.066054
O11   O     O_2   0.108466 0.201661 0.476071 -0.558298
I1    I     I_    0.866151 0.353812 0.795558 -0.374772
I2    I     I_    0.877655 0.700037 0.741653 -0.414182

loop_
_geom_bond_atom_site_label_1
_geom_bond_atom_site_label_2
_ccdc_geom_bond_type
C12   O3    A    
C1    O1    A    
C6    C7    A    
O4    Zn2   S    
C24   H16   S    
C9    C10   A    
C9    C20   S    
C5    C13   S    
C3    I2    S    
C23   H15   S    
O1    Zn1   S    
C22   H1    S    
C10   C11   S    
C29   H22   S    
C25   H17   S    
C2    C21   S    
C2    C3    S    
C18   H12   S    
O2    Zn2   S    
C5    C10   A    
C20   O5    A    
C7    H4    S    
C16   H10   S    
C11   C13   S    
C14   C17   A    
C29   O11   D    
C3    C24   S    
C28   H21   S    
C19   H13   S    
C5    C6    A    
C2    C4    S    
C25   H18   S    
C15   H9    S    
C4    H2    S    
C18   H11   S    
C24   C26   S    
C11   H6    S    
C4    C25   S    
C4    H19   S    
O8    Zn2   S    
N1    Zn2   S    
C21   O7    A    
O7    Zn1   S    
C27   H20   S    
C7    C8    A    
C19   H14   S    
C27   O9    D    
C15   C16   A    
N2    Zn1   S    
C3    C27   S    
C17   N2    A    
C11   H7    S    
C12   O4    A    
C13   C28   S    
C16   N2    A    
C17   C18   S    
C18   C19   S    
C22   C26   S    
C23   I1    S    
C2    C23   S    
C28   O10   D    
O6    Zn2   S    
C22   C23   S    
C20   O6    A    
C21   O8    A    
C13   H8    S    
C1    C6    S    
C15   N1    A    
C25   C26   S    
C24   H3    S    
C8    H5    S    
C22   C29   S    
C14   C19   S    
O3    Zn1   S    
O5    Zn1   S    
C12   C26   S    
C8    C9    A    
C14   N1    A    
C1    O2    A    
