data_mof_unit_46947.cif
_audit_creation_date              2012-12-10T17:42:41-0500
_audit_creation_method            fapswitch 2.2
_symmetry_space_group_name_H-M    P1
_symmetry_Int_Tables_number       1
_space_group_crystal_system       triclinic
_cell_length_a                    9.987037
_cell_length_b                    10.71538
_cell_length_c                    13.345762
_cell_angle_alpha                 92.466353
_cell_angle_beta                  72.03367
_cell_angle_gamma                 91.194828
_cell_volume                      1357.25197111

loop_
_atom_site_label
_atom_site_type_symbol
_atom_type_description
_atom_site_fract_x
_atom_site_fract_y
_atom_site_fract_z
_atom_type_partial_charge
C1    C     C_R   0.505371 0.738456 0.489363 0.883389
C2    C     C_R   0.444707 0.516459 0.975800 -0.050024
C3    C     C_R   0.469268 0.472428 0.871936 -0.066849
C4    C     C_R   0.548730 0.494965 0.024024 0.031794
C5    C     C_R   0.688099 0.470837 0.961063 -0.063420
C6    C     C_R   0.709835 0.423344 0.857567 -0.111159
C7    C     C_R   0.591707 0.400952 0.824169 0.541558
C8    C     C_R   0.514343 0.479856 0.131440 -0.106197
C9    C     C_R   0.763431 0.495317 0.117824 0.542135
C10   C     C_R   0.375099 0.502980 0.817598 -0.169688
C11   C     C_R   0.307465 0.878862 0.410079 -0.137377
C12   C     C_R   0.422242 0.496724 0.702466 0.953793
C13   C     C_R   0.180437 0.935516 0.417268 -0.215400
C14   C     C_R   0.140829 0.043516 0.480334 -0.230619
C15   C     C_R   0.233356 0.100899 0.528644 0.567061
C16   C     C_R   0.373644 0.056527 0.503147 -0.059732
C17   C     C_R   0.399481 0.934746 0.461334 0.032384
C18   C     C_R   0.512025 0.871262 0.478330 -0.109036
C19   C     C_R   0.616170 0.935751 0.509118 -0.253366
C20   C     C_R   0.606753 0.062311 0.528663 -0.041141
C21   C     C_R   0.487521 0.125701 0.521055 -0.157645
C22   C     C_R   0.824785 0.694277 0.624750 0.555724
C23   C     C_R   0.494676 0.260397 0.509811 0.917259
C24   C     C_R   0.894359 0.795292 0.660548 -0.299902
C25   C     C_R   0.028788 0.782684 0.664120 -0.283272
C26   C     C_R   0.101580 0.676274 0.621668 -0.130357
C27   C     C_R   0.052347 0.589939 0.559029 0.110933
C28   C     C_R   0.907720 0.593589 0.559624 0.027242
C29   C     C_R   0.949624 0.410947 0.446381 0.034972
C30   C     C_R   0.090903 0.410130 0.448421 -0.074355
C31   C     C_R   0.577112 0.497253 0.296850 0.875405
C32   C     C_R   0.796224 0.480606 0.007432 -0.286316
C33   C     C_R   0.620237 0.491376 0.180861 -0.233965
C34   C     C_R   0.249334 0.565347 0.870842 -0.386070
C35   C     C_R   0.223388 0.610095 0.975891 0.582446
C36   C     C_R   0.321172 0.584096 0.027544 -0.227363
H1    H     H_    0.333042 0.791678 0.364605 0.166430
H2    H     H_    0.109207 0.891684 0.379274 0.172831
H3    H     H_    0.037437 0.081028 0.493312 0.171480
H4    H     H_    0.840963 0.880265 0.696269 0.159888
H5    H     H_    0.074745 0.853176 0.704307 0.158125
H6    H     H_    0.196708 0.664683 0.639646 0.212545
H7    H     H_    0.159577 0.334541 0.408988 0.160340
H8    H     H_    0.904798 0.475195 0.958403 0.157873
H9    H     H_    0.176506 0.585258 0.828283 0.167548
H10   H     H_    0.302735 0.621791 0.107239 0.165144
H11   H     H_    0.703423 0.887065 0.521705 0.186284
N1    N     N_R   0.856860 0.501200 0.500990 -0.120225
N2    N     N_R   0.142450 0.501280 0.501020 -0.109641
O1    O     O_R   0.385310 0.683220 0.500000 -0.659607
O2    O     O_R   0.614640 0.683250 0.500010 -0.564950
O3    O     O_R   0.328400 0.499950 0.653610 -0.645493
O4    O     O_R   0.557730 0.499970 0.653620 -0.520322
O5    O     O_R   0.385360 0.316750 0.499990 -0.579452
O6    O     O_R   0.614690 0.316780 0.500000 -0.603682
O7    O     O_R   0.442270 0.500030 0.346380 -0.627970
O8    O     O_R   0.671600 0.500050 0.346390 -0.569078
Zn1   Zn    Zn3+2 0.346880 0.499980 0.499990 0.968482
Zn2   Zn    Zn3+2 0.653120 0.500020 0.500010 1.043262
O9    O     O_3   0.868885 0.513153 0.164609 -0.559894
C37   C     C_3   0.963420 0.412063 0.137358 -0.210851
H12   H     H_    0.907614 0.320207 0.146396 0.138473
H13   H     H_    0.029186 0.416799 0.190653 0.198046
H14   H     H_    0.036357 0.418350 0.056115 0.155871
O10   O     O_3   0.181765 0.192547 0.606513 -0.572129
C38   C     C_3   0.164750 0.141868 0.705761 -0.311598
H15   H     H_    0.148561 0.219332 0.765971 0.194861
H16   H     H_    0.258751 0.090158 0.709044 0.126551
H17   H     H_    0.070095 0.080302 0.727874 0.162678
C39   C     C_1   0.715326 0.120373 0.566043 0.243934
N3    N     N_1   0.801513 0.165953 0.597196 -0.166838
C40   C     C_1   0.905188 0.313254 0.386339 0.226567
N4    N     N_1   0.870622 0.233615 0.338089 -0.236316
O11   O     O_3   0.679377 0.691680 0.655470 -0.562261
C41   C     C_3   0.611295 0.759796 0.750371 -0.357270
H18   H     H_    0.612399 0.861394 0.736812 0.152343
H19   H     H_    0.656144 0.739017 0.814490 0.170529
H20   H     H_    0.498812 0.732530 0.777077 0.182344
C42   C     C_1   0.846880 0.388159 0.788746 0.202073
N5    N     N_1   0.956827 0.361766 0.732608 -0.157428
C43   C     C_1   0.381804 0.416086 0.180054 0.227749
N6    N     N_1   0.276885 0.363440 0.216033 -0.263238
O12   O     O_3   0.103690 0.676351 0.032920 -0.574262
C44   C     C_3   0.057107 0.756804 0.969653 -0.302428
H21   H     H_    0.986908 0.827616 0.022037 0.197311
H22   H     H_    0.993798 0.704368 0.926273 0.166686
H23   H     H_    0.145794 0.808194 0.914514 0.132010
O13   O     O_3   0.593587 0.305267 0.750713 -0.588233
C45   C     C_3   0.497579 0.211443 0.801356 -0.372674
H24   H     H_    0.386867 0.242740 0.820208 0.158580
H25   H     H_    0.518627 0.181444 0.873977 0.164240
H26   H     H_    0.508855 0.127776 0.748081 0.181921

loop_
_geom_bond_atom_site_label_1
_geom_bond_atom_site_label_2
_ccdc_geom_bond_type
C38   H16   S    
C16   C21   A    
O6    Zn2   S    
C19   C20   A    
C44   H23   S    
C4    C8    A    
C43   N6    T    
O4    Zn2   S    
C26   C27   A    
N1    Zn2   S    
C44   H22   S    
C18   C19   A    
C3    C7    A    
C5    C6    A    
C19   H11   S    
O8    Zn2   S    
C38   H17   S    
C15   C16   A    
C15   O10   S    
C11   H1    S    
C34   C35   A    
C37   H13   S    
C9    C32   A    
C14   H3    S    
C28   N1    A    
C7    O13   S    
C16   C17   A    
C31   C33   S    
C36   H10   S    
C39   N3    T    
C31   O7    A    
C45   H25   S    
C1    O1    A    
C12   O4    A    
C5    C32   A    
O13   C45   S    
C38   H15   S    
C22   C28   A    
C13   C14   A    
C9    C33   A    
C20   C39   S    
C10   C12   S    
C12   O3    A    
C32   H8    S    
O11   C41   S    
C29   N1    A    
C8    C43   S    
O1    Zn1   S    
C24   C25   A    
C25   H5    S    
C35   O12   S    
C4    C5    A    
C25   C26   A    
N2    Zn1   S    
O9    C37   S    
C35   C36   A    
C37   H14   S    
C2    C4    A    
C41   H18   S    
C29   C30   A    
C41   H19   S    
O12   C44   S    
C17   C18   A    
C1    C18   S    
C10   C34   A    
C34   H9    S    
C44   H21   S    
C45   H26   S    
C1    O2    A    
C13   H2    S    
O3    Zn1   S    
C30   N2    A    
C21   C23   S    
C22   C24   A    
C30   H7    S    
O2    Zn2   S    
C22   O11   S    
C26   H6    S    
C23   O5    A    
O5    Zn1   S    
C2    C36   A    
C11   C17   A    
C40   N4    T    
C23   O6    A    
C6    C7    A    
C9    O9    S    
C29   C40   S    
C2    C3    A    
C3    C10   A    
C11   C13   A    
C31   O8    A    
C6    C42   S    
C24   H4    S    
O7    Zn1   S    
C8    C33   A    
C37   H12   S    
C41   H20   S    
C42   N5    T    
C20   C21   A    
O10   C38   S    
C27   C28   A    
C14   C15   A    
C45   H24   S    
C27   N2    A    
