data_mof_unit_6758.cif
_audit_creation_date              2012-12-10T21:07:42-0500
_audit_creation_method            fapswitch 2.2
_symmetry_space_group_name_H-M    P1
_symmetry_Int_Tables_number       1
_space_group_crystal_system       triclinic
_cell_length_a                    8.539378
_cell_length_b                    17.536319
_cell_length_c                    16.807625
_cell_angle_alpha                 91.306067
_cell_angle_beta                  99.161792
_cell_angle_gamma                 90.93692
_cell_volume                      2483.66538488

loop_
_atom_site_label
_atom_site_type_symbol
_atom_type_description
_atom_site_fract_x
_atom_site_fract_y
_atom_site_fract_z
_atom_type_partial_charge
C1    C     C_R   0.496112 0.353158 0.498902 0.919127
C2    C     C_R   0.431364 0.441879 0.241516 0.142499
C3    C     C_R   0.558833 0.559949 0.840384 -0.308135
C4    C     C_R   0.438349 0.442812 0.158490 -0.309388
C5    C     C_R   0.494467 0.498024 0.875550 0.060555
C6    C     C_R   0.510315 0.503492 0.125033 0.062515
C7    C     C_1   0.500000 0.499874 0.963695 -0.043418
C8    C     C_1   0.506193 0.502448 0.036993 -0.044410
C9    C     C_R   0.201089 0.490039 0.478674 0.909055
C10   C     C_R   0.798129 0.490362 0.520493 0.896972
C11   C     C_2   0.036796 0.466930 0.465782 -0.241364
C12   C     C_R   0.501658 0.646837 0.500914 0.911604
C13   C     C_2   0.959104 0.465512 0.530131 -0.241405
C14   C     C_R   0.473333 0.849280 0.572734 -0.035186
C15   C     C_R   0.462034 0.151091 0.419601 -0.043380
C16   C     C_R   0.474530 0.769809 0.571250 -0.149951
C17   C     C_R   0.488104 0.229818 0.424551 -0.120916
C18   C     C_R   0.506012 0.729682 0.502954 -0.075764
C19   C     C_R   0.473562 0.270790 0.495216 -0.070758
C20   C     C_R   0.544218 0.768741 0.436855 -0.273328
C21   C     C_R   0.424985 0.233804 0.560261 -0.239161
C22   C     C_R   0.546385 0.847972 0.437081 0.030809
C23   C     C_1   0.470958 0.967247 0.497877 0.020675
C24   C     C_R   0.396702 0.155453 0.556690 0.019346
C25   C     C_R   0.502675 0.888072 0.503755 0.031948
C26   C     C_R   0.424102 0.113654 0.487667 0.033154
C27   C     C_2   0.961267 0.448671 0.380908 0.543166
C28   C     C_2   0.029971 0.437586 0.610595 0.471743
C29   C     C_2   0.442694 0.890840 0.646590 0.469483
C30   C     C_2   0.474115 0.108753 0.343301 0.498157
C31   C     C_2   0.596127 0.885805 0.366782 0.401190
C32   C     C_2   0.338422 0.120102 0.626128 0.414165
C33   C     C_2   0.361635 0.367940 0.857971 0.413011
C34   C     C_1   0.444707 0.033557 0.492597 0.033646
C35   C     C_2   0.661543 0.628855 0.146193 0.396558
C36   C     C_2   0.648487 0.624856 0.727977 0.437103
C37   C     C_2   0.347409 0.376087 0.269329 0.431177
C38   C     C_R   0.431407 0.435806 0.824565 -0.091785
C39   C     C_R   0.581234 0.563046 0.177666 -0.080747
C40   C     C_R   0.436006 0.438747 0.740407 0.016702
C41   C     C_R   0.575029 0.559150 0.261647 -0.001693
C42   C     C_R   0.564774 0.559778 0.757189 0.115499
H1    H     H_    0.999545 0.478506 0.331263 0.081165
H2    H     H_    0.354471 0.150082 0.684178 0.105140
H3    H     H_    0.357687 0.365168 0.922037 0.081308
H4    H     H_    0.667681 0.631998 0.082372 0.086063
H5    H     H_    0.390236 0.391081 0.701442 0.208757
H6    H     H_    0.630677 0.603821 0.302465 0.166738
H7    H     H_    0.628171 0.682223 0.749182 0.053828
H8    H     H_    0.361027 0.319703 0.243594 0.067255
H9    H     H_    0.610117 0.607739 0.878450 0.152324
H10   H     H_    0.383466 0.396519 0.119270 0.150858
H11   H     H_    0.994747 0.461376 0.665094 0.091097
H12   H     H_    0.464191 0.951828 0.653477 0.110624
H13   H     H_    0.432463 0.049997 0.334540 0.100623
H14   H     H_    0.448674 0.739072 0.622967 0.181512
H15   H     H_    0.520750 0.259209 0.373440 0.194238
H16   H     H_    0.574528 0.737416 0.385227 0.162463
H17   H     H_    0.406279 0.266188 0.613545 0.180158
H18   H     H_    0.589556 0.854478 0.309841 0.097220
N1    N     N_R   0.500040 0.500030 0.707230 -0.121851
N2    N     N_R   0.499960 0.499970 0.292770 -0.107618
O1    O     O_R   0.500000 0.389130 0.566570 -0.635711
O2    O     O_2   0.120935 0.384312 0.615815 -0.560993
O3    O     O_2   0.395358 0.857214 0.701294 -0.551963
O4    O     O_2   0.528402 0.139327 0.288780 -0.544413
O5    O     O_2   0.652324 0.950474 0.372473 -0.557597
O6    O     O_2   0.265400 0.059292 0.618572 -0.558136
O7    O     O_2   0.307337 0.314098 0.814270 -0.555211
O8    O     O_2   0.722050 0.680586 0.191218 -0.574621
O9    O     O_2   0.750170 0.615120 0.685697 -0.543301
O10   O     O_2   0.253162 0.384191 0.315897 -0.558565
O11   O     O_R   0.500000 0.610870 0.433430 -0.636245
O12   O     O_R   0.499990 0.389100 0.433480 -0.584974
O13   O     O_R   0.500010 0.610900 0.566520 -0.601610
O14   O     O_R   0.271750 0.500010 0.550980 -0.598641
O15   O     O_R   0.728250 0.499990 0.449020 -0.602204
O16   O     O_R   0.271740 0.499980 0.417890 -0.594477
O17   O     O_R   0.728260 0.500020 0.582110 -0.580341
O18   O     O_2   0.861468 0.397458 0.365867 -0.535026
Zn1   Zn    Zn3+2 0.500010 0.500020 0.588860 1.009007
Zn2   Zn    Zn3+2 0.499990 0.499980 0.411140 1.014050

loop_
_geom_bond_atom_site_label_1
_geom_bond_atom_site_label_2
_ccdc_geom_bond_type
C40   H5    S    
C3    C42   A    
C33   H3    S    
C36   C42   S    
C24   C32   S    
C7    C8    T    
C39   C41   A    
C31   O5    D    
O1    Zn1   S    
C1    O12   A    
C19   C21   A    
C24   C26   A    
C21   H17   S    
C29   H12   S    
C26   C34   S    
C35   O8    D    
C22   C25   A    
C13   C28   S    
C9    O14   A    
C36   O9    D    
C33   O7    D    
C32   O6    D    
N2    Zn2   S    
C12   O11   A    
C37   O10   D    
C41   N2    A    
O12   Zn2   S    
C1    O1    A    
C10   O15   A    
C1    C19   S    
C22   C31   S    
C4    C6    A    
C27   O18   D    
O17   Zn1   S    
C3    H9    S    
O13   Zn1   S    
C15   C26   A    
C6    C8    S    
C40   N1    A    
C31   H18   S    
C35   C39   S    
C16   H14   S    
O16   Zn2   S    
C11   C27   S    
C28   H11   S    
C23   C34   T    
C32   H2    S    
C9    C11   S    
C42   N1    A    
C30   O4    D    
C29   O3    D    
C28   O2    D    
C4    H10   S    
C14   C16   A    
C21   C24   A    
C14   C29   S    
C20   H16   S    
O11   Zn2   S    
C15   C30   S    
C5    C7    S    
C15   C17   A    
C20   C22   A    
C3    C5    A    
C10   C13   S    
O14   Zn1   S    
C10   O17   A    
C30   H13   S    
C33   C38   S    
N1    Zn1   S    
C38   C40   A    
C37   H8    S    
C11   C13   D    
C2    C37   S    
O15   Zn2   S    
C2    C4    A    
C17   C19   A    
C41   H6    S    
C18   C20   A    
C9    O16   A    
C23   C25   S    
C14   C25   A    
C27   H1    S    
C16   C18   A    
C12   O13   A    
C12   C18   S    
C6    C39   A    
C5    C38   A    
C35   H4    S    
C36   H7    S    
C2    N2    A    
C17   H15   S    
