data_mof_unit_7765.cif
_audit_creation_date              2012-12-11T18:11:09-0500
_audit_creation_method            fapswitch 2.2
_symmetry_space_group_name_H-M    P1
_symmetry_Int_Tables_number       1
_space_group_crystal_system       triclinic
_cell_length_a                    8.311141
_cell_length_b                    12.832768
_cell_length_c                    18.737689
_cell_angle_alpha                 99.213568
_cell_angle_beta                  91.281335
_cell_angle_gamma                 98.199626
_cell_volume                      1950.42686047

loop_
_atom_site_label
_atom_site_type_symbol
_atom_type_description
_atom_site_fract_x
_atom_site_fract_y
_atom_site_fract_z
_atom_type_partial_charge
Ba1   Ba    Ba6+2 0.852780 0.548340 0.465070 1.637884
Ba2   Ba    Ba6+2 0.337060 0.451750 0.534940 1.647415
C1    C     C_3   0.580193 0.857561 0.181636 -0.173430
C2    C     C_3   0.540504 0.771532 0.229219 0.278660
C3    C     C_3   0.467807 0.286372 0.314560 0.268989
C4    C     C_3   0.456303 0.257238 0.232216 -0.402757
C5    C     C_3   0.091255 0.247425 0.731882 0.333512
C6    C     C_3   0.110183 0.226626 0.809094 -0.360645
C7    C     C_3   0.581803 0.196070 0.729606 0.367957
C8    C     C_3   0.490907 0.129944 0.662407 -0.297797
C9    C     C_R   0.997274 0.444577 0.046538 0.002264
C10   C     C_R   0.896368 0.399949 0.096866 -0.084045
C11   C     C_R   0.775714 0.412442 0.951741 -0.116590
C12   C     C_3   0.096448 0.740590 0.266151 0.364510
C13   C     C_R   0.939435 0.449693 0.975301 0.031158
C14   C     C_R   0.718565 0.416936 0.882704 -0.114464
C15   C     C_R   0.822071 0.455928 0.832368 -0.021125
C16   C     C_R   0.984771 0.500223 0.855032 -0.002688
C17   C     C_R   0.045479 0.496720 0.926675 0.004675
C18   C     C_R   0.767343 0.451767 0.759872 -0.008711
C19   C     C_R   0.873591 0.490016 0.710634 -0.291546
C20   C     C_R   0.028524 0.543565 0.732955 0.047423
C21   C     C_R   0.084690 0.549879 0.806350 -0.061206
C22   C     C_R   0.162143 0.482206 0.068132 0.023548
C23   C     C_3   0.052234 0.749321 0.187944 -0.382205
C24   C     C_R   0.218937 0.479724 0.140709 0.014472
C25   C     C_R   0.110780 0.442471 0.191772 -0.026701
C26   C     C_R   0.952169 0.398809 0.166834 0.008025
C27   C     C_R   0.234457 0.607874 0.833158 -0.030494
C28   C     C_R   0.299225 0.606118 0.902989 0.062493
C29   C     C_R   0.210231 0.540285 0.949093 0.003149
C30   C     C_R   0.271280 0.521580 0.017916 0.019276
C31   C     C_R   0.438475 0.533688 0.037511 -0.107469
C32   C     C_R   0.383879 0.515273 0.162294 -0.031836
C33   C     C_R   0.493772 0.535318 0.108672 -0.106790
C34   C     C_3   0.230510 0.782143 0.617152 0.289482
C35   C     C_R   0.432313 0.531723 0.236986 -0.013879
C36   C     C_R   0.321544 0.502023 0.287306 -0.298677
C37   C     C_R   0.165002 0.451039 0.265721 0.028793
C38   C     C_R   0.765655 0.178838 0.520748 -0.259137
C39   C     C_R   0.435840 0.807888 0.468241 -0.266802
C40   C     C_R   0.404269 0.982566 0.442735 -0.102075
C41   C     C_R   0.345545 0.873974 0.437743 -0.002881
C42   C     C_R   0.579584 0.849326 0.509345 0.065651
C43   C     C_R   0.640690 0.960938 0.516627 -0.068314
C44   C     C_R   0.552411 0.027675 0.481112 -0.051147
C45   C     C_3   0.239669 0.901885 0.631776 -0.366613
C46   C     C_R   0.616317 0.137403 0.484500 0.014540
C47   C     C_R   0.855122 0.115107 0.553869 0.019198
C48   C     C_R   0.791132 0.007410 0.554178 -0.106987
C49   C     C_3   0.888210 0.203735 0.280242 0.309520
C50   C     C_3   0.804074 0.112282 0.313118 -0.225470
C51   C     C_3   0.732100 0.706871 0.682138 0.316370
C52   C     C_3   0.763349 0.745809 0.762989 -0.412686
H1    H     H_    0.492356 0.803943 0.281422 -0.006680
H2    H     H_    0.288527 0.936697 0.584933 0.089447
H3    H     H_    0.116753 0.923867 0.641900 0.142627
H4    H     H_    0.320270 0.933292 0.680717 0.110922
H5    H     H_    0.793279 0.253768 0.275966 -0.019532
H6    H     H_    0.780011 0.144905 0.369252 0.092324
H7    H     H_    0.687431 0.082654 0.283066 0.111009
H8    H     H_    0.844001 0.680700 0.659194 0.015326
H9    H     H_    0.630876 0.638963 0.673931 0.066490
H10   H     H_    0.672298 0.922382 0.208882 0.137873
H11   H     H_    0.872040 0.808443 0.772638 0.129055
H12   H     H_    0.784380 0.679045 0.791194 0.061227
H13   H     H_    0.656441 0.779852 0.785849 0.117427
H14   H     H_    0.444149 0.713098 0.198524 0.003620
H15   H     H_    0.351961 0.311899 0.333235 0.056320
H16   H     H_    0.569150 0.353233 0.329589 0.069348
H17   H     H_    0.356859 0.191130 0.215315 0.189631
H18   H     H_    0.431790 0.325298 0.206719 0.089050
H19   H     H_    0.569373 0.231444 0.210568 0.119181
H20   H     H_    0.634448 0.821061 0.131750 0.099034
H21   H     H_    0.128451 0.703480 0.150571 0.061984
H22   H     H_    0.198249 0.304389 0.721677 0.124829
H23   H     H_    0.979470 0.284132 0.726729 -0.044171
H24   H     H_    0.134286 0.303543 0.846919 0.085959
H25   H     H_    0.997479 0.179575 0.824344 0.105249
H26   H     H_    0.213677 0.181987 0.814268 0.142577
H27   H     H_    0.705828 0.228193 0.714925 -0.031043
H28   H     H_    0.363193 0.107184 0.675084 0.160467
H29   H     H_    0.546191 0.057941 0.643313 0.046914
H30   H     H_    0.006823 0.676583 0.281422 0.121220
H31   H     H_    0.491970 0.177299 0.618124 0.133714
H32   H     H_    0.831193 0.483466 0.654833 0.066254
H33   H     H_    0.590933 0.389195 0.869997 0.120129
H34   H     H_    0.864914 0.365033 0.200847 0.073969
H35   H     H_    0.302107 0.657935 0.799682 0.096029
H36   H     H_    0.623458 0.552355 0.121042 0.103612
H37   H     H_    0.360469 0.514847 0.343949 0.066320
H38   H     H_    0.685458 0.379387 0.985306 0.072773
H39   H     H_    0.771344 0.365081 0.084871 0.066933
H40   H     H_    0.218769 0.716288 0.269050 -0.079244
H41   H     H_    0.529091 0.538609 0.998170 0.078859
H42   H     H_    0.331435 0.030905 0.417316 0.103983
H43   H     H_    0.861904 0.960751 0.581997 0.108421
H44   H     H_    0.815595 0.261683 0.521446 0.071825
H45   H     H_    0.387574 0.724083 0.463912 0.060195
H46   H     H_    0.924142 0.714345 0.172949 0.149425
H47   H     H_    0.068066 0.833478 0.179396 0.131921
H48   H     H_    0.351773 0.761284 0.603372 0.000619
H49   H     H_    0.141347 0.750629 0.571097 0.084338
O1    O     O_2   0.873090 0.425890 0.325140 -0.499290
O2    O     O_3   0.690805 0.791319 0.650243 -0.644756
O3    O     O_3   0.093635 0.838277 0.312724 -0.631608
O4    O     O_2   0.316610 0.574140 0.674900 -0.464062
O5    O     O_3   0.067290 0.565720 0.585630 -0.497603
O6    O     O_3   0.530210 0.372990 0.631200 -0.474496
O7    O     O_3   0.183949 0.744257 0.680539 -0.641232
O8    O     O_3   0.611340 0.366290 0.463630 -0.480058
O9    O     O_3   0.108550 0.314140 0.595200 -0.483257
O10   O     O_2   0.191704 0.121291 0.553722 -0.480001
O11   O     O_3   0.082515 0.150817 0.683481 -0.632599
O12   O     O_3   0.122420 0.434370 0.414380 -0.456492
O13   O     O_3   0.578370 0.633800 0.536380 -0.491467
O14   O     O_2   0.341510 0.231850 0.465510 -0.435640
O15   O     O_3   0.494434 0.196625 0.344584 -0.662969
O16   O     O_2   0.439141 0.469716 0.756925 -0.494803
O17   O     O_3   0.489069 0.276077 0.756790 -0.620216
O18   O     O_3   0.659500 0.627100 0.368810 -0.464063
O19   O     O_2   0.766279 0.542202 0.244318 -0.511033
O20   O     O_3   0.019190 0.255094 0.327944 -0.629528
O21   O     O_3   0.682100 0.727415 0.242467 -0.619945
O22   O     O_2   0.848200 0.768190 0.534530 -0.472101
O23   O     O_3   0.081160 0.685950 0.404810 -0.492799
O24   O     O_2   0.019282 0.877831 0.450188 -0.491248
P1    P     P_3+3 0.041040 0.394770 0.336330 0.994104
P2    P     P_3+3 0.672880 0.754030 0.556100 0.965783
P3    P     P_3+3 0.137837 0.820263 0.401604 0.909852
P4    P     P_3+3 0.148670 0.605320 0.663680 0.965273
P5    P     P_3+3 0.058706 0.175843 0.594873 0.945568
P6    P     P_3+3 0.631409 0.605604 0.273801 0.915095
P7    P     P_3+3 0.519350 0.231497 0.438730 0.940843
P8    P     P_3+3 0.558632 0.394887 0.725437 0.919157
C53   C     C_2   0.938124 0.166055 0.204737 0.764178
O25   O     O_2   0.079092 0.185002 0.188478 -0.648414
O26   O     O_R   0.819858 0.111335 0.152572 -0.801633
H50   H     H_    0.866706 0.090611 0.103724 0.312425
C54   C     C_3   0.897781 0.019238 0.314953 -0.204059
C55   C     C_3   0.794568 0.940410 0.353934 -0.306142
H51   H     H_    0.818407 0.969387 0.411744 0.146047
H52   H     H_    0.662748 0.937465 0.342422 0.078416
H53   H     H_    0.823177 0.858726 0.340529 0.213381
H54   H     H_    0.920288 0.980629 0.259497 0.135706
H55   H     H_    0.017434 0.047044 0.344730 0.161035
C56   C     C_3   0.430115 0.904243 0.159297 -0.280435
C57   C     C_3   0.361159 0.972598 0.221843 -0.385198
H56   H     H_    0.340142 0.930981 0.268656 0.149356
H57   H     H_    0.447052 0.045415 0.239327 0.164741
H58   H     H_    0.245209 0.995987 0.203964 0.152584
H59   H     H_    0.464475 0.954620 0.117412 0.154535
H60   H     H_    0.333845 0.839356 0.134814 0.118955
C58   C     C_3   0.601044 0.128368 0.789327 -0.205631
C59   C     C_3   0.696616 0.035733 0.766946 -0.478355
H61   H     H_    0.738684 0.006926 0.815939 0.136335
H62   H     H_    0.617711 0.968117 0.732997 0.163852
H63   H     H_    0.804157 0.060931 0.736426 0.159361
H64   H     H_    0.666553 0.181363 0.837024 0.109966
H65   H     H_    0.479365 0.096168 0.806607 0.117326
C60   C     C_3   0.451313 0.687887 0.925910 -0.191423
C61   C     C_3   0.423962 0.770043 0.990769 -0.439094
H66   H     H_    0.317461 0.809323 0.979590 0.135146
H67   H     H_    0.402703 0.731807 0.039041 0.138057
H68   H     H_    0.533370 0.831859 0.002132 0.127377
H69   H     H_    0.561727 0.651781 0.933443 0.102120
H70   H     H_    0.485662 0.734812 0.882228 0.093522

loop_
_geom_bond_atom_site_label_1
_geom_bond_atom_site_label_2
_ccdc_geom_bond_type
C8    H31   S    
C1    C56   S    
O10   P5    D    
C20   P4    S    
C59   H62   S    
C32   C35   A    
C49   O20   S    
Ba2   O4    S    
C56   C57   S    
Ba1   P1    S    
C12   H30   S    
C17   C29   A    
C27   H35   S    
C60   C61   S    
C5    C6    S    
Ba2   O6    S    
C52   H11   S    
C1    H10   S    
C4    H18   S    
Ba2   O9    S    
C24   C25   A    
C27   C28   A    
O21   P6    S    
C10   C26   A    
C34   H49   S    
C40   H42   S    
C21   C27   A    
C5    O11   S    
C46   P7    S    
C35   C36   A    
C22   C24   A    
C16   C17   A    
Ba1   P2    S    
C50   H7    S    
C55   H52   S    
C38   H44   S    
C36   C37   A    
Ba2   O12   S    
O6    P8    S    
O23   P3    S    
C38   C47   A    
C9    C22   A    
C15   C18   A    
C2    O21   S    
C34   C45   S    
C34   H48   S    
C32   C33   A    
C40   C44   A    
C1    H20   S    
C38   C46   A    
O5    P4    S    
C3    H15   S    
C50   H6    S    
C50   C54   S    
C9    C13   A    
C24   C32   A    
O13   P2    S    
C25   C37   A    
C14   C15   A    
C26   H34   S    
C14   H33   S    
C39   H45   S    
Ba1   O13   S    
C7    C8    S    
C60   H69   S    
O15   P7    S    
C5    H23   S    
C18   P8    S    
C19   C20   A    
C59   H63   S    
C6    H24   S    
C39   C41   A    
Ba2   O13   S    
O14   P7    D    
C31   H41   S    
Ba2   O14   S    
Ba2   P4    S    
C61   H67   S    
C4    H17   S    
C47   P5    S    
C44   C46   A    
Ba2   O8    S    
C49   C50   S    
C57   H58   S    
C54   C55   S    
O4    P4    D    
C55   H53   S    
C54   H55   S    
C2    H14   S    
O2    P2    S    
C52   H13   S    
C42   P2    S    
C43   C44   A    
C36   H37   S    
C8    H28   S    
O9    P5    S    
O12   P1    S    
C16   C21   A    
C23   H21   S    
C13   C17   A    
C22   C30   A    
O19   P6    D    
C58   H65   S    
C3    H16   S    
C51   O2    S    
C45   H3    S    
C61   H68   S    
C49   C53   S    
C23   H46   S    
C29   C30   A    
O1    P1    D    
C28   C29   A    
C15   C16   A    
O7    P4    S    
C57   H56   S    
Ba1   O1    S    
C58   C59   S    
C60   H70   S    
C53   O26   S    
C7    C58   S    
C11   C13   A    
C2    H1    S    
Ba1   O23   S    
C39   C42   A    
C35   P6    S    
C10   H39   S    
C8    H29   S    
C49   H5    S    
C40   C41   A    
C1    C2    S    
C59   H61   S    
C42   C43   A    
C4    H19   S    
C61   H66   S    
O3    P3    S    
C19   H32   S    
C48   H43   S    
C37   P1    S    
Ba1   O18   S    
O11   P5    S    
C41   P3    S    
C57   H57   S    
C53   O25   D    
C54   H54   S    
C9    C10   A    
O8    P7    S    
C51   C52   S    
C5    H22   S    
C52   H12   S    
C3    O15   S    
Ba1   O22   S    
O17   P8    S    
C30   C31   A    
C56   H59   S    
O24   P3    D    
C58   H64   S    
C11   H38   S    
C6    H25   S    
C55   H51   S    
Ba1   O8    S    
C45   H4    S    
C34   O7    S    
C51   H9    S    
C23   H47   S    
O20   P1    S    
C3    C4    S    
C43   C48   A    
Ba1   Ba2   S    
Ba2   O5    S    
C31   C33   A    
C12   C23   S    
C56   H60   S    
O16   P8    D    
O26   H50   S    
Ba1   O5    S    
C33   H36   S    
O22   P2    D    
C12   O3    S    
C18   C19   A    
C51   H8    S    
C47   C48   A    
C11   C14   A    
C25   C26   A    
C6    H26   S    
C7    O17   S    
C20   C21   A    
Ba1   O12   S    
C28   C60   S    
O18   P6    S    
C12   H40   S    
C7    H27   S    
C45   H2    S    
