data_mof_unit_60455.cif
_audit_creation_date              2012-12-10T20:07:50-0500
_audit_creation_method            fapswitch 2.2
_symmetry_space_group_name_H-M    P1
_symmetry_Int_Tables_number       1
_space_group_crystal_system       triclinic
_cell_length_a                    22.535892
_cell_length_b                    36.144327
_cell_length_c                    22.522816
_cell_angle_alpha                 90.011391
_cell_angle_beta                  90.000675
_cell_angle_gamma                 90.00236
_cell_volume                      18345.8388892

loop_
_atom_site_label
_atom_site_type_symbol
_atom_type_description
_atom_site_fract_x
_atom_site_fract_y
_atom_site_fract_z
_atom_type_partial_charge
C1    C     C_R   0.500008 0.849624 0.750038 0.515070
C2    C     C_R   0.000002 0.849627 0.749988 0.515148
C3    C     C_R   0.339847 0.249999 0.750000 0.511054
C4    C     C_R   0.839844 0.750000 0.249999 0.511478
C5    C     C_R   0.839847 0.750000 0.750000 0.509629
C6    C     C_R   0.839844 0.250000 0.749999 0.511130
C7    C     C_R   0.839847 0.250000 0.250000 0.509972
C8    C     C_R   0.660151 0.750000 0.749999 0.516543
C9    C     C_R   0.660153 0.750000 0.250000 0.517729
C10   C     C_R   0.660151 0.250000 0.250000 0.517237
C11   C     C_R   0.660153 0.250001 0.750000 0.516814
C12   C     C_R   0.160151 0.750000 0.250000 0.517165
C13   C     C_R   0.000013 0.150372 0.749949 0.512537
C14   C     C_R   0.160154 0.750000 0.750000 0.517728
C15   C     C_R   0.160151 0.250000 0.749999 0.517334
C16   C     C_R   0.160154 0.250000 0.250000 0.517494
C17   C     C_1   0.723379 0.750000 0.749999 -0.007942
C18   C     C_1   0.723380 0.750000 0.250001 -0.007238
C19   C     C_1   0.723379 0.250000 0.249999 -0.006776
C20   C     C_1   0.723380 0.250001 0.750000 -0.008367
C21   C     C_1   0.223379 0.750000 0.250000 -0.006791
C22   C     C_1   0.223380 0.750001 0.750000 -0.005944
C23   C     C_1   0.223379 0.250000 0.749999 -0.007033
C24   C     C_R   0.999998 0.150373 0.250012 0.515391
C25   C     C_1   0.223380 0.250001 0.250001 -0.007671
C26   C     C_1   0.776618 0.749999 0.750000 -0.007778
C27   C     C_1   0.776618 0.750000 0.249999 -0.007551
C28   C     C_1   0.776618 0.250000 0.250000 -0.006807
C29   C     C_1   0.776618 0.250000 0.749999 -0.008447
C30   C     C_1   0.276618 0.750000 0.250000 -0.006832
C31   C     C_1   0.276618 0.750000 0.749999 -0.005801
C32   C     C_1   0.276619 0.249999 0.750000 -0.007092
C33   C     C_1   0.276618 0.250000 0.249999 -0.007973
C34   C     C_3   0.555631 0.521281 0.774612 -0.246360
C35   C     C_R   0.000010 0.349628 0.750047 0.512556
C36   C     C_3   0.559940 0.520995 0.232926 -0.244114
C37   C     C_3   0.555628 0.478723 0.225381 -0.246360
C38   C     C_3   0.559944 0.479009 0.767068 -0.244109
C39   C     C_3   0.552782 0.021307 0.279786 -0.246276
C40   C     C_3   0.560799 0.021285 0.743459 -0.246556
C41   C     C_3   0.562517 0.979009 0.751947 -0.245366
C42   C     C_3   0.557876 0.979038 0.272751 -0.243971
C43   C     C_3   0.055633 0.521281 0.274607 -0.246360
C44   C     C_3   0.059944 0.520995 0.732939 -0.244113
C45   C     C_3   0.055634 0.478723 0.725393 -0.246360
C46   C     C_R   0.999998 0.349627 0.249991 0.515301
C47   C     C_3   0.059945 0.479009 0.267063 -0.244113
C48   C     C_3   0.055579 0.021283 0.774815 -0.245645
C49   C     C_3   0.059939 0.020995 0.232945 -0.244145
C50   C     C_3   0.055622 0.978723 0.225390 -0.246217
C51   C     C_3   0.059925 0.979009 0.767301 -0.243497
C52   C     C_3   0.498889 0.522264 0.673304 0.038838
C53   C     C_3   0.491108 0.522789 0.325184 0.036975
C54   C     C_3   0.498900 0.477735 0.326695 0.038846
C55   C     C_3   0.491099 0.477209 0.674818 0.036977
C56   C     C_3   0.506402 0.022333 0.173290 0.040041
C57   C     C_R   0.000009 0.650372 0.249952 0.512571
C58   C     C_3   0.474944 0.022298 0.821615 0.038923
C59   C     C_3   0.468110 0.977241 0.817767 0.036765
C60   C     C_3   0.498837 0.977251 0.173946 0.038814
C61   C     C_3   0.998880 0.522263 0.173306 0.038836
C62   C     C_3   0.991088 0.522789 0.825179 0.036968
C63   C     C_3   0.998880 0.477735 0.826693 0.038849
C64   C     C_3   0.991090 0.477209 0.174821 0.036981
C65   C     C_3   0.999289 0.022264 0.673254 0.038615
C66   C     C_3   0.991101 0.022786 0.325198 0.036856
C67   C     C_3   0.998889 0.977731 0.326702 0.038725
C68   C     C_R   0.999997 0.650373 0.750010 0.515341
C69   C     C_3   0.991506 0.977208 0.674734 0.037173
C70   C     C_1   0.000910 0.889236 0.748501 0.056423
C71   C     C_1   0.000828 0.889238 0.251624 0.063790
C72   C     C_1   0.000877 0.110764 0.251489 0.056396
C73   C     C_1   0.000862 0.110762 0.748347 0.063371
C74   C     C_1   0.000876 0.389236 0.248524 0.056194
C75   C     C_1   0.000831 0.389238 0.751625 0.063317
C76   C     C_1   0.000873 0.610764 0.751479 0.056218
C77   C     C_1   0.000829 0.610761 0.248372 0.063341
C78   C     C_1   0.501076 0.889240 0.248365 0.055966
C79   C     C_3   0.500262 0.536659 0.740984 0.016802
C80   C     C_1   0.500469 0.889236 0.751215 0.056254
C81   C     C_1   0.500369 0.110762 0.751261 0.063918
C82   C     C_1   0.500900 0.110764 0.248337 0.063008
C83   C     C_1   0.500877 0.389236 0.748523 0.056158
C84   C     C_1   0.500832 0.389238 0.251626 0.063314
C85   C     C_1   0.500874 0.610764 0.251480 0.056215
C86   C     C_1   0.500829 0.610761 0.748371 0.063383
C87   C     C_2   0.448748 0.540658 0.637349 0.620154
C88   C     C_2   0.428351 0.536379 0.343877 0.600840
C89   C     C_2   0.448766 0.459337 0.362656 0.620143
C90   C     C_3   0.500940 0.536659 0.258506 -0.009245
C91   C     C_2   0.428339 0.463615 0.656133 0.600830
C92   C     C_2   0.459849 0.040640 0.132656 0.618761
C93   C     C_2   0.415958 0.040674 0.839767 0.620868
C94   C     C_2   0.402681 0.963610 0.815724 0.595973
C95   C     C_2   0.438454 0.963527 0.148791 0.601354
C96   C     C_2   0.948737 0.540658 0.137355 0.620154
C97   C     C_2   0.928326 0.536379 0.843856 0.600834
C98   C     C_2   0.948738 0.459337 0.862641 0.620142
C99   C     C_2   0.928328 0.463615 0.156143 0.600832
C100  C     C_2   0.949300 0.040653 0.637079 0.620239
C101  C     C_3   0.500265 0.463341 0.259015 0.016812
C102  C     C_2   0.928344 0.036377 0.343889 0.600768
C103  C     C_2   0.948750 0.959332 0.362656 0.620132
C104  C     C_2   0.928838 0.963608 0.655754 0.600923
C105  C     C_2   0.555621 0.535118 0.639960 0.560507
C106  C     C_2   0.534314 0.541729 0.368967 0.608024
C107  C     C_2   0.555638 0.464885 0.360032 0.560497
C108  C     C_2   0.534298 0.458272 0.631030 0.608018
C109  C     C_2   0.566012 0.035387 0.145669 0.562486
C110  C     C_2   0.518166 0.035214 0.871240 0.557889
C111  C     C_2   0.495369 0.958362 0.872976 0.610554
C112  C     C_R   0.500014 0.849630 0.249977 0.515394
C113  C     C_3   0.500941 0.463340 0.741495 -0.009235
C114  C     C_2   0.546524 0.958484 0.134873 0.613552
C115  C     C_2   0.055610 0.535117 0.139956 0.560513
C116  C     C_2   0.034282 0.541729 0.868974 0.608038
C117  C     C_2   0.055610 0.464885 0.860044 0.560493
C118  C     C_2   0.034285 0.458271 0.131028 0.608020
C119  C     C_2   0.056162 0.035125 0.640158 0.560797
C120  C     C_2   0.034305 0.041720 0.368989 0.608021
C121  C     C_2   0.055624 0.964876 0.360040 0.560489
C122  C     C_2   0.034918 0.958275 0.631152 0.608141
C123  C     C_3   0.501030 0.036667 0.240793 0.016357
C124  C     C_3   0.497636 0.036658 0.757833 0.017385
C125  C     C_3   0.498464 0.963346 0.757603 -0.008129
C126  C     C_3   0.501818 0.963349 0.241270 -0.009970
C127  C     C_3   0.000261 0.536659 0.240985 0.016806
C128  C     C_3   0.000938 0.536659 0.758505 -0.009245
C129  C     C_3   0.000262 0.463341 0.759013 0.016813
C130  C     C_3   0.000939 0.463340 0.241497 -0.009237
C131  C     C_3   0.000360 0.036659 0.740938 0.016524
C132  C     C_R   0.499990 0.150372 0.249973 0.512396
C133  C     C_3   0.000939 0.036659 0.258522 -0.009465
C134  C     C_3   0.000257 0.963341 0.259020 0.016420
C135  C     C_3   0.001040 0.963341 0.741456 -0.009413
C136  C     C_3   0.950480 0.978665 0.781840 -0.248839
C137  C     C_3   0.945667 0.978802 0.224634 -0.231723
C138  C     C_3   0.950559 0.021335 0.217907 -0.248282
C139  C     C_3   0.945620 0.021197 0.775085 -0.232570
C140  C     C_3   0.950568 0.478665 0.282117 -0.248350
C141  C     C_3   0.945678 0.478799 0.724614 -0.231957
C142  C     C_3   0.950567 0.521332 0.717882 -0.248349
C143  C     C_R   0.500026 0.150375 0.750065 0.513568
C144  C     C_3   0.945677 0.521198 0.275383 -0.231960
C145  C     C_3   0.447558 0.978614 0.276587 -0.248193
C146  C     C_3   0.463481 0.978638 0.703139 -0.248021
C147  C     C_3   0.456723 0.021173 0.707939 -0.232043
C148  C     C_3   0.443298 0.021148 0.269508 -0.231615
C149  C     C_3   0.450566 0.478665 0.782110 -0.248352
C150  C     C_3   0.445672 0.478799 0.224630 -0.231962
C151  C     C_3   0.450559 0.521332 0.217897 -0.248344
C152  C     C_3   0.445675 0.521198 0.775376 -0.231958
C153  C     C_1   0.001248 0.922522 0.745917 -0.001592
C154  C     C_R   0.500010 0.349628 0.250047 0.512554
C155  C     C_1   0.000850 0.922526 0.254420 0.033006
C156  C     C_1   0.001180 0.077478 0.254069 -0.001504
C157  C     C_1   0.000920 0.077474 0.745538 0.032701
C158  C     C_1   0.001180 0.422522 0.245952 -0.001659
C159  C     C_1   0.000856 0.422526 0.754420 0.032730
C160  C     C_1   0.001177 0.577478 0.754051 -0.001654
C161  C     C_1   0.000853 0.577474 0.245577 0.032735
C162  C     C_1   0.501646 0.922526 0.245715 -0.002018
C163  C     C_1   0.500047 0.922527 0.753525 -0.001906
C164  C     C_1   0.499597 0.077470 0.753690 0.032885
C165  C     C_R   0.499998 0.349627 0.749991 0.515324
C166  C     C_1   0.501146 0.077480 0.245485 0.032235
C167  C     C_1   0.501181 0.422522 0.745950 -0.001660
C168  C     C_1   0.500857 0.422526 0.254421 0.032729
C169  C     C_1   0.501178 0.577478 0.254052 -0.001651
C170  C     C_1   0.500854 0.577474 0.745576 0.032740
C171  C     C_1   0.499988 0.749983 0.526624 -0.006693
C172  C     C_1   0.499993 0.749986 0.473376 -0.006182
C173  C     C_1   0.499988 0.250016 0.473375 -0.006556
C174  C     C_1   0.499993 0.250014 0.526625 -0.006056
C175  C     C_1   0.499987 0.249983 0.026624 -0.007912
C176  C     C_R   0.500009 0.650372 0.749952 0.512574
C177  C     C_1   0.499993 0.249987 0.973376 -0.007692
C178  C     C_1   0.499988 0.750016 0.973375 -0.005242
C179  C     C_1   0.499993 0.750014 0.026625 -0.005182
C180  C     C_1   0.999988 0.749983 0.026624 -0.006279
C181  C     C_1   0.999993 0.749986 0.973376 -0.005716
C182  C     C_1   0.999988 0.250017 0.973375 -0.006887
C183  C     C_1   0.999993 0.250014 0.026625 -0.006316
C184  C     C_1   0.999988 0.249983 0.526624 -0.006675
C185  C     C_1   0.999993 0.249986 0.473376 -0.006136
C186  C     C_1   0.999988 0.750017 0.473375 -0.006715
C187  C     C_R   0.499997 0.650373 0.250010 0.515312
C188  C     C_1   0.999993 0.750014 0.526625 -0.006184
C189  C     C_R   0.499995 0.750009 0.910146 0.513708
C190  C     C_R   0.499999 0.750008 0.089854 0.514396
C191  C     C_R   0.499995 0.249990 0.089853 0.513852
C192  C     C_R   0.499999 0.249993 0.910147 0.513541
C193  C     C_R   0.499995 0.250009 0.410146 0.513948
C194  C     C_R   0.499999 0.250007 0.589854 0.514782
C195  C     C_R   0.499995 0.749990 0.589853 0.514193
C196  C     C_R   0.499999 0.749993 0.410147 0.514041
C197  C     C_R   0.999995 0.750009 0.410146 0.513922
C198  C     C_R   0.000009 0.849628 0.250046 0.512688
C199  C     C_R   0.999999 0.750008 0.589854 0.514251
C200  C     C_R   0.999995 0.249990 0.589853 0.514115
C201  C     C_R   0.999999 0.249993 0.410147 0.514155
C202  C     C_R   0.999995 0.250009 0.910146 0.513793
C203  C     C_R   0.999999 0.250008 0.089854 0.514092
C204  C     C_R   0.999995 0.749990 0.089853 0.514068
C205  C     C_R   0.999999 0.749993 0.910147 0.514015
C206  C     C_R   0.339844 0.750000 0.749999 0.511278
C207  C     C_R   0.339847 0.750000 0.250000 0.509924
C208  C     C_R   0.339844 0.250000 0.249999 0.511394
H1    H     H_    0.098645 0.972445 0.738953 0.193890
H2    H     H_    0.590162 0.972445 0.791177 0.191914
H3    H     H_    0.596839 0.034382 0.769428 0.187970
H4    H     H_    0.596282 0.034418 0.270895 0.189263
H5    H     H_    0.598529 0.472448 0.738535 0.193361
H6    H     H_    0.598035 0.465630 0.238585 0.188723
H7    H     H_    0.598529 0.527558 0.261453 0.193357
H8    H     H_    0.598036 0.534376 0.761402 0.188732
H9    H     H_    0.443183 0.533817 0.820422 0.117271
H10   H     H_    0.460605 0.528083 0.170699 0.127952
H11   H     H_    0.443173 0.466180 0.179584 0.117260
H12   H     H_    0.098028 0.965628 0.238592 0.188954
H13   H     H_    0.460619 0.471916 0.829307 0.127939
H14   H     H_    0.436295 0.033724 0.314107 0.117975
H15   H     H_    0.468606 0.033767 0.664409 0.117010
H16   H     H_    0.487911 0.971861 0.661539 0.128303
H17   H     H_    0.452786 0.971829 0.324546 0.128116
H18   H     H_    0.943189 0.533817 0.320429 0.117257
H19   H     H_    0.960626 0.528083 0.670687 0.127941
H20   H     H_    0.943191 0.466180 0.679567 0.117263
H21   H     H_    0.960626 0.471916 0.329313 0.127939
H22   H     H_    0.942925 0.033815 0.820120 0.116677
H23   H     H_    0.098525 0.027554 0.261480 0.193260
H24   H     H_    0.960609 0.028088 0.170711 0.128180
H25   H     H_    0.943170 0.966186 0.179586 0.117796
H26   H     H_    0.960318 0.971916 0.829082 0.127989
H27   H     H_    0.403504 0.528487 0.752982 0.218371
H28   H     H_    0.407137 0.534642 0.227286 0.167178
H29   H     H_    0.403505 0.471506 0.247029 0.218369
H30   H     H_    0.407143 0.465352 0.772727 0.167154
H31   H     H_    0.403555 0.028420 0.243027 0.218537
H32   H     H_    0.409635 0.028464 0.715819 0.218330
H33   H     H_    0.419321 0.965322 0.698329 0.166532
H34   H     H_    0.098043 0.034376 0.761790 0.190582
H35   H     H_    0.405336 0.965272 0.262848 0.168257
H36   H     H_    0.903504 0.528487 0.252993 0.218368
H37   H     H_    0.907143 0.534642 0.727260 0.167169
H38   H     H_    0.903505 0.471506 0.747003 0.218373
H39   H     H_    0.907144 0.465352 0.272739 0.167160
H40   H     H_    0.903549 0.028485 0.752501 0.217259
H41   H     H_    0.907137 0.034646 0.227294 0.167784
H42   H     H_    0.903498 0.971509 0.247030 0.218937
H43   H     H_    0.907100 0.965352 0.772260 0.165358
H44   H     H_    0.551377 0.527730 0.822807 0.126158
H45   H     H_    0.098527 0.472448 0.238527 0.193357
H46   H     H_    0.569455 0.533683 0.188886 0.131211
H47   H     H_    0.551367 0.472275 0.177186 0.126152
H48   H     H_    0.569466 0.466322 0.811107 0.131217
H49   H     H_    0.543726 0.027760 0.327311 0.125601
H50   H     H_    0.572004 0.027738 0.696399 0.127925
H51   H     H_    0.585413 0.966320 0.713142 0.131354
H52   H     H_    0.562837 0.966362 0.317543 0.130737
H53   H     H_    0.051384 0.527730 0.322803 0.126155
H54   H     H_    0.069471 0.533683 0.688902 0.131212
H55   H     H_    0.051385 0.472275 0.677197 0.126153
H56   H     H_    0.098038 0.465630 0.738608 0.188721
H57   H     H_    0.069471 0.466322 0.311101 0.131214
H58   H     H_    0.051112 0.027736 0.822989 0.127303
H59   H     H_    0.069461 0.033686 0.188909 0.131687
H60   H     H_    0.051362 0.972280 0.177194 0.126874
H61   H     H_    0.069240 0.966326 0.811387 0.133148
H62   H     H_    0.380310 0.576712 0.633693 0.358673
H63   H     H_    0.339471 0.528643 0.343427 0.354748
H64   H     H_    0.380329 0.423279 0.366318 0.358680
H65   H     H_    0.339459 0.471345 0.656594 0.354739
H66   H     H_    0.392033 0.076650 0.122361 0.360235
H67   H     H_    0.098526 0.527558 0.761477 0.193359
H68   H     H_    0.349829 0.076674 0.821470 0.355567
H69   H     H_    0.318495 0.971232 0.787117 0.353672
H70   H     H_    0.349882 0.970895 0.140483 0.358316
H71   H     H_    0.880298 0.576712 0.133706 0.358670
H72   H     H_    0.839446 0.528642 0.843383 0.354745
H73   H     H_    0.880300 0.423279 0.866287 0.358670
H74   H     H_    0.839448 0.471346 0.156613 0.354739
H75   H     H_    0.880876 0.076705 0.633119 0.358181
H76   H     H_    0.839463 0.028645 0.343429 0.355404
H77   H     H_    0.880311 0.923276 0.366308 0.358882
H78   H     H_    0.098036 0.534376 0.261393 0.188729
H79   H     H_    0.839954 0.971324 0.655817 0.353131
H80   H     H_    0.600496 0.537868 0.562258 0.344361
H81   H     H_    0.552431 0.554665 0.454399 0.360576
H82   H     H_    0.600523 0.462135 0.437729 0.344357
H83   H     H_    0.552403 0.445336 0.545595 0.360592
H84   H     H_    0.617851 0.038787 0.072495 0.346836
H85   H     H_    0.535985 0.038155 0.959205 0.378969
H86   H     H_    0.485664 0.945486 0.959791 0.380619
H87   H     H_    0.573822 0.946026 0.051707 0.351495
H88   H     H_    0.100478 0.537866 0.062250 0.344381
H89   H     H_    0.599202 0.972486 0.248359 0.193777
H90   H     H_    0.052375 0.554667 0.954411 0.360610
H91   H     H_    0.100478 0.462138 0.937752 0.344351
H92   H     H_    0.052379 0.445334 0.045593 0.360578
H93   H     H_    0.101351 0.037903 0.562638 0.344994
H94   H     H_    0.052431 0.054631 0.454433 0.361040
H95   H     H_    0.100507 0.962120 0.437737 0.344518
H96   H     H_    0.053435 0.945342 0.545806 0.360317
O1    O     O_3   0.499990 0.750000 0.750000 -0.455037
O2    O     O_R   0.534620 0.832000 0.284640 -0.538716
O3    O     O_R   0.965400 0.168000 0.284590 -0.515679
O4    O     O_R   0.965400 0.332000 0.784590 -0.518627
O5    O     O_R   0.965400 0.332000 0.215410 -0.515796
O6    O     O_R   0.965400 0.668000 0.215410 -0.518679
O7    O     O_R   0.965400 0.668000 0.784590 -0.515752
O8    O     O_2   0.441405 0.532020 0.585270 -0.376736
O9    O     O_R   0.411124 0.567120 0.662648 -0.705389
O10   O     O_2   0.422358 0.566413 0.368427 -0.451852
O11   O     O_R   0.377322 0.516135 0.329685 -0.708235
O12   O     O_2   0.441429 0.467974 0.414735 -0.376733
O13   O     O_R   0.534620 0.168000 0.284640 -0.538859
O14   O     O_R   0.411139 0.432873 0.337360 -0.705389
O15   O     O_2   0.422343 0.433580 0.631586 -0.451883
O16   O     O_R   0.377312 0.483857 0.670331 -0.708241
O17   O     O_2   0.457517 0.031945 0.080136 -0.387356
O18   O     O_R   0.419964 0.067118 0.154155 -0.704647
O19   O     O_2   0.392484 0.032044 0.886819 -0.400831
O20   O     O_R   0.388258 0.067103 0.803813 -0.706058
O21   O     O_2   0.389266 0.933631 0.837312 -0.456051
O22   O     O_R   0.358734 0.983755 0.785980 -0.708497
O23   O     O_2   0.435350 0.933729 0.122995 -0.454468
O24   O     O_R   0.534620 0.168000 0.715360 -0.542592
O25   O     O_R   0.386001 0.983425 0.158259 -0.705384
O26   O     O_2   0.941388 0.532020 0.085277 -0.376743
O27   O     O_R   0.911115 0.567120 0.162658 -0.705393
O28   O     O_2   0.922325 0.566413 0.868402 -0.451856
O29   O     O_R   0.877301 0.516133 0.829652 -0.708234
O30   O     O_2   0.941388 0.467974 0.914719 -0.376752
O31   O     O_R   0.911117 0.432873 0.837336 -0.705386
O32   O     O_2   0.922329 0.433580 0.131598 -0.451878
O33   O     O_R   0.877303 0.483857 0.170345 -0.708240
O34   O     O_2   0.942182 0.032011 0.584970 -0.376615
O35   O     O_R   0.534620 0.332000 0.215360 -0.540067
O36   O     O_R   0.911566 0.067116 0.662209 -0.706289
O37   O     O_2   0.922352 0.066409 0.368445 -0.451736
O38   O     O_R   0.877314 0.016135 0.329688 -0.707539
O39   O     O_2   0.941410 0.967967 0.414736 -0.376774
O40   O     O_R   0.911124 0.932870 0.337354 -0.704952
O41   O     O_2   0.922967 0.933582 0.631148 -0.452461
O42   O     O_R   0.877738 0.983836 0.669739 -0.709848
O43   O     O_2   0.592894 0.554595 0.663971 -0.543005
O44   O     O_R   0.562484 0.527353 0.579445 -0.604231
O45   O     O_2   0.578299 0.558357 0.351717 -0.539830
O46   O     O_R   0.534620 0.332000 0.784640 -0.539810
O47   O     O_R   0.521725 0.540994 0.429882 -0.544664
O48   O     O_2   0.592908 0.445410 0.336016 -0.543040
O49   O     O_R   0.562508 0.472648 0.420547 -0.604263
O50   O     O_2   0.578287 0.441646 0.648274 -0.539816
O51   O     O_R   0.521699 0.459005 0.570117 -0.544660
O52   O     O_2   0.600942 0.054592 0.173467 -0.540869
O53   O     O_R   0.578466 0.028099 0.085899 -0.626538
O54   O     O_2   0.561203 0.054608 0.860245 -0.542191
O55   O     O_R   0.505414 0.027590 0.930845 -0.573611
O56   O     O_2   0.542547 0.941734 0.870490 -0.536001
O57   O     O_R   0.534620 0.668000 0.784640 -0.540044
O58   O     O_R   0.464262 0.959146 0.926829 -0.551826
O59   O     O_2   0.588330 0.941695 0.156567 -0.534903
O60   O     O_R   0.540590 0.959516 0.072974 -0.591602
O61   O     O_2   0.092885 0.554595 0.163963 -0.542986
O62   O     O_R   0.062467 0.527351 0.079440 -0.604243
O63   O     O_2   0.078272 0.558357 0.851736 -0.539780
O64   O     O_R   0.021675 0.540995 0.929886 -0.544654
O65   O     O_2   0.092886 0.445410 0.836038 -0.543060
O66   O     O_R   0.062466 0.472650 0.920560 -0.604249
O67   O     O_2   0.078276 0.441646 0.148268 -0.539839
O68   O     O_R   0.534620 0.668000 0.215360 -0.539972
O69   O     O_R   0.021679 0.459003 0.070116 -0.544667
O70   O     O_2   0.093336 0.054594 0.664338 -0.540639
O71   O     O_R   0.063276 0.027376 0.579665 -0.604555
O72   O     O_2   0.078287 0.058354 0.351746 -0.539776
O73   O     O_R   0.021717 0.040973 0.429904 -0.544505
O74   O     O_2   0.092897 0.945405 0.336020 -0.543081
O75   O     O_R   0.062489 0.972631 0.420558 -0.603669
O76   O     O_2   0.078821 0.941646 0.648606 -0.538997
O77   O     O_R   0.022614 0.959011 0.570179 -0.544789
O78   O     O_R   0.034620 0.832000 0.215360 -0.539807
O79   O     O_R   0.034620 0.832000 0.784640 -0.538748
O80   O     O_R   0.034620 0.168000 0.784640 -0.539736
O81   O     O_3   0.499990 0.750000 0.250000 -0.455578
O82   O     O_R   0.034620 0.168000 0.215360 -0.539927
O83   O     O_R   0.034620 0.332000 0.715360 -0.540096
O84   O     O_R   0.034620 0.332000 0.284640 -0.539955
O85   O     O_R   0.034620 0.668000 0.284640 -0.540055
O86   O     O_R   0.034620 0.668000 0.715360 -0.539956
O87   O     O_R   0.465390 0.771500 0.882020 -0.522582
O88   O     O_R   0.465390 0.771500 0.117980 -0.522155
O89   O     O_R   0.465390 0.228500 0.117980 -0.526681
O90   O     O_R   0.465390 0.228500 0.882020 -0.526430
O91   O     O_R   0.465390 0.271500 0.382020 -0.525672
O92   O     O_3   0.499990 0.250000 0.250000 -0.453637
O93   O     O_R   0.465390 0.271500 0.617980 -0.522725
O94   O     O_R   0.465390 0.728500 0.617980 -0.525596
O95   O     O_R   0.465390 0.728500 0.382020 -0.522988
O96   O     O_R   0.965390 0.771500 0.382020 -0.525711
O97   O     O_R   0.965390 0.771500 0.617980 -0.522942
O98   O     O_R   0.965390 0.228500 0.617980 -0.525648
O99   O     O_R   0.965390 0.228500 0.382020 -0.522972
O100  O     O_R   0.965390 0.271500 0.882020 -0.525716
O101  O     O_R   0.965390 0.271500 0.117980 -0.522957
O102  O     O_R   0.965390 0.728500 0.117980 -0.525812
O103  O     O_3   0.499990 0.250000 0.750000 -0.454467
O104  O     O_R   0.965390 0.728500 0.882020 -0.523255
O105  O     O_R   0.367970 0.771500 0.784600 -0.527789
O106  O     O_R   0.367970 0.771500 0.215400 -0.530952
O107  O     O_R   0.367970 0.228500 0.215400 -0.531585
O108  O     O_R   0.367970 0.228500 0.784600 -0.531292
O109  O     O_R   0.367970 0.271500 0.284600 -0.531095
O110  O     O_R   0.367970 0.271500 0.715400 -0.530413
O111  O     O_R   0.367970 0.728500 0.715400 -0.532298
O112  O     O_R   0.367970 0.728500 0.284600 -0.530917
O113  O     O_R   0.867970 0.771500 0.284600 -0.531090
O114  O     O_3   0.999990 0.750000 0.250000 -0.453919
O115  O     O_R   0.867970 0.771500 0.715400 -0.531491
O116  O     O_R   0.867970 0.228500 0.715400 -0.531648
O117  O     O_R   0.867970 0.228500 0.284600 -0.530758
O118  O     O_R   0.867970 0.271500 0.784600 -0.531170
O119  O     O_R   0.867970 0.271500 0.215400 -0.530965
O120  O     O_R   0.867970 0.728500 0.215400 -0.531308
O121  O     O_R   0.867970 0.728500 0.784600 -0.530762
O122  O     O_R   0.632030 0.771500 0.715390 -0.529939
O123  O     O_R   0.632030 0.771500 0.284610 -0.528538
O124  O     O_R   0.632030 0.228500 0.284610 -0.528360
O125  O     O_3   0.999990 0.750000 0.750000 -0.455722
O126  O     O_R   0.632030 0.228500 0.715390 -0.529873
O127  O     O_R   0.632030 0.271500 0.215390 -0.528830
O128  O     O_R   0.632030 0.271500 0.784610 -0.528787
O129  O     O_R   0.632030 0.728500 0.784610 -0.528464
O130  O     O_R   0.632030 0.728500 0.215390 -0.528963
O131  O     O_R   0.132030 0.771500 0.215390 -0.528435
O132  O     O_R   0.132030 0.771500 0.784610 -0.527301
O133  O     O_R   0.132030 0.228500 0.784610 -0.528873
O134  O     O_R   0.132030 0.228500 0.215390 -0.528994
O135  O     O_R   0.132030 0.271500 0.715390 -0.528573
O136  O     O_3   0.999990 0.250000 0.750000 -0.453674
O137  O     O_R   0.132030 0.271500 0.284610 -0.528833
O138  O     O_R   0.132030 0.728500 0.284610 -0.528785
O139  O     O_R   0.132030 0.728500 0.715390 -0.529390
O140  O     O_R   0.534610 0.728510 0.882040 -0.535347
O141  O     O_R   0.534610 0.728510 0.117960 -0.535418
O142  O     O_R   0.534610 0.271490 0.117960 -0.533972
O143  O     O_R   0.534610 0.271490 0.882040 -0.534581
O144  O     O_R   0.534610 0.228510 0.382040 -0.534346
O145  O     O_R   0.534610 0.228510 0.617960 -0.534633
O146  O     O_R   0.534610 0.771490 0.617960 -0.534294
O147  O     O_3   0.999990 0.250000 0.250000 -0.455508
O148  O     O_R   0.534610 0.771490 0.382040 -0.535316
O149  O     O_R   0.034610 0.728510 0.382040 -0.534352
O150  O     O_R   0.034610 0.728510 0.617960 -0.535149
O151  O     O_R   0.034610 0.271490 0.617960 -0.534234
O152  O     O_R   0.034610 0.271490 0.382040 -0.535182
O153  O     O_R   0.034610 0.228510 0.882040 -0.534505
O154  O     O_R   0.034610 0.228510 0.117960 -0.535251
O155  O     O_R   0.034610 0.771490 0.117960 -0.533826
O156  O     O_R   0.034610 0.771490 0.882040 -0.534517
O157  O     O_R   0.465400 0.832000 0.784590 -0.511466
O158  O     O_R   0.534620 0.832000 0.715360 -0.543016
O159  O     O_R   0.465400 0.832000 0.215410 -0.517270
O160  O     O_R   0.465400 0.168000 0.215410 -0.519858
O161  O     O_R   0.465400 0.168000 0.784590 -0.517019
O162  O     O_R   0.465400 0.332000 0.284590 -0.518655
O163  O     O_R   0.465400 0.332000 0.715410 -0.515866
O164  O     O_R   0.465400 0.668000 0.715410 -0.518715
O165  O     O_R   0.465400 0.668000 0.284590 -0.515787
O166  O     O_R   0.965400 0.832000 0.284590 -0.518614
O167  O     O_R   0.965400 0.832000 0.715410 -0.516593
O168  O     O_R   0.965400 0.168000 0.715410 -0.519013
Zn1   Zn    Zn3+2 0.549450 0.719300 0.799470 0.963914
Zn2   Zn    Zn3+2 0.049450 0.719300 0.700530 0.964231
Zn3   Zn    Zn3+2 0.049450 0.280700 0.700530 0.964829
Zn4   Zn    Zn3+2 0.049450 0.280700 0.299470 0.964228
Zn5   Zn    Zn3+2 0.049450 0.219300 0.799470 0.964522
Zn6   Zn    Zn3+2 0.049450 0.219300 0.200530 0.964133
Zn7   Zn    Zn3+2 0.049450 0.780700 0.200530 0.965448
Zn8   Zn    Zn3+2 0.049450 0.780700 0.799470 0.966581
Zn9   Zn    Zn3+2 0.450550 0.780720 0.799450 0.984952
Zn10  Zn    Zn3+2 0.450550 0.780720 0.200550 0.979923
Zn11  Zn    Zn3+2 0.450550 0.219280 0.200550 0.973082
Zn12  Zn    Zn3+2 0.549450 0.719300 0.200530 0.964342
Zn13  Zn    Zn3+2 0.450550 0.219280 0.799450 0.975064
Zn14  Zn    Zn3+2 0.450550 0.280720 0.299450 0.974775
Zn15  Zn    Zn3+2 0.450550 0.280720 0.700550 0.981213
Zn16  Zn    Zn3+2 0.450550 0.719280 0.700550 0.974411
Zn17  Zn    Zn3+2 0.450550 0.719280 0.299450 0.979913
Zn18  Zn    Zn3+2 0.950550 0.780720 0.299450 0.974921
Zn19  Zn    Zn3+2 0.950550 0.780720 0.700550 0.979055
Zn20  Zn    Zn3+2 0.950550 0.219280 0.700550 0.974248
Zn21  Zn    Zn3+2 0.950550 0.219280 0.299450 0.980199
Zn22  Zn    Zn3+2 0.950550 0.280720 0.799450 0.974538
Zn23  Zn    Zn3+2 0.549450 0.280700 0.200530 0.964648
Zn24  Zn    Zn3+2 0.950550 0.280720 0.200550 0.979940
Zn25  Zn    Zn3+2 0.950550 0.719280 0.200550 0.974748
Zn26  Zn    Zn3+2 0.950550 0.719280 0.799450 0.979751
Zn27  Zn    Zn3+2 0.549450 0.280700 0.799470 0.963789
Zn28  Zn    Zn3+2 0.549450 0.219300 0.299470 0.965403
Zn29  Zn    Zn3+2 0.549450 0.219300 0.700530 0.962921
Zn30  Zn    Zn3+2 0.549450 0.780700 0.700530 0.962005
Zn31  Zn    Zn3+2 0.549450 0.780700 0.299470 0.965044
Zn32  Zn    Zn3+2 0.049450 0.719300 0.299470 0.964553

loop_
_geom_bond_atom_site_label_1
_geom_bond_atom_site_label_2
_ccdc_geom_bond_type
C38   H48   S    
C33   C208  S    
C96   O26   D    
O144  Zn28  S    
O116  Zn20  S    
C195  O146  A    
C44   C128  S    
O154  Zn6   S    
C138  H41   S    
C130  C140  S    
C142  H19   S    
C175  C177  T    
C147  H32   S    
C180  C181  T    
O92   Zn14  S    
C111  O56   D    
C54   C107  S    
O158  Zn30  S    
C92   O17   D    
C63   C98   S    
C125  C146  S    
C36   H7    S    
C104  O41   D    
C110  O55   S    
C122  O76   D    
C140  H39   S    
C35   O83   A    
C64   C118  S    
C145  H35   S    
C7    O119  A    
C182  C183  T    
O88   Zn10  S    
C84   C154  S    
O125  Zn26  S    
O136  Zn3   S    
O113  Zn18  S    
C112  O159  A    
C94   O22   S    
C41   H51   S    
C61   C115  S    
C59   C111  S    
H94   O73   S    
O157  Zn9   S    
C154  O35   A    
O87   Zn9   S    
O130  Zn12  S    
H93   O71   S    
C122  O77   S    
C68   O86   A    
C140  H21   S    
C196  O148  A    
O156  Zn8   S    
O166  Zn18  S    
O147  Zn4   S    
O99   Zn21  S    
C124  C147  S    
O35   Zn23  S    
C11   C20   S    
O134  Zn6   S    
C56   C123  S    
C41   C125  S    
O147  Zn24  S    
O82   Zn6   S    
C171  C195  S    
C50   C134  S    
C43   C127  S    
C35   O4    A    
C178  C189  S    
C40   H50   S    
C45   H56   S    
C145  H17   S    
O92   Zn23  S    
C85   C169  T    
C7    C28   S    
O81   Zn17  S    
C105  O43   D    
H86   O58   S    
C89   O14   S    
C6    O118  A    
C80   C163  T    
O104  Zn26  S    
C84   C168  T    
C108  O51   S    
C24   O82   A    
C83   C165  S    
C91   O16   S    
C51   H1    S    
C134  C155  S    
C99   O32   D    
C117  O66   S    
C67   C134  S    
C61   C127  S    
C207  O106  A    
C208  O109  A    
C31   C206  S    
O119  Zn24  S    
C109  O52   D    
C13   C73   S    
C174  C194  S    
H76   O38   S    
O168  Zn20  S    
C172  C196  S    
O141  Zn12  S    
O2    Zn31  S    
C37   H6    S    
C145  C148  S    
C95   O23   D    
C146  C147  S    
C16   C25   S    
C49   C133  S    
C58   C110  S    
C195  O94   A    
C203  O154  A    
C176  O57   A    
C15   O135  A    
C42   H89   S    
O93   Zn15  S    
C1    O157  A    
O117  Zn21  S    
C8    C17   S    
H69   O22   S    
O143  Zn27  S    
O95   Zn17  S    
C138  H24   S    
C7    O117  A    
H91   O66   S    
C23   C32   T    
C201  O99   A    
C30   C207  S    
C144  H36   S    
C202  O100  A    
C119  O70   D    
C45   H55   S    
C42   C126  S    
C201  O152  A    
O123  Zn31  S    
C165  O163  A    
H70   O25   S    
C43   C47   S    
O125  Zn19  S    
O126  Zn29  S    
H75   O36   S    
C114  O59   D    
C72   C156  T    
C115  O62   S    
C54   C101  S    
C60   C114  S    
O121  Zn26  S    
C12   O138  A    
C137  H42   S    
C61   C96   S    
C67   C103  S    
C53   C54   S    
C197  O149  A    
C40   H3    S    
C121  O74   D    
O68   Zn12  S    
C79   C170  S    
O105  Zn9   S    
C36   C37   S    
C6    O116  A    
C132  O160  A    
H65   O16   S    
O164  Zn16  S    
O127  Zn23  S    
C73   C157  T    
O101  Zn24  S    
C184  C185  T    
O83   Zn3   S    
C207  O112  A    
H77   O40   S    
C42   H52   S    
H96   O77   S    
H95   O75   S    
O108  Zn13  S    
C64   C99   S    
C184  C200  S    
C136  H26   S    
O81   Zn10  S    
C150  H11   S    
C186  C197  S    
C52   C79   S    
C102  O37   D    
O1    Zn30  S    
C47   H57   S    
O13   Zn28  S    
C66   C67   S    
C118  O69   S    
C87   O9    S    
C143  O24   A    
C129  C159  S    
H64   O14   S    
H83   O51   S    
C15   O133  A    
O136  Zn22  S    
C126  C145  S    
O109  Zn14  S    
C189  O140  A    
C40   C124  S    
C106  O45   D    
C194  O145  A    
O167  Zn19  S    
C48   H34   S    
C5    O121  A    
H88   O62   S    
C83   C167  T    
C88   O11   S    
C36   H46   S    
O1    Zn1   S    
C101  C168  S    
C60   C95   S    
C34   C79   S    
C62   C97   S    
C146  H16   S    
C116  O64   S    
O94   Zn16  S    
H79   O42   S    
C152  H9    S    
C44   H67   S    
O3    Zn21  S    
O161  Zn13  S    
O114  Zn25  S    
C19   C28   T    
C93   O19   D    
C108  O50   D    
O128  Zn27  S    
C41   H2    S    
C13   O168  A    
C64   C130  S    
C52   C105  S    
O57   Zn1   S    
C81   C164  T    
C16   O134  A    
C48   C131  S    
C5    O115  A    
C56   C109  S    
C4    C27   S    
C24   C72   S    
C71   C198  S    
O81   Zn31  S    
C36   C90   S    
H62   O9    S    
O92   Zn11  S    
C113  C149  S    
C86   C170  T    
C13   O80   A    
C103  O40   S    
H68   O20   S    
O90   Zn13  S    
O142  Zn23  S    
O129  Zn1   S    
C3    O110  A    
C193  O144  A    
C68   C76   S    
C154  O162  A    
O149  Zn32  S    
C55   C108  S    
C16   O137  A    
C14   C22   S    
C24   O3    A    
C51   H61   S    
C34   H8    S    
C37   C101  S    
C104  O42   S    
H80   O44   S    
C69   C122  S    
O81   Zn12  S    
C39   H4    S    
O91   Zn14  S    
C131  C139  S    
O103  Zn27  S    
C4    O120  A    
C9    C18   S    
C111  O58   S    
C123  C148  S    
C196  O95   A    
C69   C135  S    
C49   C50   S    
O146  Zn30  S    
C119  O71   S    
C150  C151  S    
O122  Zn30  S    
C10   O124  A    
C25   C33   T    
C79   C152  S    
C85   C187  S    
C45   C129  S    
O7    Zn26  S    
C70   C153  T    
O153  Zn5   S    
C134  C137  S    
O138  Zn32  S    
C135  C136  S    
O140  Zn1   S    
C191  O89   A    
O100  Zn22  S    
C114  O60   S    
C58   C93   S    
O160  Zn11  S    
C44   H54   S    
C63   C117  S    
C9    O123  A    
C129  C141  S    
C198  O166  A    
C101  C150  S    
C39   C123  S    
C185  C201  S    
C131  C157  S    
C150  H29   S    
C55   C91   S    
C97   O29   S    
C123  C166  S    
C91   O15   D    
O102  Zn25  S    
O103  Zn15  S    
C117  O65   D    
C59   C94   S    
C52   C55   S    
C43   H78   S    
C141  H20   S    
C133  C138  S    
C177  C192  S    
H73   O31   S    
O150  Zn2   S    
C136  C139  S    
O165  Zn17  S    
C139  H40   S    
C8    O129  A    
O5    Zn24  S    
C3    O108  A    
C199  O97   A    
C100  O36   S    
C178  C179  T    
C39   C42   S    
C92   O18   S    
C77   C161  T    
O136  Zn5   S    
C98   O31   S    
C50   H60   S    
C74   C158  T    
O133  Zn5   S    
C205  O156  A    
C57   C77   S    
C12   O131  A    
C189  O87   A    
C199  O150  A    
C43   H53   S    
C38   C113  S    
C106  O47   S    
C110  O54   D    
C58   C59   S    
C56   C60   S    
C187  O68   A    
O92   Zn28  S    
C61   C64   S    
C187  O165  A    
C206  O105  A    
C62   C63   S    
C95   O25   S    
C191  O142  A    
C48   H58   S    
C10   C19   S    
C142  H37   S    
C71   C155  T    
C88   O10   D    
C149  H30   S    
C65   C119  S    
C143  O161  A    
C200  O151  A    
C11   O128  A    
C208  O107  A    
H74   O33   S    
C173  C193  S    
O152  Zn4   S    
C59   C125  S    
C38   H5    S    
O1    Zn9   S    
C147  H15   S    
C44   C45   S    
C82   C166  T    
C100  O34   D    
C87   O8    D    
C98   O30   D    
O135  Zn3   S    
C120  O72   D    
C182  C202  S    
O147  Zn21  S    
C140  C144  S    
C65   C100  S    
C90   C151  S    
C180  C204  S    
O110  Zn15  S    
C113  C167  S    
O118  Zn22  S    
C21   C30   T    
O96   Zn18  S    
C130  C158  S    
C105  O44   S    
C2    O79   A    
O1    Zn16  S    
C206  O111  A    
O89   Zn11  S    
C192  O90   A    
C197  O96   A    
C57   O85   A    
O103  Zn13  S    
C109  O53   S    
C65   C69   S    
C50   H12   S    
O132  Zn8   S    
C127  C144  S    
C63   C129  S    
C3    C32   S    
H81   O47   S    
C9    O130  A    
O85   Zn32  S    
C5    C26   S    
H72   O29   S    
C6    C29   S    
C96   O27   S    
O131  Zn7   S    
C53   C90   S    
C1    C80   S    
C78   C112  S    
C2    C70   S    
O125  Zn8   S    
C102  O38   S    
C176  O164  A    
C124  C164  S    
O139  Zn2   S    
C171  C172  T    
O137  Zn4   S    
C148  H31   S    
C66   C102  S    
C152  H27   S    
C173  C174  T    
C1    O158  A    
O107  Zn11  S    
O163  Zn15  S    
O106  Zn10  S    
C17   C26   T    
H92   O69   S    
C205  O104  A    
C57   O6    A    
C165  O46   A    
C47   H45   S    
C190  O141  A    
C175  C191  S    
O98   Zn20  S    
H82   O49   S    
C120  O73   S    
C90   C169  S    
C10   O127  A    
C115  O61   D    
C148  H14   S    
O136  Zn20  S    
C11   O126  A    
H90   O64   S    
C39   H49   S    
C51   C135  S    
C48   C51   S    
C37   H47   S    
C136  H43   S    
C67   C121  S    
C139  H22   S    
O4    Zn22  S    
C94   O21   D    
C15   C23   S    
C53   C106  S    
C127  C161  S    
C66   C120  S    
C192  O143  A    
C14   O139  A    
C144  H18   S    
C125  C163  S    
C149  H13   S    
C46   O5    A    
C65   C131  S    
C20   C29   T    
C49   H59   S    
C121  O75   S    
C22   C31   T    
C47   C130  S    
O6    Zn25  S    
C103  O39   D    
O151  Zn3   S    
C54   C89   S    
C107  O48   D    
C99   O33   S    
C149  C152  S    
H85   O55   S    
C4    O113  A    
C82   C132  S    
C55   C113  S    
C188  C199  S    
O86   Zn2   S    
C12   C21   S    
C14   O132  A    
H84   O53   S    
O84   Zn4   S    
O24   Zn29  S    
C49   H23   S    
C181  C205  S    
O46   Zn27  S    
C62   C116  S    
C202  O153  A    
C66   C133  S    
O159  Zn10  S    
O120  Zn25  S    
C56   C92   S    
C198  O78   A    
C141  H38   S    
O162  Zn14  S    
C151  H10   S    
O155  Zn7   S    
C68   O7    A    
O114  Zn7   S    
O125  Zn2   S    
O79   Zn8   S    
C203  O101  A    
C200  O98   A    
C107  O49   S    
C40   C41   S    
C78   C162  T    
O112  Zn17  S    
O97   Zn19  S    
O148  Zn31  S    
C46   O84   A    
C137  H25   S    
C193  O91   A    
C133  C156  S    
C46   C74   S    
C128  C160  S    
C69   C104  S    
C75   C159  T    
C76   C160  T    
O78   Zn7   S    
C34   C38   S    
H63   O11   S    
C132  O13   A    
C52   C87   S    
C18   C27   T    
C35   C75   S    
H71   O27   S    
O80   Zn5   S    
O103  Zn29  S    
O147  Zn6   S    
C204  O102  A    
H66   O18   S    
C137  C138  S    
C58   C124  S    
C135  C153  S    
C183  C203  S    
O111  Zn16  S    
C60   C126  S    
C204  O155  A    
C2    O167  A    
C194  O93   A    
C141  C142  S    
C62   C128  S    
C116  O63   D    
C179  C190  S    
C128  C142  S    
C151  H28   S    
C146  H33   S    
C8    O122  A    
C53   C88   S    
C86   C176  S    
O114  Zn32  S    
C89   O12   D    
C93   O20   S    
O115  Zn19  S    
C97   O28   D    
O114  Zn18  S    
C81   C143  S    
H87   O60   S    
O124  Zn28  S    
C112  O2    A    
C190  O88   A    
O145  Zn29  S    
C34   H44   S    
C118  O67   D    
C126  C162  S    
C186  C188  T    
