data_mof_unit_64137.cif
_audit_creation_date              2012-12-10T16:52:51-0500
_audit_creation_method            fapswitch 2.2
_symmetry_space_group_name_H-M    P1
_symmetry_Int_Tables_number       1
_space_group_crystal_system       tetragonal
_cell_length_a                    60.728605
_cell_length_b                    60.728605
_cell_length_c                    60.728599
_cell_angle_alpha                 90.0
_cell_angle_beta                  90.0
_cell_angle_gamma                 90.0
_cell_volume                      223964.854408

loop_
_atom_site_label
_atom_site_type_symbol
_atom_type_description
_atom_site_fract_x
_atom_site_fract_y
_atom_site_fract_z
_atom_type_partial_charge
C1    C     C_R   0.271198 0.728801 0.529737 0.808293
C2    C     C_R   0.728801 0.728801 0.529737 0.808293
C3    C     C_R   0.668353 0.139789 0.831647 -0.076620
C4    C     C_R   0.196799 0.696799 0.915112 0.106608
C5    C     C_R   0.303201 0.803201 0.915112 0.106608
C6    C     C_R   0.696799 0.196799 0.084888 0.106608
C7    C     C_R   0.803201 0.696799 0.915112 0.106608
C8    C     C_R   0.196799 0.303201 0.084888 0.106608
C9    C     C_R   0.696799 0.196799 0.915112 0.106608
C10   C     C_R   0.303201 0.803201 0.084888 0.106608
C11   C     C_R   0.196799 0.303201 0.915112 0.106608
C12   C     C_R   0.803201 0.696799 0.084888 0.106608
C13   C     C_R   0.696799 0.415112 0.696799 0.106607
C14   C     C_R   0.831647 0.860211 0.331647 -0.076619
C15   C     C_R   0.303201 0.584888 0.303201 0.106607
C16   C     C_R   0.303201 0.415112 0.696799 0.106607
C17   C     C_R   0.696799 0.584888 0.303201 0.106607
C18   C     C_R   0.303201 0.415112 0.303201 0.106607
C19   C     C_R   0.696799 0.584888 0.696799 0.106607
C20   C     C_R   0.696799 0.415112 0.303201 0.106607
C21   C     C_R   0.303201 0.584888 0.696799 0.106607
C22   C     C_R   0.584888 0.303201 0.696799 0.106607
C23   C     C_R   0.415112 0.696799 0.303201 0.106607
C24   C     C_R   0.584888 0.303201 0.303201 0.106607
C25   C     C_R   0.168353 0.139789 0.668353 -0.076619
C26   C     C_R   0.415112 0.696799 0.696799 0.106607
C27   C     C_R   0.584888 0.696799 0.303201 0.106607
C28   C     C_R   0.415112 0.303201 0.696799 0.106607
C29   C     C_R   0.584888 0.696799 0.696799 0.106607
C30   C     C_R   0.415112 0.303201 0.303201 0.106607
C31   C     C_R   0.696799 0.303201 0.584888 0.106608
C32   C     C_R   0.303201 0.696799 0.415112 0.106608
C33   C     C_R   0.696799 0.696799 0.584888 0.106608
C34   C     C_R   0.303201 0.303201 0.415112 0.106608
C35   C     C_R   0.303201 0.696799 0.584888 0.106608
C36   C     C_R   0.668353 0.860211 0.831647 -0.076620
C37   C     C_R   0.696799 0.303201 0.415112 0.106608
C38   C     C_R   0.303201 0.303201 0.584888 0.106608
C39   C     C_R   0.696799 0.696799 0.415112 0.106608
C40   C     C_R   0.196799 0.415112 0.196799 0.106607
C41   C     C_R   0.803201 0.584888 0.803201 0.106607
C42   C     C_R   0.803201 0.415112 0.196799 0.106607
C43   C     C_R   0.196799 0.584888 0.803201 0.106607
C44   C     C_R   0.803201 0.415112 0.803201 0.106607
C45   C     C_R   0.196799 0.584888 0.196799 0.106607
C46   C     C_R   0.196799 0.415112 0.803201 0.106607
C47   C     C_R   0.331647 0.139789 0.168353 -0.076620
C48   C     C_R   0.803201 0.584888 0.196799 0.106607
C49   C     C_R   0.584888 0.803201 0.196799 0.106607
C50   C     C_R   0.415112 0.196799 0.803201 0.106607
C51   C     C_R   0.584888 0.803201 0.803201 0.106607
C52   C     C_R   0.415112 0.196799 0.196799 0.106607
C53   C     C_R   0.584888 0.196799 0.803201 0.106607
C54   C     C_R   0.415112 0.803201 0.196799 0.106607
C55   C     C_R   0.584888 0.196799 0.196799 0.106607
C56   C     C_R   0.415112 0.803201 0.803201 0.106607
C57   C     C_R   0.196799 0.803201 0.584888 0.106608
C58   C     C_R   0.168353 0.139789 0.331647 -0.076620
C59   C     C_R   0.803201 0.196799 0.415112 0.106608
C60   C     C_R   0.196799 0.196799 0.584888 0.106608
C61   C     C_R   0.803201 0.803201 0.415112 0.106608
C62   C     C_R   0.803201 0.196799 0.584888 0.106608
C63   C     C_R   0.196799 0.803201 0.415112 0.106608
C64   C     C_R   0.803201 0.803201 0.584888 0.106608
C65   C     C_R   0.196799 0.196799 0.415112 0.106608
C66   C     C_R   0.831647 0.860211 0.668353 -0.076620
C67   C     C_R   0.331647 0.139789 0.831647 -0.076619
C68   C     C_R   0.668353 0.860211 0.168353 -0.076619
C69   C     C_R   0.831647 0.139789 0.668353 -0.076620
C70   C     C_R   0.470263 0.271198 0.728801 0.808294
C71   C     C_R   0.168353 0.860211 0.331647 -0.076620
C72   C     C_R   0.668353 0.139789 0.168353 -0.076619
C73   C     C_R   0.331647 0.860211 0.831647 -0.076619
C74   C     C_R   0.139789 0.331647 0.168353 -0.076620
C75   C     C_R   0.860211 0.668353 0.831647 -0.076620
C76   C     C_R   0.139789 0.831647 0.331647 -0.076619
C77   C     C_R   0.860211 0.168353 0.668353 -0.076619
C78   C     C_R   0.139789 0.668353 0.831647 -0.076620
C79   C     C_R   0.860211 0.331647 0.168353 -0.076620
C80   C     C_R   0.139789 0.168353 0.668353 -0.076619
C81   C     C_R   0.529737 0.728801 0.271198 0.808293
C82   C     C_R   0.860211 0.831647 0.331647 -0.076619
C83   C     C_R   0.860211 0.668353 0.168353 -0.076619
C84   C     C_R   0.139789 0.331647 0.831647 -0.076619
C85   C     C_R   0.860211 0.168353 0.331647 -0.076620
C86   C     C_R   0.139789 0.831647 0.668353 -0.076620
C87   C     C_R   0.860211 0.331647 0.831647 -0.076619
C88   C     C_R   0.139789 0.668353 0.168353 -0.076619
C89   C     C_R   0.860211 0.831647 0.668353 -0.076620
C90   C     C_R   0.139789 0.168353 0.331647 -0.076620
C91   C     C_R   0.668353 0.831647 0.139789 -0.076620
C92   C     C_R   0.728801 0.271198 0.529737 0.808293
C93   C     C_R   0.331647 0.168353 0.860211 -0.076620
C94   C     C_R   0.168353 0.668353 0.139789 -0.076620
C95   C     C_R   0.831647 0.331647 0.860211 -0.076620
C96   C     C_R   0.331647 0.168353 0.139789 -0.076620
C97   C     C_R   0.668353 0.831647 0.860211 -0.076620
C98   C     C_R   0.831647 0.331647 0.139789 -0.076619
C99   C     C_R   0.168353 0.668353 0.860211 -0.076619
C100  C     C_R   0.331647 0.831647 0.860211 -0.076620
C101  C     C_R   0.668353 0.168353 0.139789 -0.076620
C102  C     C_R   0.831647 0.668353 0.860211 -0.076620
C103  C     C_R   0.271198 0.728801 0.470263 0.808294
C104  C     C_R   0.168353 0.331647 0.139789 -0.076620
C105  C     C_R   0.668353 0.168353 0.860211 -0.076619
C106  C     C_R   0.331647 0.831647 0.139789 -0.076619
C107  C     C_R   0.168353 0.331647 0.860211 -0.076620
C108  C     C_R   0.831647 0.668353 0.139789 -0.076620
C109  C     C_R   0.668353 0.360211 0.668353 -0.076619
C110  C     C_R   0.331647 0.639789 0.331647 -0.076619
C111  C     C_R   0.331647 0.360211 0.668353 -0.076620
C112  C     C_R   0.668353 0.639789 0.331647 -0.076620
C113  C     C_R   0.331647 0.360211 0.331647 -0.076619
C114  C     C_R   0.529737 0.271198 0.271198 0.808293
C115  C     C_R   0.668353 0.639789 0.668353 -0.076619
C116  C     C_R   0.668353 0.360211 0.331647 -0.076620
C117  C     C_R   0.331647 0.639789 0.668353 -0.076620
C118  C     C_R   0.639789 0.331647 0.668353 -0.076620
C119  C     C_R   0.360211 0.668353 0.331647 -0.076620
C120  C     C_R   0.639789 0.331647 0.331647 -0.076619
C121  C     C_R   0.360211 0.668353 0.668353 -0.076619
C122  C     C_R   0.639789 0.668353 0.331647 -0.076620
C123  C     C_R   0.360211 0.331647 0.668353 -0.076620
C124  C     C_R   0.639789 0.668353 0.668353 -0.076619
C125  C     C_R   0.470263 0.728801 0.728801 0.808294
C126  C     C_R   0.360211 0.331647 0.331647 -0.076619
C127  C     C_R   0.668353 0.331647 0.639789 -0.076620
C128  C     C_R   0.331647 0.668353 0.360211 -0.076620
C129  C     C_R   0.668353 0.668353 0.639789 -0.076620
C130  C     C_R   0.331647 0.331647 0.360211 -0.076620
C131  C     C_R   0.331647 0.668353 0.639789 -0.076620
C132  C     C_R   0.668353 0.331647 0.360211 -0.076620
C133  C     C_R   0.331647 0.331647 0.639789 -0.076619
C134  C     C_R   0.668353 0.668353 0.360211 -0.076619
C135  C     C_R   0.168353 0.360211 0.168353 -0.076619
C136  C     C_R   0.271198 0.470263 0.271198 0.808294
C137  C     C_R   0.831647 0.639789 0.831647 -0.076619
C138  C     C_R   0.831647 0.360211 0.168353 -0.076620
C139  C     C_R   0.168353 0.639789 0.831647 -0.076620
C140  C     C_R   0.831647 0.360211 0.831647 -0.076619
C141  C     C_R   0.168353 0.639789 0.168353 -0.076619
C142  C     C_R   0.168353 0.360211 0.831647 -0.076620
C143  C     C_R   0.831647 0.639789 0.168353 -0.076620
C144  C     C_R   0.639789 0.831647 0.168353 -0.076620
C145  C     C_R   0.360211 0.168353 0.831647 -0.076620
C146  C     C_R   0.639789 0.831647 0.831647 -0.076619
C147  C     C_R   0.728801 0.529737 0.728801 0.808293
C148  C     C_R   0.360211 0.168353 0.168353 -0.076619
C149  C     C_R   0.639789 0.168353 0.831647 -0.076620
C150  C     C_R   0.360211 0.831647 0.168353 -0.076620
C151  C     C_R   0.639789 0.168353 0.168353 -0.076619
C152  C     C_R   0.360211 0.831647 0.831647 -0.076619
C153  C     C_R   0.168353 0.831647 0.639789 -0.076620
C154  C     C_R   0.831647 0.168353 0.360211 -0.076620
C155  C     C_R   0.168353 0.168353 0.639789 -0.076620
C156  C     C_R   0.831647 0.831647 0.360211 -0.076620
C157  C     C_R   0.831647 0.168353 0.639789 -0.076620
C158  C     C_R   0.271198 0.529737 0.728801 0.808293
C159  C     C_R   0.168353 0.831647 0.360211 -0.076620
C160  C     C_R   0.831647 0.831647 0.639789 -0.076620
C161  C     C_R   0.168353 0.168353 0.360211 -0.076619
C162  C     C_R   0.149347 0.850653 0.677791 0.276215
C163  C     C_R   0.850653 0.149347 0.322209 0.276215
C164  C     C_R   0.322209 0.850653 0.149347 0.276215
C165  C     C_R   0.677791 0.149347 0.850653 0.276215
C166  C     C_R   0.850653 0.850653 0.322209 0.276216
C167  C     C_R   0.149347 0.149347 0.677791 0.276216
C168  C     C_R   0.677791 0.850653 0.850653 0.276216
C169  C     C_R   0.728801 0.271198 0.470263 0.808294
C170  C     C_R   0.728801 0.470263 0.271198 0.808294
C171  C     C_R   0.322209 0.149347 0.149347 0.276216
C172  C     C_R   0.149347 0.149347 0.322209 0.276216
C173  C     C_R   0.850653 0.850653 0.677791 0.276216
C174  C     C_R   0.322209 0.149347 0.850653 0.276215
C175  C     C_R   0.677791 0.850653 0.149347 0.276215
C176  C     C_R   0.850653 0.149347 0.677791 0.276215
C177  C     C_R   0.149347 0.850653 0.322209 0.276215
C178  C     C_R   0.677791 0.149347 0.149347 0.276215
C179  C     C_R   0.322209 0.850653 0.850653 0.276215
C180  C     C_R   0.149347 0.322209 0.149347 0.276216
C181  C     C_R   0.728801 0.529737 0.271198 0.808293
C182  C     C_R   0.850653 0.677791 0.850653 0.276216
C183  C     C_R   0.149347 0.677791 0.850653 0.276215
C184  C     C_R   0.850653 0.322209 0.149347 0.276215
C185  C     C_R   0.850653 0.677791 0.149347 0.276215
C186  C     C_R   0.149347 0.322209 0.850653 0.276215
C187  C     C_R   0.850653 0.322209 0.850653 0.276215
C188  C     C_R   0.149347 0.677791 0.149347 0.276215
C189  C     C_R   0.649347 0.350653 0.677791 0.276215
C190  C     C_R   0.350653 0.649347 0.322209 0.276215
C191  C     C_R   0.322209 0.350653 0.649347 0.276215
C192  C     C_R   0.271198 0.470263 0.728801 0.808294
C193  C     C_R   0.677791 0.649347 0.350653 0.276215
C194  C     C_R   0.350653 0.350653 0.322209 0.276216
C195  C     C_R   0.649347 0.649347 0.677791 0.276216
C196  C     C_R   0.677791 0.350653 0.350653 0.276216
C197  C     C_R   0.322209 0.649347 0.649347 0.276216
C198  C     C_R   0.649347 0.649347 0.322209 0.276216
C199  C     C_R   0.350653 0.350653 0.677791 0.276216
C200  C     C_R   0.322209 0.649347 0.350653 0.276215
C201  C     C_R   0.677791 0.350653 0.649347 0.276215
C202  C     C_R   0.350653 0.649347 0.677791 0.276215
C203  C     C_R   0.728801 0.470263 0.728801 0.808294
C204  C     C_R   0.649347 0.350653 0.322209 0.276215
C205  C     C_R   0.677791 0.649347 0.649347 0.276215
C206  C     C_R   0.322209 0.350653 0.350653 0.276215
C207  C     C_R   0.649347 0.322209 0.649347 0.276216
C208  C     C_R   0.350653 0.677791 0.350653 0.276216
C209  C     C_R   0.649347 0.677791 0.350653 0.276215
C210  C     C_R   0.350653 0.322209 0.649347 0.276215
C211  C     C_R   0.350653 0.677791 0.649347 0.276215
C212  C     C_R   0.649347 0.322209 0.350653 0.276215
C213  C     C_R   0.350653 0.322209 0.350653 0.276215
C214  C     C_R   0.271198 0.529737 0.271198 0.808293
C215  C     C_R   0.649347 0.677791 0.649347 0.276215
C216  C     C_R   0.649347 0.850653 0.177791 0.276215
C217  C     C_R   0.350653 0.149347 0.822209 0.276215
C218  C     C_R   0.822209 0.850653 0.649347 0.276215
C219  C     C_R   0.177791 0.149347 0.350653 0.276214
C220  C     C_R   0.350653 0.850653 0.822209 0.276216
C221  C     C_R   0.649347 0.149347 0.177791 0.276216
C222  C     C_R   0.177791 0.850653 0.350653 0.276216
C223  C     C_R   0.822209 0.149347 0.649347 0.276216
C224  C     C_R   0.649347 0.149347 0.822209 0.276216
C225  C     C_R   0.771198 0.228801 0.529737 0.808293
C226  C     C_R   0.350653 0.850653 0.177791 0.276216
C227  C     C_R   0.822209 0.149347 0.350653 0.276215
C228  C     C_R   0.177791 0.850653 0.649347 0.276215
C229  C     C_R   0.350653 0.149347 0.177791 0.276215
C230  C     C_R   0.649347 0.850653 0.822209 0.276215
C231  C     C_R   0.177791 0.149347 0.649347 0.276215
C232  C     C_R   0.822209 0.850653 0.350653 0.276215
C233  C     C_R   0.149347 0.822209 0.649347 0.276216
C234  C     C_R   0.850653 0.177791 0.350653 0.276216
C235  C     C_R   0.149347 0.350653 0.822209 0.276215
C236  C     C_R   0.228801 0.771198 0.470263 0.808294
C237  C     C_R   0.850653 0.649347 0.177791 0.276215
C238  C     C_R   0.149347 0.177791 0.350653 0.276214
C239  C     C_R   0.850653 0.822209 0.649347 0.276215
C240  C     C_R   0.149347 0.649347 0.177791 0.276216
C241  C     C_R   0.850653 0.350653 0.822209 0.276216
C242  C     C_R   0.850653 0.177791 0.649347 0.276215
C243  C     C_R   0.149347 0.822209 0.350653 0.276215
C244  C     C_R   0.850653 0.649347 0.822209 0.276215
C245  C     C_R   0.149347 0.350653 0.177791 0.276215
C246  C     C_R   0.850653 0.822209 0.350653 0.276215
C247  C     C_R   0.470263 0.228801 0.771198 0.808294
C248  C     C_R   0.149347 0.177791 0.649347 0.276215
C249  C     C_R   0.850653 0.350653 0.177791 0.276216
C250  C     C_R   0.149347 0.649347 0.822209 0.276216
C251  C     C_R   0.177791 0.350653 0.149347 0.276215
C252  C     C_R   0.822209 0.649347 0.850653 0.276215
C253  C     C_R   0.649347 0.177791 0.149347 0.276215
C254  C     C_R   0.350653 0.822209 0.850653 0.276215
C255  C     C_R   0.822209 0.649347 0.149347 0.276216
C256  C     C_R   0.177791 0.350653 0.850653 0.276216
C257  C     C_R   0.350653 0.822209 0.149347 0.276215
C258  C     C_R   0.529737 0.771198 0.228801 0.808293
C259  C     C_R   0.649347 0.177791 0.850653 0.276214
C260  C     C_R   0.822209 0.350653 0.850653 0.276215
C261  C     C_R   0.177791 0.649347 0.149347 0.276215
C262  C     C_R   0.350653 0.177791 0.850653 0.276216
C263  C     C_R   0.649347 0.822209 0.149347 0.276216
C264  C     C_R   0.177791 0.649347 0.850653 0.276214
C265  C     C_R   0.822209 0.350653 0.149347 0.276215
C266  C     C_R   0.649347 0.822209 0.850653 0.276215
C267  C     C_R   0.350653 0.177791 0.149347 0.276215
C268  C     C_1   0.186670 0.895890 0.686670 0.001005
C269  C     C_R   0.228801 0.228801 0.470263 0.808294
C270  C     C_1   0.813330 0.104110 0.313330 0.001005
C271  C     C_1   0.313330 0.895890 0.186670 0.001006
C272  C     C_1   0.686670 0.104110 0.813330 0.001006
C273  C     C_1   0.813330 0.895890 0.313330 0.001006
C274  C     C_1   0.186670 0.104110 0.686670 0.001006
C275  C     C_1   0.686670 0.895890 0.813330 0.001006
C276  C     C_1   0.313330 0.104110 0.186670 0.001006
C277  C     C_1   0.186670 0.104110 0.313330 0.001006
C278  C     C_1   0.813330 0.895890 0.686670 0.001006
C279  C     C_1   0.313330 0.104110 0.813330 0.001005
C280  C     C_R   0.470263 0.728801 0.271198 0.808294
C281  C     C_R   0.771198 0.771198 0.529737 0.808293
C282  C     C_1   0.686670 0.895890 0.186670 0.001005
C283  C     C_1   0.813330 0.104110 0.686670 0.001006
C284  C     C_1   0.186670 0.895890 0.313330 0.001006
C285  C     C_1   0.686670 0.104110 0.186670 0.001006
C286  C     C_1   0.313330 0.895890 0.813330 0.001006
C287  C     C_1   0.104110 0.313330 0.186670 0.001006
C288  C     C_1   0.895890 0.686670 0.813330 0.001006
C289  C     C_1   0.104110 0.813330 0.313330 0.001005
C290  C     C_1   0.895890 0.186670 0.686670 0.001005
C291  C     C_1   0.104110 0.686670 0.813330 0.001006
C292  C     C_R   0.529737 0.228801 0.228801 0.808293
C293  C     C_1   0.895890 0.313330 0.186670 0.001006
C294  C     C_1   0.104110 0.186670 0.686670 0.001006
C295  C     C_1   0.895890 0.813330 0.313330 0.001006
C296  C     C_1   0.895890 0.686670 0.186670 0.001005
C297  C     C_1   0.104110 0.313330 0.813330 0.001005
C298  C     C_1   0.895890 0.186670 0.313330 0.001006
C299  C     C_1   0.104110 0.813330 0.686670 0.001006
C300  C     C_1   0.895890 0.313330 0.813330 0.001006
C301  C     C_1   0.104110 0.686670 0.186670 0.001006
C302  C     C_1   0.895890 0.813330 0.686670 0.001006
C303  C     C_R   0.470263 0.771198 0.771198 0.808294
C304  C     C_1   0.104110 0.186670 0.313330 0.001006
C305  C     C_1   0.686670 0.813330 0.104109 0.001005
C306  C     C_1   0.313330 0.186670 0.895890 0.001005
C307  C     C_1   0.186670 0.686670 0.104110 0.001006
C308  C     C_1   0.813330 0.313330 0.895890 0.001006
C309  C     C_1   0.313330 0.186670 0.104109 0.001005
C310  C     C_1   0.686670 0.813330 0.895890 0.001005
C311  C     C_1   0.813330 0.313330 0.104109 0.001006
C312  C     C_1   0.186670 0.686670 0.895890 0.001006
C313  C     C_1   0.313330 0.813330 0.895890 0.001006
C314  C     C_R   0.771198 0.771198 0.470263 0.808294
C315  C     C_1   0.686670 0.186670 0.104110 0.001006
C316  C     C_1   0.813330 0.686670 0.895890 0.001005
C317  C     C_1   0.186670 0.313330 0.104109 0.001005
C318  C     C_1   0.686670 0.186670 0.895890 0.001006
C319  C     C_1   0.313330 0.813330 0.104109 0.001006
C320  C     C_1   0.186670 0.313330 0.895890 0.001005
C321  C     C_1   0.813330 0.686670 0.104109 0.001005
C322  C     C_1   0.686670 0.395890 0.686670 0.001005
C323  C     C_1   0.313330 0.604110 0.313330 0.001005
C324  C     C_1   0.313330 0.395890 0.686670 0.001006
C325  C     C_R   0.228801 0.228801 0.529737 0.808293
C326  C     C_1   0.686670 0.604110 0.313330 0.001006
C327  C     C_1   0.313330 0.395890 0.313330 0.001006
C328  C     C_1   0.686670 0.604110 0.686670 0.001006
C329  C     C_1   0.686670 0.395890 0.313330 0.001006
C330  C     C_1   0.313330 0.604110 0.686670 0.001006
C331  C     C_1   0.604110 0.313330 0.686670 0.001006
C332  C     C_1   0.395890 0.686670 0.313330 0.001006
C333  C     C_1   0.604110 0.313330 0.313330 0.001005
C334  C     C_1   0.395890 0.686670 0.686670 0.001005
C335  C     C_1   0.604110 0.686670 0.313330 0.001006
C336  C     C_R   0.470263 0.771198 0.228801 0.808294
C337  C     C_1   0.395890 0.313330 0.686670 0.001006
C338  C     C_1   0.604110 0.686670 0.686670 0.001006
C339  C     C_1   0.395890 0.313330 0.313330 0.001006
C340  C     C_1   0.686670 0.313330 0.604109 0.001005
C341  C     C_1   0.313330 0.686670 0.395890 0.001005
C342  C     C_1   0.686670 0.686670 0.604110 0.001006
C343  C     C_1   0.313330 0.313330 0.395890 0.001006
C344  C     C_1   0.313330 0.686670 0.604109 0.001005
C345  C     C_1   0.686670 0.313330 0.395890 0.001005
C346  C     C_1   0.313330 0.313330 0.604109 0.001006
C347  C     C_R   0.529737 0.228801 0.771198 0.808293
C348  C     C_1   0.686670 0.686670 0.395890 0.001006
C349  C     C_1   0.186670 0.395890 0.186670 0.001005
C350  C     C_1   0.813330 0.604110 0.813330 0.001005
C351  C     C_1   0.813330 0.395890 0.186670 0.001006
C352  C     C_1   0.186670 0.604110 0.813330 0.001006
C353  C     C_1   0.813330 0.395890 0.813330 0.001006
C354  C     C_1   0.186670 0.604110 0.186670 0.001006
C355  C     C_1   0.186670 0.395890 0.813330 0.001006
C356  C     C_1   0.813330 0.604110 0.186670 0.001006
C357  C     C_1   0.604110 0.813330 0.186670 0.001006
C358  C     C_R   0.228801 0.771198 0.529737 0.808293
C359  C     C_1   0.395890 0.186670 0.813330 0.001006
C360  C     C_1   0.604110 0.813330 0.813330 0.001005
C361  C     C_1   0.395890 0.186670 0.186670 0.001005
C362  C     C_1   0.604110 0.186670 0.813330 0.001006
C363  C     C_1   0.395890 0.813330 0.186670 0.001006
C364  C     C_1   0.604110 0.186670 0.186670 0.001006
C365  C     C_1   0.395890 0.813330 0.813330 0.001006
C366  C     C_1   0.186670 0.813330 0.604109 0.001005
C367  C     C_1   0.813330 0.186670 0.395890 0.001005
C368  C     C_1   0.186670 0.186670 0.604110 0.001006
C369  C     C_R   0.771198 0.228801 0.470263 0.808294
C370  C     C_1   0.813330 0.813330 0.395890 0.001006
C371  C     C_1   0.813330 0.186670 0.604109 0.001005
C372  C     C_1   0.186670 0.813330 0.395890 0.001005
C373  C     C_1   0.813330 0.813330 0.604109 0.001006
C374  C     C_1   0.186670 0.186670 0.395890 0.001006
C375  C     C_1   0.178311 0.879732 0.678311 0.187610
C376  C     C_1   0.821689 0.120268 0.321689 0.187610
C377  C     C_1   0.321689 0.879732 0.178311 0.187610
C378  C     C_1   0.678311 0.120268 0.821689 0.187610
C379  C     C_1   0.821689 0.879732 0.321689 0.187610
C380  C     C_R   0.529737 0.771198 0.771198 0.808293
C381  C     C_1   0.178311 0.120268 0.678311 0.187610
C382  C     C_1   0.678311 0.879732 0.821689 0.187610
C383  C     C_1   0.321689 0.120268 0.178311 0.187610
C384  C     C_1   0.178311 0.120268 0.321689 0.187610
C385  C     C_1   0.821689 0.879732 0.678311 0.187610
C386  C     C_1   0.321689 0.120268 0.821689 0.187610
C387  C     C_1   0.678311 0.879732 0.178311 0.187610
C388  C     C_1   0.821689 0.120268 0.678311 0.187610
C389  C     C_1   0.178311 0.879732 0.321689 0.187610
C390  C     C_1   0.678311 0.120268 0.178311 0.187610
C391  C     C_R   0.529737 0.271198 0.728801 0.808293
C392  C     C_R   0.470263 0.228801 0.228801 0.808294
C393  C     C_1   0.321689 0.879732 0.821689 0.187610
C394  C     C_1   0.120268 0.321689 0.178311 0.187610
C395  C     C_1   0.879732 0.678311 0.821689 0.187610
C396  C     C_1   0.120268 0.821689 0.321689 0.187610
C397  C     C_1   0.879732 0.178311 0.678311 0.187610
C398  C     C_1   0.120268 0.678311 0.821689 0.187610
C399  C     C_1   0.879732 0.321689 0.178311 0.187610
C400  C     C_1   0.120268 0.178311 0.678311 0.187610
C401  C     C_1   0.879732 0.821689 0.321689 0.187610
C402  C     C_1   0.879732 0.678311 0.178311 0.187610
C403  C     C_R   0.771198 0.470263 0.771198 0.808294
C404  C     C_1   0.120268 0.321689 0.821689 0.187610
C405  C     C_1   0.879732 0.178311 0.321689 0.187610
C406  C     C_1   0.120268 0.821689 0.678311 0.187610
C407  C     C_1   0.879732 0.321689 0.821689 0.187610
C408  C     C_1   0.120268 0.678311 0.178311 0.187610
C409  C     C_1   0.879732 0.821689 0.678311 0.187610
C410  C     C_1   0.120268 0.178311 0.321689 0.187610
C411  C     C_1   0.678311 0.821689 0.120268 0.187610
C412  C     C_1   0.321689 0.178311 0.879732 0.187610
C413  C     C_1   0.178311 0.678311 0.120268 0.187610
C414  C     C_R   0.228801 0.529737 0.228801 0.808293
C415  C     C_1   0.821689 0.321689 0.879732 0.187610
C416  C     C_1   0.321689 0.178311 0.120268 0.187610
C417  C     C_1   0.678311 0.821689 0.879732 0.187610
C418  C     C_1   0.821689 0.321689 0.120268 0.187610
C419  C     C_1   0.178311 0.678311 0.879732 0.187610
C420  C     C_1   0.321689 0.821689 0.879732 0.187610
C421  C     C_1   0.678311 0.178311 0.120268 0.187610
C422  C     C_1   0.821689 0.678311 0.879732 0.187610
C423  C     C_1   0.178311 0.321689 0.120268 0.187610
C424  C     C_1   0.678311 0.178311 0.879732 0.187610
C425  C     C_R   0.771198 0.529737 0.228801 0.808293
C426  C     C_1   0.321689 0.821689 0.120268 0.187610
C427  C     C_1   0.178311 0.321689 0.879732 0.187610
C428  C     C_1   0.821689 0.678311 0.120268 0.187610
C429  C     C_1   0.678311 0.379732 0.678311 0.187610
C430  C     C_1   0.321689 0.620268 0.321689 0.187610
C431  C     C_1   0.321689 0.379732 0.678311 0.187610
C432  C     C_1   0.678311 0.620268 0.321689 0.187610
C433  C     C_1   0.321689 0.379732 0.321689 0.187610
C434  C     C_1   0.678311 0.620268 0.678311 0.187610
C435  C     C_1   0.678311 0.379732 0.321689 0.187610
C436  C     C_R   0.228801 0.470263 0.771198 0.808294
C437  C     C_1   0.321689 0.620268 0.678311 0.187610
C438  C     C_1   0.620268 0.321689 0.678311 0.187610
C439  C     C_1   0.379732 0.678311 0.321689 0.187610
C440  C     C_1   0.620268 0.321689 0.321689 0.187610
C441  C     C_1   0.379732 0.678311 0.678311 0.187610
C442  C     C_1   0.620268 0.678311 0.321689 0.187610
C443  C     C_1   0.379732 0.321689 0.678311 0.187610
C444  C     C_1   0.620268 0.678311 0.678311 0.187610
C445  C     C_1   0.379732 0.321689 0.321689 0.187610
C446  C     C_1   0.678311 0.321689 0.620268 0.187610
C447  C     C_R   0.228801 0.529737 0.771198 0.808293
C448  C     C_1   0.321689 0.678311 0.379732 0.187610
C449  C     C_1   0.678311 0.678311 0.620268 0.187610
C450  C     C_1   0.321689 0.321689 0.379732 0.187610
C451  C     C_1   0.321689 0.678311 0.620268 0.187610
C452  C     C_1   0.678311 0.321689 0.379732 0.187610
C453  C     C_1   0.321689 0.321689 0.620268 0.187610
C454  C     C_1   0.678311 0.678311 0.379732 0.187610
C455  C     C_1   0.178311 0.379732 0.178311 0.187610
C456  C     C_1   0.821689 0.620268 0.821689 0.187610
C457  C     C_1   0.821689 0.379732 0.178311 0.187610
C458  C     C_R   0.771198 0.470263 0.228801 0.808294
C459  C     C_1   0.178311 0.620268 0.821689 0.187610
C460  C     C_1   0.821689 0.379732 0.821689 0.187610
C461  C     C_1   0.178311 0.620268 0.178311 0.187610
C462  C     C_1   0.178311 0.379732 0.821689 0.187610
C463  C     C_1   0.821689 0.620268 0.178311 0.187610
C464  C     C_1   0.620268 0.821689 0.178311 0.187610
C465  C     C_1   0.379732 0.178311 0.821689 0.187610
C466  C     C_1   0.620268 0.821689 0.821689 0.187610
C467  C     C_1   0.379732 0.178311 0.178311 0.187610
C468  C     C_1   0.620268 0.178311 0.821689 0.187610
C469  C     C_R   0.228801 0.470263 0.228801 0.808294
C470  C     C_1   0.379732 0.821689 0.178311 0.187610
C471  C     C_1   0.620268 0.178311 0.178311 0.187610
C472  C     C_1   0.379732 0.821689 0.821689 0.187610
C473  C     C_1   0.178311 0.821689 0.620268 0.187610
C474  C     C_1   0.821689 0.178311 0.379732 0.187610
C475  C     C_1   0.178311 0.178311 0.620268 0.187610
C476  C     C_1   0.821689 0.821689 0.379732 0.187610
C477  C     C_1   0.821689 0.178311 0.620268 0.187610
C478  C     C_1   0.178311 0.821689 0.379732 0.187610
C479  C     C_1   0.821689 0.821689 0.620268 0.187610
C480  C     C_R   0.771198 0.529737 0.771198 0.808293
C481  C     C_1   0.178311 0.178311 0.379732 0.187610
C482  C     C_R   0.187795 0.924395 0.715939 -0.122994
C483  C     C_R   0.812205 0.075605 0.284061 -0.122994
C484  C     C_R   0.284061 0.924395 0.187795 -0.122994
C485  C     C_R   0.715939 0.075605 0.812205 -0.122994
C486  C     C_R   0.812206 0.924396 0.284062 -0.122994
C487  C     C_R   0.187794 0.075604 0.715938 -0.122994
C488  C     C_R   0.715938 0.924396 0.812206 -0.122994
C489  C     C_R   0.284062 0.075604 0.187794 -0.122994
C490  C     C_R   0.187794 0.075604 0.284062 -0.122993
C491  C     C_R   0.771198 0.728801 0.029737 0.808293
C492  C     C_R   0.812206 0.924396 0.715938 -0.122993
C493  C     C_R   0.284062 0.075604 0.812206 -0.122994
C494  C     C_R   0.715938 0.924396 0.187794 -0.122994
C495  C     C_R   0.812205 0.075605 0.715939 -0.122994
C496  C     C_R   0.187795 0.924395 0.284061 -0.122994
C497  C     C_R   0.715939 0.075605 0.187795 -0.122994
C498  C     C_R   0.284061 0.924395 0.812205 -0.122994
C499  C     C_R   0.075604 0.284062 0.187794 -0.122994
C500  C     C_R   0.924396 0.715938 0.812206 -0.122994
C501  C     C_R   0.075605 0.812205 0.284061 -0.122994
C502  C     C_R   0.728801 0.728801 0.470263 0.808294
C503  C     C_R   0.228801 0.271198 0.970263 0.808294
C504  C     C_R   0.924395 0.187795 0.715939 -0.122994
C505  C     C_R   0.075605 0.715939 0.812205 -0.122994
C506  C     C_R   0.924395 0.284061 0.187795 -0.122994
C507  C     C_R   0.075604 0.187794 0.715938 -0.122994
C508  C     C_R   0.924396 0.812206 0.284062 -0.122994
C509  C     C_R   0.924396 0.715938 0.187794 -0.122994
C510  C     C_R   0.075604 0.284062 0.812206 -0.122994
C511  C     C_R   0.924395 0.187795 0.284061 -0.122994
C512  C     C_R   0.075605 0.812205 0.715939 -0.122994
C513  C     C_R   0.924395 0.284061 0.812205 -0.122994
C514  C     C_R   0.970263 0.728801 0.771198 0.808294
C515  C     C_R   0.075605 0.715939 0.187795 -0.122994
C516  C     C_R   0.924396 0.812206 0.715938 -0.122993
C517  C     C_R   0.075604 0.187794 0.284062 -0.122993
C518  C     C_R   0.715938 0.812206 0.075604 -0.122995
C519  C     C_R   0.284062 0.187794 0.924396 -0.122995
C520  C     C_R   0.187794 0.715938 0.075605 -0.122995
C521  C     C_R   0.812206 0.284062 0.924395 -0.122995
C522  C     C_R   0.284062 0.187794 0.075604 -0.122995
C523  C     C_R   0.715938 0.812206 0.924396 -0.122995
C524  C     C_R   0.812206 0.284062 0.075605 -0.122995
C525  C     C_R   0.029737 0.271198 0.228801 0.808293
C526  C     C_R   0.187794 0.715938 0.924395 -0.122995
C527  C     C_R   0.284062 0.812206 0.924395 -0.122995
C528  C     C_R   0.715938 0.187794 0.075605 -0.122995
C529  C     C_R   0.812206 0.715938 0.924396 -0.122995
C530  C     C_R   0.187794 0.284062 0.075604 -0.122995
C531  C     C_R   0.715938 0.187794 0.924395 -0.122995
C532  C     C_R   0.284062 0.812206 0.075605 -0.122995
C533  C     C_R   0.187794 0.284062 0.924396 -0.122995
C534  C     C_R   0.812206 0.715938 0.075604 -0.122995
C535  C     C_R   0.687795 0.424395 0.715939 -0.122994
C536  C     C_R   0.228801 0.728801 0.970263 0.808294
C537  C     C_R   0.312205 0.575605 0.284061 -0.122994
C538  C     C_R   0.284061 0.424395 0.687795 -0.122994
C539  C     C_R   0.715939 0.575605 0.312205 -0.122994
C540  C     C_R   0.312206 0.424396 0.284062 -0.122994
C541  C     C_R   0.687794 0.575604 0.715938 -0.122994
C542  C     C_R   0.715938 0.424396 0.312206 -0.122994
C543  C     C_R   0.284062 0.575604 0.687794 -0.122994
C544  C     C_R   0.687794 0.575604 0.284062 -0.122993
C545  C     C_R   0.312206 0.424396 0.715938 -0.122993
C546  C     C_R   0.284062 0.575604 0.312206 -0.122994
C547  C     C_R   0.771198 0.271198 0.029737 0.808293
C548  C     C_R   0.715938 0.424396 0.687794 -0.122994
C549  C     C_R   0.312205 0.575605 0.715939 -0.122994
C550  C     C_R   0.687795 0.424395 0.284061 -0.122994
C551  C     C_R   0.715939 0.575605 0.687795 -0.122994
C552  C     C_R   0.284061 0.424395 0.312205 -0.122994
C553  C     C_R   0.575604 0.284062 0.687794 -0.122994
C554  C     C_R   0.424396 0.715938 0.312206 -0.122994
C555  C     C_R   0.575605 0.312205 0.284061 -0.122994
C556  C     C_R   0.424395 0.687795 0.715939 -0.122994
C557  C     C_R   0.575605 0.715939 0.312205 -0.122994
C558  C     C_R   0.029737 0.728801 0.228801 0.808293
C559  C     C_R   0.424395 0.284061 0.687795 -0.122994
C560  C     C_R   0.575604 0.687794 0.715938 -0.122994
C561  C     C_R   0.424396 0.312206 0.284062 -0.122994
C562  C     C_R   0.424396 0.715938 0.687794 -0.122994
C563  C     C_R   0.575604 0.284062 0.312206 -0.122994
C564  C     C_R   0.424395 0.687795 0.284061 -0.122994
C565  C     C_R   0.575605 0.312205 0.715939 -0.122994
C566  C     C_R   0.424395 0.284061 0.312205 -0.122994
C567  C     C_R   0.575605 0.715939 0.687795 -0.122994
C568  C     C_R   0.424396 0.312206 0.715938 -0.122993
C569  C     C_R   0.970263 0.271198 0.771198 0.808294
C570  C     C_R   0.575604 0.687794 0.284062 -0.122993
C571  C     C_R   0.715938 0.312206 0.575604 -0.122995
C572  C     C_R   0.284062 0.687794 0.424395 -0.122995
C573  C     C_R   0.687794 0.715938 0.575604 -0.122995
C574  C     C_R   0.312206 0.284062 0.424395 -0.122995
C575  C     C_R   0.284062 0.687794 0.575604 -0.122995
C576  C     C_R   0.715938 0.312206 0.424395 -0.122995
C577  C     C_R   0.312206 0.284062 0.575604 -0.122995
C578  C     C_R   0.687794 0.715938 0.424395 -0.122995
C579  C     C_R   0.284062 0.312206 0.424395 -0.122995
C580  C     C_R   0.771198 0.271198 0.970263 0.808294
C581  C     C_R   0.715938 0.687794 0.575604 -0.122995
C582  C     C_R   0.312206 0.715938 0.424395 -0.122995
C583  C     C_R   0.687794 0.284062 0.575604 -0.122995
C584  C     C_R   0.715938 0.687794 0.424395 -0.122995
C585  C     C_R   0.284062 0.312206 0.575604 -0.122995
C586  C     C_R   0.687794 0.284062 0.424395 -0.122995
C587  C     C_R   0.312206 0.715938 0.575604 -0.122995
C588  C     C_R   0.687795 0.924395 0.215939 -0.122994
C589  C     C_R   0.312205 0.075605 0.784061 -0.122994
C590  C     C_R   0.784061 0.924395 0.687795 -0.122994
C591  C     C_R   0.228801 0.728801 0.029737 0.808293
C592  C     C_R   0.215939 0.075605 0.312205 -0.122994
C593  C     C_R   0.312206 0.924396 0.784062 -0.122994
C594  C     C_R   0.687794 0.075604 0.215938 -0.122994
C595  C     C_R   0.215938 0.924396 0.312206 -0.122994
C596  C     C_R   0.784062 0.075604 0.687794 -0.122994
C597  C     C_R   0.687794 0.075604 0.784062 -0.122993
C598  C     C_R   0.312206 0.924396 0.215938 -0.122993
C599  C     C_R   0.784062 0.075604 0.312206 -0.122994
C600  C     C_R   0.215938 0.924396 0.687794 -0.122994
C601  C     C_R   0.312205 0.075605 0.215939 -0.122994
C602  C     C_R   0.970263 0.271198 0.228801 0.808294
C603  C     C_R   0.687795 0.924395 0.784061 -0.122994
C604  C     C_R   0.215939 0.075605 0.687795 -0.122994
C605  C     C_R   0.784061 0.924395 0.312205 -0.122994
C606  C     C_R   0.075604 0.784062 0.687794 -0.122994
C607  C     C_R   0.924396 0.215938 0.312206 -0.122994
C608  C     C_R   0.075605 0.312205 0.784061 -0.122994
C609  C     C_R   0.924395 0.687795 0.215939 -0.122994
C610  C     C_R   0.075605 0.215939 0.312205 -0.122994
C611  C     C_R   0.924395 0.784061 0.687795 -0.122994
C612  C     C_R   0.075604 0.687794 0.215938 -0.122994
C613  C     C_R   0.271198 0.271198 0.529737 0.808293
C614  C     C_R   0.029737 0.728801 0.771198 0.808293
C615  C     C_R   0.924396 0.312206 0.784062 -0.122994
C616  C     C_R   0.924396 0.215938 0.687794 -0.122994
C617  C     C_R   0.075604 0.784062 0.312206 -0.122994
C618  C     C_R   0.924395 0.687795 0.784061 -0.122994
C619  C     C_R   0.075605 0.312205 0.215939 -0.122994
C620  C     C_R   0.924395 0.784061 0.312205 -0.122994
C621  C     C_R   0.075605 0.215939 0.687795 -0.122994
C622  C     C_R   0.924396 0.312206 0.215938 -0.122993
C623  C     C_R   0.075604 0.687794 0.784062 -0.122993
C624  C     C_R   0.215938 0.312206 0.075604 -0.122995
C625  C     C_R   0.228801 0.271198 0.029737 0.808293
C626  C     C_R   0.784062 0.687794 0.924396 -0.122995
C627  C     C_R   0.687794 0.215938 0.075605 -0.122995
C628  C     C_R   0.312206 0.784062 0.924395 -0.122995
C629  C     C_R   0.784062 0.687794 0.075604 -0.122995
C630  C     C_R   0.215938 0.312206 0.924396 -0.122995
C631  C     C_R   0.312206 0.784062 0.075605 -0.122995
C632  C     C_R   0.687794 0.215938 0.924395 -0.122995
C633  C     C_R   0.784062 0.312206 0.924395 -0.122995
C634  C     C_R   0.215938 0.687794 0.075605 -0.122995
C635  C     C_R   0.312206 0.215938 0.924396 -0.122995
C636  C     C_R   0.771198 0.728801 0.970263 0.808294
C637  C     C_R   0.687794 0.784062 0.075604 -0.122995
C638  C     C_R   0.215938 0.687794 0.924395 -0.122995
C639  C     C_R   0.784062 0.312206 0.075605 -0.122995
C640  C     C_R   0.687794 0.784062 0.924396 -0.122995
C641  C     C_R   0.312206 0.215938 0.075604 -0.122995
C642  C     C_R   0.187795 0.424395 0.215939 -0.122994
C643  C     C_R   0.812205 0.575605 0.784061 -0.122994
C644  C     C_R   0.784061 0.424395 0.187795 -0.122994
C645  C     C_R   0.215939 0.575605 0.812205 -0.122994
C646  C     C_R   0.812206 0.424396 0.784062 -0.122994
C647  C     C_R   0.029737 0.271198 0.771198 0.808293
C648  C     C_R   0.187794 0.575604 0.215938 -0.122994
C649  C     C_R   0.215938 0.424396 0.812206 -0.122994
C650  C     C_R   0.784062 0.575604 0.187794 -0.122994
C651  C     C_R   0.187794 0.575604 0.784062 -0.122993
C652  C     C_R   0.812206 0.424396 0.215938 -0.122993
C653  C     C_R   0.784062 0.575604 0.812206 -0.122994
C654  C     C_R   0.215938 0.424396 0.187794 -0.122994
C655  C     C_R   0.812205 0.575605 0.215939 -0.122994
C656  C     C_R   0.187795 0.424395 0.784061 -0.122994
C657  C     C_R   0.215939 0.575605 0.187795 -0.122994
C658  C     C_R   0.970263 0.728801 0.228801 0.808294
C659  C     C_R   0.784061 0.424395 0.812205 -0.122994
C660  C     C_R   0.575604 0.784062 0.187794 -0.122994
C661  C     C_R   0.424396 0.215938 0.812206 -0.122994
C662  C     C_R   0.575605 0.812205 0.784061 -0.122994
C663  C     C_R   0.424395 0.187795 0.215939 -0.122994
C664  C     C_R   0.575605 0.215939 0.812205 -0.122994
C665  C     C_R   0.424395 0.784061 0.187795 -0.122994
C666  C     C_R   0.575604 0.187794 0.215938 -0.122994
C667  C     C_R   0.424396 0.812206 0.784062 -0.122994
C668  C     C_R   0.424396 0.215938 0.187794 -0.122994
C669  C     C_R   0.271198 0.970263 0.771198 0.808294
C670  C     C_R   0.575604 0.784062 0.812206 -0.122994
C671  C     C_R   0.424395 0.187795 0.784061 -0.122994
C672  C     C_R   0.575605 0.812205 0.215939 -0.122994
C673  C     C_R   0.424395 0.784061 0.812205 -0.122994
C674  C     C_R   0.575605 0.215939 0.187795 -0.122994
C675  C     C_R   0.424396 0.812206 0.215938 -0.122993
C676  C     C_R   0.575604 0.187794 0.784062 -0.122993
C677  C     C_R   0.215938 0.812206 0.575604 -0.122995
C678  C     C_R   0.784062 0.187794 0.424395 -0.122995
C679  C     C_R   0.187794 0.215938 0.575604 -0.122995
C680  C     C_R   0.728801 0.029737 0.228801 0.808293
C681  C     C_R   0.812206 0.784062 0.424395 -0.122995
C682  C     C_R   0.784062 0.187794 0.575604 -0.122995
C683  C     C_R   0.215938 0.812206 0.424395 -0.122995
C684  C     C_R   0.812206 0.784062 0.575604 -0.122995
C685  C     C_R   0.187794 0.215938 0.424395 -0.122995
C686  C     C_R   0.784062 0.812206 0.424395 -0.122995
C687  C     C_R   0.215938 0.187794 0.575604 -0.122995
C688  C     C_R   0.812206 0.215938 0.424395 -0.122995
C689  C     C_R   0.187794 0.784062 0.575604 -0.122995
C690  C     C_R   0.215938 0.187794 0.424395 -0.122995
C691  C     C_R   0.271198 0.228801 0.970263 0.808294
C692  C     C_R   0.784062 0.812206 0.575604 -0.122995
C693  C     C_R   0.187794 0.784062 0.424395 -0.122995
C694  C     C_R   0.812206 0.215938 0.575604 -0.122995
C695  C     C_R   0.197926 0.942548 0.726094 -0.178883
C696  C     C_R   0.802074 0.057452 0.273906 -0.178883
C697  C     C_R   0.273906 0.942548 0.197926 -0.178884
C698  C     C_R   0.726094 0.057452 0.802074 -0.178884
C699  C     C_R   0.802075 0.942550 0.273907 -0.178883
C700  C     C_R   0.197925 0.057450 0.726093 -0.178883
C701  C     C_R   0.726093 0.942549 0.802075 -0.178883
C702  C     C_R   0.728801 0.771198 0.029737 0.808293
C703  C     C_R   0.273907 0.057451 0.197925 -0.178883
C704  C     C_R   0.197925 0.057451 0.273907 -0.178883
C705  C     C_R   0.802075 0.942549 0.726093 -0.178883
C706  C     C_R   0.273907 0.057451 0.802075 -0.178882
C707  C     C_R   0.726093 0.942549 0.197925 -0.178882
C708  C     C_R   0.802074 0.057452 0.726094 -0.178884
C709  C     C_R   0.197926 0.942548 0.273906 -0.178884
C710  C     C_R   0.726094 0.057452 0.197926 -0.178882
C711  C     C_R   0.273906 0.942548 0.802074 -0.178882
C712  C     C_R   0.057451 0.273907 0.197925 -0.178883
C713  C     C_R   0.271198 0.029737 0.228801 0.808293
C714  C     C_R   0.942549 0.726093 0.802075 -0.178883
C715  C     C_R   0.057452 0.802074 0.273906 -0.178883
C716  C     C_R   0.942548 0.197926 0.726094 -0.178883
C717  C     C_R   0.057452 0.726094 0.802074 -0.178884
C718  C     C_R   0.942548 0.273906 0.197926 -0.178884
C719  C     C_R   0.057450 0.197925 0.726093 -0.178883
C720  C     C_R   0.942550 0.802075 0.273907 -0.178883
C721  C     C_R   0.942549 0.726093 0.197925 -0.178882
C722  C     C_R   0.057451 0.273907 0.802075 -0.178882
C723  C     C_R   0.942548 0.197926 0.273906 -0.178884
C724  C     C_R   0.529737 0.728801 0.728801 0.808293
C725  C     C_R   0.728801 0.970263 0.771198 0.808294
C726  C     C_R   0.057452 0.802074 0.726094 -0.178884
C727  C     C_R   0.942548 0.273906 0.802074 -0.178882
C728  C     C_R   0.057452 0.726094 0.197926 -0.178882
C729  C     C_R   0.942549 0.802075 0.726093 -0.178883
C730  C     C_R   0.057451 0.197925 0.273907 -0.178883
C731  C     C_R   0.726094 0.802075 0.057451 -0.178883
C732  C     C_R   0.273906 0.197925 0.942549 -0.178882
C733  C     C_R   0.197925 0.726094 0.057451 -0.178882
C734  C     C_R   0.802074 0.273906 0.942549 -0.178882
C735  C     C_R   0.273906 0.197925 0.057451 -0.178882
C736  C     C_R   0.271198 0.771198 0.029737 0.808293
C737  C     C_R   0.726094 0.802074 0.942549 -0.178882
C738  C     C_R   0.802075 0.273906 0.057451 -0.178882
C739  C     C_R   0.197925 0.726094 0.942549 -0.178882
C740  C     C_R   0.273906 0.802074 0.942549 -0.178882
C741  C     C_R   0.726094 0.197925 0.057451 -0.178882
C742  C     C_R   0.802074 0.726094 0.942549 -0.178882
C743  C     C_R   0.197925 0.273906 0.057451 -0.178882
C744  C     C_R   0.726094 0.197925 0.942549 -0.178882
C745  C     C_R   0.273906 0.802075 0.057451 -0.178882
C746  C     C_R   0.197925 0.273906 0.942549 -0.178882
C747  C     C_R   0.728801 0.228801 0.970263 0.808294
C748  C     C_R   0.802075 0.726094 0.057451 -0.178883
C749  C     C_R   0.697926 0.442548 0.726094 -0.178883
C750  C     C_R   0.302074 0.557451 0.273906 -0.178883
C751  C     C_R   0.273906 0.442548 0.697926 -0.178884
C752  C     C_R   0.726094 0.557451 0.302074 -0.178884
C753  C     C_R   0.302075 0.442549 0.273907 -0.178883
C754  C     C_R   0.697925 0.557450 0.726093 -0.178883
C755  C     C_R   0.726093 0.442549 0.302075 -0.178883
C756  C     C_R   0.273907 0.557450 0.697925 -0.178883
C757  C     C_R   0.697925 0.557450 0.273907 -0.178883
C758  C     C_R   0.728801 0.029737 0.771198 0.808293
C759  C     C_R   0.302075 0.442549 0.726093 -0.178883
C760  C     C_R   0.273907 0.557450 0.302075 -0.178882
C761  C     C_R   0.726093 0.442549 0.697925 -0.178882
C762  C     C_R   0.302074 0.557451 0.726094 -0.178884
C763  C     C_R   0.697926 0.442548 0.273906 -0.178884
C764  C     C_R   0.726094 0.557451 0.697926 -0.178882
C765  C     C_R   0.273906 0.442548 0.302074 -0.178882
C766  C     C_R   0.557450 0.273907 0.697925 -0.178883
C767  C     C_R   0.442549 0.726093 0.302075 -0.178883
C768  C     C_R   0.557451 0.302074 0.273906 -0.178883
C769  C     C_R   0.271198 0.970263 0.228801 0.808294
C770  C     C_R   0.442548 0.697926 0.726094 -0.178883
C771  C     C_R   0.557451 0.726094 0.302074 -0.178884
C772  C     C_R   0.442548 0.273906 0.697926 -0.178884
C773  C     C_R   0.557450 0.697925 0.726093 -0.178883
C774  C     C_R   0.442549 0.302075 0.273907 -0.178883
C775  C     C_R   0.442549 0.726093 0.697925 -0.178882
C776  C     C_R   0.557450 0.273907 0.302075 -0.178882
C777  C     C_R   0.442548 0.697926 0.273906 -0.178884
C778  C     C_R   0.557451 0.302074 0.726094 -0.178884
C779  C     C_R   0.442548 0.273906 0.302074 -0.178882
C780  C     C_R   0.728801 0.771198 0.970263 0.808294
C781  C     C_R   0.557451 0.726094 0.697926 -0.178882
C782  C     C_R   0.442549 0.302075 0.726093 -0.178883
C783  C     C_R   0.557450 0.697925 0.273907 -0.178883
C784  C     C_R   0.726094 0.302074 0.557451 -0.178883
C785  C     C_R   0.273906 0.697925 0.442549 -0.178882
C786  C     C_R   0.697925 0.726094 0.557451 -0.178882
C787  C     C_R   0.302074 0.273906 0.442549 -0.178882
C788  C     C_R   0.273906 0.697925 0.557451 -0.178882
C789  C     C_R   0.726094 0.302074 0.442549 -0.178882
C790  C     C_R   0.302074 0.273906 0.557451 -0.178882
C791  C     C_R   0.271198 0.228801 0.029737 0.808293
C792  C     C_R   0.697925 0.726094 0.442549 -0.178882
C793  C     C_R   0.273906 0.302074 0.442549 -0.178882
C794  C     C_R   0.726094 0.697925 0.557451 -0.178882
C795  C     C_R   0.302074 0.726094 0.442549 -0.178882
C796  C     C_R   0.697925 0.273906 0.557451 -0.178882
C797  C     C_R   0.726094 0.697925 0.442549 -0.178882
C798  C     C_R   0.273906 0.302074 0.557451 -0.178882
C799  C     C_R   0.697925 0.273906 0.442549 -0.178882
C800  C     C_R   0.302075 0.726094 0.557451 -0.178883
C801  C     C_R   0.697926 0.942548 0.226094 -0.178883
C802  C     C_R   0.728801 0.970263 0.228801 0.808294
C803  C     C_R   0.302074 0.057452 0.773906 -0.178883
C804  C     C_R   0.773906 0.942548 0.697926 -0.178884
C805  C     C_R   0.226094 0.057452 0.302074 -0.178884
C806  C     C_R   0.302075 0.942550 0.773907 -0.178883
C807  C     C_R   0.697925 0.057450 0.226093 -0.178883
C808  C     C_R   0.226093 0.942549 0.302075 -0.178883
C809  C     C_R   0.773907 0.057451 0.697925 -0.178883
C810  C     C_R   0.697925 0.057450 0.773907 -0.178883
C811  C     C_R   0.302075 0.942549 0.226093 -0.178883
C812  C     C_R   0.773907 0.057451 0.302075 -0.178882
C813  C     C_R   0.271198 0.029737 0.771198 0.808293
C814  C     C_R   0.226093 0.942549 0.697925 -0.178882
C815  C     C_R   0.302074 0.057452 0.226094 -0.178884
C816  C     C_R   0.697926 0.942548 0.773906 -0.178884
C817  C     C_R   0.226094 0.057452 0.697926 -0.178882
C818  C     C_R   0.773906 0.942548 0.302074 -0.178882
C819  C     C_R   0.057450 0.773907 0.697925 -0.178883
C820  C     C_R   0.942549 0.226093 0.302075 -0.178883
C821  C     C_R   0.057452 0.302074 0.773906 -0.178883
C822  C     C_R   0.942548 0.697926 0.226094 -0.178883
C823  C     C_R   0.057452 0.226094 0.302074 -0.178884
C824  C     C_R   0.728801 0.228801 0.029737 0.808293
C825  C     C_R   0.942548 0.773906 0.697926 -0.178884
C826  C     C_R   0.057450 0.697925 0.226093 -0.178883
C827  C     C_R   0.942550 0.302075 0.773907 -0.178883
C828  C     C_R   0.942549 0.226093 0.697925 -0.178882
C829  C     C_R   0.057450 0.773907 0.302075 -0.178882
C830  C     C_R   0.942548 0.697926 0.773906 -0.178884
C831  C     C_R   0.057452 0.302074 0.226094 -0.178884
C832  C     C_R   0.942548 0.773906 0.302074 -0.178882
C833  C     C_R   0.057452 0.226094 0.697926 -0.178882
C834  C     C_R   0.942549 0.302075 0.226093 -0.178883
C835  C     C_R   0.470263 0.271198 0.271198 0.808294
C836  C     C_R   0.271198 0.771198 0.970263 0.808294
C837  C     C_R   0.057450 0.697925 0.773907 -0.178883
C838  C     C_R   0.226094 0.302074 0.057451 -0.178883
C839  C     C_R   0.773906 0.697925 0.942549 -0.178882
C840  C     C_R   0.697925 0.226094 0.057451 -0.178882
C841  C     C_R   0.302075 0.773906 0.942549 -0.178882
C842  C     C_R   0.773906 0.697925 0.057451 -0.178882
C843  C     C_R   0.226094 0.302074 0.942549 -0.178882
C844  C     C_R   0.302074 0.773906 0.057451 -0.178882
C845  C     C_R   0.697925 0.226094 0.942549 -0.178882
C846  C     C_R   0.773906 0.302074 0.942549 -0.178882
C847  C     C_R   0.029737 0.228801 0.271198 0.808293
C848  C     C_R   0.226094 0.697925 0.057451 -0.178882
C849  C     C_R   0.302074 0.226094 0.942549 -0.178882
C850  C     C_R   0.697925 0.773906 0.057451 -0.178882
C851  C     C_R   0.226094 0.697925 0.942549 -0.178882
C852  C     C_R   0.773906 0.302074 0.057451 -0.178882
C853  C     C_R   0.697925 0.773906 0.942549 -0.178882
C854  C     C_R   0.302074 0.226094 0.057451 -0.178883
C855  C     C_R   0.197926 0.442548 0.226094 -0.178883
C856  C     C_R   0.802074 0.557451 0.773906 -0.178883
C857  C     C_R   0.773906 0.442548 0.197926 -0.178884
C858  C     C_R   0.970263 0.771198 0.728801 0.808294
C859  C     C_R   0.226094 0.557451 0.802074 -0.178884
C860  C     C_R   0.802075 0.442549 0.773907 -0.178883
C861  C     C_R   0.197925 0.557450 0.226093 -0.178883
C862  C     C_R   0.226093 0.442549 0.802075 -0.178883
C863  C     C_R   0.773907 0.557450 0.197925 -0.178883
C864  C     C_R   0.197925 0.557450 0.773907 -0.178883
C865  C     C_R   0.802075 0.442549 0.226093 -0.178883
C866  C     C_R   0.773907 0.557450 0.802075 -0.178882
C867  C     C_R   0.226093 0.442549 0.197925 -0.178882
C868  C     C_R   0.802074 0.557451 0.226094 -0.178884
C869  C     C_R   0.771198 0.029737 0.271198 0.808293
C870  C     C_R   0.197926 0.442548 0.773906 -0.178884
C871  C     C_R   0.226094 0.557451 0.197926 -0.178882
C872  C     C_R   0.773906 0.442548 0.802074 -0.178882
C873  C     C_R   0.557450 0.773907 0.197925 -0.178883
C874  C     C_R   0.442549 0.226093 0.802075 -0.178883
C875  C     C_R   0.557451 0.802074 0.773906 -0.178883
C876  C     C_R   0.442548 0.197926 0.226094 -0.178883
C877  C     C_R   0.557451 0.226094 0.802074 -0.178884
C878  C     C_R   0.442548 0.773906 0.197926 -0.178884
C879  C     C_R   0.557450 0.197925 0.226093 -0.178883
C880  C     C_R   0.228801 0.970263 0.728801 0.808294
C881  C     C_R   0.442549 0.802075 0.773907 -0.178883
C882  C     C_R   0.442549 0.226093 0.197925 -0.178882
C883  C     C_R   0.557450 0.773907 0.802075 -0.178882
C884  C     C_R   0.442548 0.197926 0.773906 -0.178884
C885  C     C_R   0.557451 0.802074 0.226094 -0.178884
C886  C     C_R   0.442548 0.773906 0.802074 -0.178882
C887  C     C_R   0.557451 0.226094 0.197926 -0.178882
C888  C     C_R   0.442549 0.802075 0.226093 -0.178883
C889  C     C_R   0.557450 0.197925 0.773907 -0.178883
C890  C     C_R   0.226094 0.802075 0.557451 -0.178883
C891  C     C_R   0.970263 0.771198 0.271198 0.808294
C892  C     C_R   0.773906 0.197925 0.442549 -0.178882
C893  C     C_R   0.197925 0.226094 0.557451 -0.178882
C894  C     C_R   0.802075 0.773906 0.442549 -0.178882
C895  C     C_R   0.773906 0.197925 0.557451 -0.178882
C896  C     C_R   0.226094 0.802075 0.442549 -0.178882
C897  C     C_R   0.802075 0.773906 0.557451 -0.178882
C898  C     C_R   0.197925 0.226094 0.442549 -0.178882
C899  C     C_R   0.773906 0.802075 0.442549 -0.178882
C900  C     C_R   0.226094 0.197925 0.557451 -0.178882
C901  C     C_R   0.802075 0.226094 0.442549 -0.178882
C902  C     C_R   0.029737 0.228801 0.728801 0.808293
C903  C     C_R   0.197925 0.773906 0.557451 -0.178882
C904  C     C_R   0.226094 0.197925 0.442549 -0.178882
C905  C     C_R   0.773906 0.802075 0.557451 -0.178882
C906  C     C_R   0.197925 0.773906 0.442549 -0.178882
C907  C     C_R   0.802075 0.226094 0.557451 -0.178883
C908  C     C_R   0.217306 0.951796 0.717306 -0.057951
C909  C     C_R   0.782694 0.048204 0.282694 -0.057952
C910  C     C_R   0.282694 0.951796 0.217306 -0.057951
C911  C     C_R   0.717306 0.048204 0.782694 -0.057951
C912  C     C_R   0.782694 0.951796 0.282694 -0.057951
C913  C     C_R   0.228801 0.970263 0.271198 0.808294
C914  C     C_R   0.217306 0.048204 0.717306 -0.057951
C915  C     C_R   0.717306 0.951796 0.782694 -0.057951
C916  C     C_R   0.282694 0.048204 0.217306 -0.057951
C917  C     C_R   0.217306 0.048204 0.282694 -0.057951
C918  C     C_R   0.782694 0.951796 0.717306 -0.057951
C919  C     C_R   0.282694 0.048204 0.782694 -0.057952
C920  C     C_R   0.717306 0.951796 0.217306 -0.057951
C921  C     C_R   0.782694 0.048204 0.717306 -0.057951
C922  C     C_R   0.217306 0.951796 0.282694 -0.057951
C923  C     C_R   0.717306 0.048204 0.217306 -0.057951
C924  C     C_R   0.771198 0.029737 0.728801 0.808293
C925  C     C_R   0.282694 0.951796 0.782694 -0.057951
C926  C     C_R   0.048204 0.282694 0.217306 -0.057951
C927  C     C_R   0.951796 0.717306 0.782694 -0.057951
C928  C     C_R   0.048204 0.782694 0.282694 -0.057952
C929  C     C_R   0.951796 0.217306 0.717306 -0.057951
C930  C     C_R   0.048204 0.717306 0.782694 -0.057951
C931  C     C_R   0.951796 0.282694 0.217306 -0.057951
C932  C     C_R   0.048204 0.217306 0.717306 -0.057951
C933  C     C_R   0.951796 0.782694 0.282694 -0.057951
C934  C     C_R   0.951796 0.717306 0.217306 -0.057951
C935  C     C_R   0.970263 0.228801 0.728801 0.808294
C936  C     C_R   0.048204 0.282694 0.782694 -0.057952
C937  C     C_R   0.951796 0.217306 0.282694 -0.057951
C938  C     C_R   0.048204 0.782694 0.717306 -0.057951
C939  C     C_R   0.951796 0.282694 0.782694 -0.057951
C940  C     C_R   0.048204 0.717306 0.217306 -0.057951
C941  C     C_R   0.951796 0.782694 0.717306 -0.057951
C942  C     C_R   0.048204 0.217306 0.282694 -0.057951
C943  C     C_R   0.717306 0.782694 0.048204 -0.057951
C944  C     C_R   0.282694 0.217306 0.951796 -0.057951
C945  C     C_R   0.217306 0.717306 0.048204 -0.057952
C946  C     C_R   0.271198 0.271198 0.470263 0.808294
C947  C     C_R   0.029737 0.771198 0.271198 0.808293
C948  C     C_R   0.782694 0.282694 0.951796 -0.057952
C949  C     C_R   0.282694 0.217306 0.048204 -0.057951
C950  C     C_R   0.717306 0.782694 0.951796 -0.057951
C951  C     C_R   0.782694 0.282694 0.048204 -0.057952
C952  C     C_R   0.217306 0.717306 0.951796 -0.057952
C953  C     C_R   0.282694 0.782694 0.951796 -0.057952
C954  C     C_R   0.717306 0.217306 0.048204 -0.057952
C955  C     C_R   0.782694 0.717306 0.951796 -0.057951
C956  C     C_R   0.217306 0.282694 0.048204 -0.057951
C957  C     C_R   0.717306 0.217306 0.951796 -0.057952
C958  C     C_R   0.228801 0.029737 0.728801 0.808293
C959  C     C_R   0.282694 0.782694 0.048204 -0.057952
C960  C     C_R   0.217306 0.282694 0.951796 -0.057951
C961  C     C_R   0.782694 0.717306 0.048204 -0.057951
C962  C     C_R   0.717306 0.451796 0.717306 -0.057951
C963  C     C_R   0.282694 0.548204 0.282694 -0.057952
C964  C     C_R   0.282694 0.451796 0.717306 -0.057951
C965  C     C_R   0.717306 0.548204 0.282694 -0.057951
C966  C     C_R   0.282694 0.451796 0.282694 -0.057951
C967  C     C_R   0.717306 0.548204 0.717306 -0.057951
C968  C     C_R   0.717306 0.451796 0.282694 -0.057951
C969  C     C_R   0.771198 0.970263 0.271198 0.808294
C970  C     C_R   0.282694 0.548204 0.717306 -0.057951
C971  C     C_R   0.548204 0.282694 0.717306 -0.057951
C972  C     C_R   0.451796 0.717306 0.282694 -0.057951
C973  C     C_R   0.548204 0.282694 0.282694 -0.057952
C974  C     C_R   0.451796 0.717306 0.717306 -0.057951
C975  C     C_R   0.548204 0.717306 0.282694 -0.057951
C976  C     C_R   0.451796 0.282694 0.717306 -0.057951
C977  C     C_R   0.548204 0.717306 0.717306 -0.057951
C978  C     C_R   0.451796 0.282694 0.282694 -0.057951
C979  C     C_R   0.717306 0.282694 0.548204 -0.057951
C980  C     C_R   0.029737 0.771198 0.728801 0.808293
C981  C     C_R   0.282694 0.717306 0.451796 -0.057951
C982  C     C_R   0.717306 0.717306 0.548204 -0.057952
C983  C     C_R   0.282694 0.282694 0.451796 -0.057952
C984  C     C_R   0.282694 0.717306 0.548204 -0.057951
C985  C     C_R   0.717306 0.282694 0.451796 -0.057951
C986  C     C_R   0.282694 0.282694 0.548204 -0.057952
C987  C     C_R   0.717306 0.717306 0.451796 -0.057952
C988  C     C_R   0.217306 0.451796 0.217306 -0.057951
C989  C     C_R   0.782694 0.548204 0.782694 -0.057952
C990  C     C_R   0.782694 0.451796 0.217306 -0.057951
C991  C     C_R   0.970263 0.228801 0.271198 0.808294
C992  C     C_R   0.217306 0.548204 0.782694 -0.057951
C993  C     C_R   0.782694 0.451796 0.782694 -0.057951
C994  C     C_R   0.217306 0.548204 0.217306 -0.057951
C995  C     C_R   0.217306 0.451796 0.782694 -0.057951
C996  C     C_R   0.782694 0.548204 0.217306 -0.057951
C997  C     C_R   0.548204 0.782694 0.217306 -0.057951
C998  C     C_R   0.451796 0.217306 0.782694 -0.057951
C999  C     C_R   0.548204 0.782694 0.782694 -0.057952
C1000 C     C_R   0.451796 0.217306 0.217306 -0.057951
C1001 C     C_R   0.548204 0.217306 0.782694 -0.057951
C1002 C     C_R   0.771198 0.970263 0.728801 0.808294
C1003 C     C_R   0.451796 0.782694 0.217306 -0.057951
C1004 C     C_R   0.548204 0.217306 0.217306 -0.057951
C1005 C     C_R   0.451796 0.782694 0.782694 -0.057951
C1006 C     C_R   0.217306 0.782694 0.548204 -0.057951
C1007 C     C_R   0.782694 0.217306 0.451796 -0.057951
C1008 C     C_R   0.217306 0.217306 0.548204 -0.057952
C1009 C     C_R   0.782694 0.782694 0.451796 -0.057952
C1010 C     C_R   0.782694 0.217306 0.548204 -0.057951
C1011 C     C_R   0.217306 0.782694 0.451796 -0.057951
C1012 C     C_R   0.782694 0.782694 0.548204 -0.057952
C1013 C     C_R   0.228801 0.029737 0.271198 0.808293
C1014 C     C_R   0.217306 0.217306 0.451796 -0.057952
C1015 C     C_R   0.196799 0.915112 0.696799 0.106607
C1016 C     C_R   0.803201 0.084888 0.303201 0.106607
C1017 C     C_R   0.303201 0.915112 0.196799 0.106607
C1018 C     C_R   0.696799 0.084888 0.803201 0.106607
C1019 C     C_R   0.803201 0.915112 0.303201 0.106607
C1020 C     C_R   0.196799 0.084888 0.696799 0.106607
C1021 C     C_R   0.696799 0.915112 0.803201 0.106607
C1022 C     C_R   0.303201 0.084888 0.196799 0.106607
C1023 C     C_R   0.196799 0.084888 0.303201 0.106607
C1024 C     C_R   0.168353 0.860211 0.668353 -0.076619
C1025 C     C_R   0.803201 0.915112 0.696799 0.106607
C1026 C     C_R   0.303201 0.084888 0.803201 0.106607
C1027 C     C_R   0.696799 0.915112 0.196799 0.106607
C1028 C     C_R   0.803201 0.084888 0.696799 0.106607
C1029 C     C_R   0.196799 0.915112 0.303201 0.106607
C1030 C     C_R   0.696799 0.084888 0.196799 0.106607
C1031 C     C_R   0.303201 0.915112 0.803201 0.106607
C1032 C     C_R   0.084888 0.303201 0.196799 0.106607
C1033 C     C_R   0.915112 0.696799 0.803201 0.106607
C1034 C     C_R   0.084888 0.803201 0.303201 0.106607
C1035 C     C_R   0.831647 0.139789 0.331647 -0.076619
C1036 C     C_R   0.915112 0.196799 0.696799 0.106607
C1037 C     C_R   0.084888 0.696799 0.803201 0.106607
C1038 C     C_R   0.915112 0.303201 0.196799 0.106607
C1039 C     C_R   0.084888 0.196799 0.696799 0.106607
C1040 C     C_R   0.915112 0.803201 0.303201 0.106607
C1041 C     C_R   0.915112 0.696799 0.196799 0.106607
C1042 C     C_R   0.084888 0.303201 0.803201 0.106607
C1043 C     C_R   0.915112 0.196799 0.303201 0.106607
C1044 C     C_R   0.084888 0.803201 0.696799 0.106607
C1045 C     C_R   0.915112 0.303201 0.803201 0.106607
C1046 C     C_R   0.331647 0.860211 0.168353 -0.076620
C1047 C     C_R   0.084888 0.696799 0.196799 0.106607
C1048 C     C_R   0.915112 0.803201 0.696799 0.106607
C1049 C     C_R   0.084888 0.196799 0.303201 0.106607
C1050 C     C_R   0.696799 0.803201 0.084888 0.106608
C1051 C     C_R   0.303201 0.196799 0.915112 0.106608
C1052 C     C_R   0.196799 0.696799 0.084888 0.106608
C1053 C     C_R   0.803201 0.303201 0.915112 0.106608
C1054 C     C_R   0.303201 0.196799 0.084888 0.106608
C1055 C     C_R   0.696799 0.803201 0.915112 0.106608
C1056 C     C_R   0.803201 0.303201 0.084888 0.106608
Cl1   Cl    Cl    0.137493 0.862506 0.701624 -0.606718
Cl2   Cl    Cl    0.862506 0.862506 0.701624 -0.606718
Cl3   Cl    Cl    0.298376 0.137493 0.862506 -0.606718
Cl4   Cl    Cl    0.701623 0.862506 0.137493 -0.606718
Cl5   Cl    Cl    0.862506 0.137493 0.701624 -0.606718
Cl6   Cl    Cl    0.137493 0.862506 0.298376 -0.606718
Cl7   Cl    Cl    0.701623 0.137493 0.137493 -0.606718
Cl8   Cl    Cl    0.298376 0.862506 0.862506 -0.606718
Cl9   Cl    Cl    0.137493 0.298376 0.137493 -0.606718
Cl10  Cl    Cl    0.862506 0.701623 0.862506 -0.606718
Cl11  Cl    Cl    0.137493 0.701623 0.862506 -0.606717
Cl12  Cl    Cl    0.862506 0.137493 0.298376 -0.606718
Cl13  Cl    Cl    0.862506 0.298376 0.137493 -0.606717
Cl14  Cl    Cl    0.862506 0.701623 0.137493 -0.606718
Cl15  Cl    Cl    0.137493 0.298376 0.862506 -0.606718
Cl16  Cl    Cl    0.862506 0.298376 0.862506 -0.606718
Cl17  Cl    Cl    0.137493 0.701623 0.137493 -0.606718
Cl18  Cl    Cl    0.637494 0.362506 0.701624 -0.606718
Cl19  Cl    Cl    0.362506 0.637494 0.298376 -0.606718
Cl20  Cl    Cl    0.298376 0.362507 0.637493 -0.606717
Cl21  Cl    Cl    0.701623 0.637493 0.362507 -0.606717
Cl22  Cl    Cl    0.362506 0.362506 0.298376 -0.606718
Cl23  Cl    Cl    0.298376 0.862506 0.137493 -0.606717
Cl24  Cl    Cl    0.637494 0.637494 0.701624 -0.606718
Cl25  Cl    Cl    0.701623 0.362507 0.362507 -0.606718
Cl26  Cl    Cl    0.298376 0.637493 0.637493 -0.606718
Cl27  Cl    Cl    0.637494 0.637494 0.298376 -0.606718
Cl28  Cl    Cl    0.362506 0.362506 0.701624 -0.606718
Cl29  Cl    Cl    0.298376 0.637494 0.362507 -0.606718
Cl30  Cl    Cl    0.701623 0.362506 0.637493 -0.606718
Cl31  Cl    Cl    0.362506 0.637494 0.701624 -0.606718
Cl32  Cl    Cl    0.637494 0.362506 0.298376 -0.606718
Cl33  Cl    Cl    0.701623 0.637493 0.637494 -0.606718
Cl34  Cl    Cl    0.701623 0.137493 0.862506 -0.606717
Cl35  Cl    Cl    0.298376 0.362507 0.362506 -0.606718
Cl36  Cl    Cl    0.637493 0.298376 0.637493 -0.606718
Cl37  Cl    Cl    0.362507 0.701623 0.362507 -0.606718
Cl38  Cl    Cl    0.637493 0.701623 0.362507 -0.606717
Cl39  Cl    Cl    0.362507 0.298376 0.637493 -0.606717
Cl40  Cl    Cl    0.362506 0.701623 0.637493 -0.606718
Cl41  Cl    Cl    0.637494 0.298376 0.362507 -0.606718
Cl42  Cl    Cl    0.362507 0.298376 0.362506 -0.606718
Cl43  Cl    Cl    0.637493 0.701623 0.637494 -0.606718
Cl44  Cl    Cl    0.637494 0.862506 0.201624 -0.606718
Cl45  Cl    Cl    0.862506 0.862506 0.298376 -0.606718
Cl46  Cl    Cl    0.362506 0.137493 0.798376 -0.606718
Cl47  Cl    Cl    0.798376 0.862506 0.637493 -0.606717
Cl48  Cl    Cl    0.201624 0.137493 0.362507 -0.606717
Cl49  Cl    Cl    0.362506 0.862506 0.798376 -0.606718
Cl50  Cl    Cl    0.637494 0.137493 0.201624 -0.606718
Cl51  Cl    Cl    0.201624 0.862506 0.362507 -0.606718
Cl52  Cl    Cl    0.798376 0.137493 0.637493 -0.606718
Cl53  Cl    Cl    0.637494 0.137493 0.798376 -0.606718
Cl54  Cl    Cl    0.362506 0.862506 0.201624 -0.606718
Cl55  Cl    Cl    0.798376 0.137493 0.362507 -0.606718
Cl56  Cl    Cl    0.137493 0.137493 0.701624 -0.606718
Cl57  Cl    Cl    0.201624 0.862506 0.637493 -0.606718
Cl58  Cl    Cl    0.362506 0.137493 0.201624 -0.606718
Cl59  Cl    Cl    0.637494 0.862506 0.798376 -0.606718
Cl60  Cl    Cl    0.201624 0.137493 0.637494 -0.606718
Cl61  Cl    Cl    0.798376 0.862506 0.362506 -0.606718
Cl62  Cl    Cl    0.137493 0.798376 0.637493 -0.606718
Cl63  Cl    Cl    0.862506 0.201624 0.362507 -0.606718
Cl64  Cl    Cl    0.137493 0.362506 0.798376 -0.606718
Cl65  Cl    Cl    0.862506 0.637494 0.201624 -0.606718
Cl66  Cl    Cl    0.137493 0.201624 0.362507 -0.606717
Cl67  Cl    Cl    0.701623 0.862506 0.862506 -0.606718
Cl68  Cl    Cl    0.862506 0.798376 0.637493 -0.606717
Cl69  Cl    Cl    0.137493 0.637494 0.201624 -0.606718
Cl70  Cl    Cl    0.862506 0.362506 0.798376 -0.606718
Cl71  Cl    Cl    0.862506 0.201624 0.637493 -0.606718
Cl72  Cl    Cl    0.137493 0.798376 0.362507 -0.606718
Cl73  Cl    Cl    0.862506 0.637494 0.798376 -0.606718
Cl74  Cl    Cl    0.137493 0.362506 0.201624 -0.606718
Cl75  Cl    Cl    0.862506 0.798376 0.362506 -0.606718
Cl76  Cl    Cl    0.137493 0.201624 0.637494 -0.606718
Cl77  Cl    Cl    0.862506 0.362506 0.201624 -0.606718
Cl78  Cl    Cl    0.298376 0.137493 0.137493 -0.606718
Cl79  Cl    Cl    0.137493 0.637494 0.798376 -0.606718
Cl80  Cl    Cl    0.201624 0.362506 0.137493 -0.606718
Cl81  Cl    Cl    0.798376 0.637494 0.862506 -0.606718
Cl82  Cl    Cl    0.637493 0.201624 0.137493 -0.606718
Cl83  Cl    Cl    0.362507 0.798376 0.862506 -0.606718
Cl84  Cl    Cl    0.798376 0.637493 0.137493 -0.606718
Cl85  Cl    Cl    0.201624 0.362507 0.862506 -0.606718
Cl86  Cl    Cl    0.362507 0.798376 0.137493 -0.606717
Cl87  Cl    Cl    0.637493 0.201624 0.862506 -0.606717
Cl88  Cl    Cl    0.798376 0.362507 0.862506 -0.606718
Cl89  Cl    Cl    0.137493 0.137493 0.298376 -0.606718
Cl90  Cl    Cl    0.201624 0.637493 0.137493 -0.606718
Cl91  Cl    Cl    0.362507 0.201624 0.862506 -0.606718
Cl92  Cl    Cl    0.637493 0.798376 0.137493 -0.606718
Cl93  Cl    Cl    0.201624 0.637493 0.862506 -0.606717
Cl94  Cl    Cl    0.798376 0.362507 0.137493 -0.606717
Cl95  Cl    Cl    0.637494 0.798376 0.862506 -0.606718
Cl96  Cl    Cl    0.362506 0.201624 0.137493 -0.606718
Cu1   Cu    Cu3+1 0.264860 0.764860 0.500000 0.961534
Cu2   Cu    Cu3+1 0.764860 0.500000 0.735140 0.961534
Cu3   Cu    Cu3+1 0.235140 0.735140 0.500000 0.961534
Cu4   Cu    Cu3+1 0.764860 0.264860 0.500000 0.961534
Cu5   Cu    Cu3+1 0.235140 0.500000 0.735140 0.961534
Cu6   Cu    Cu3+1 0.764860 0.500000 0.264860 0.961534
Cu7   Cu    Cu3+1 0.235140 0.264860 0.500000 0.961534
Cu8   Cu    Cu3+1 0.764860 0.735140 0.500000 0.961534
Cu9   Cu    Cu3+1 0.500000 0.735140 0.235140 0.961534
Cu10  Cu    Cu3+1 0.500000 0.264860 0.764860 0.961534
Cu11  Cu    Cu3+1 0.264860 0.500000 0.235140 0.961534
Cu12  Cu    Cu3+1 0.735140 0.235140 0.500000 0.961534
Cu13  Cu    Cu3+1 0.735140 0.500000 0.764860 0.961534
Cu14  Cu    Cu3+1 0.500000 0.264860 0.235140 0.961534
Cu15  Cu    Cu3+1 0.500000 0.735140 0.764860 0.961534
Cu16  Cu    Cu3+1 0.735140 0.500000 0.235140 0.961534
Cu17  Cu    Cu3+1 0.264860 0.500000 0.764860 0.961534
Cu18  Cu    Cu3+1 0.764860 0.764860 0.000000 0.961534
Cu19  Cu    Cu3+1 0.235140 0.235140 0.000000 0.961534
Cu20  Cu    Cu3+1 0.000000 0.764860 0.764860 0.961534
Cu21  Cu    Cu3+1 0.000000 0.235140 0.235140 0.961534
Cu22  Cu    Cu3+1 0.235140 0.764860 0.000000 0.961534
Cu23  Cu    Cu3+1 0.500000 0.764860 0.264860 0.961534
Cu24  Cu    Cu3+1 0.764860 0.235140 0.000000 0.961534
Cu25  Cu    Cu3+1 0.000000 0.764860 0.235140 0.961534
Cu26  Cu    Cu3+1 1.000000 0.235140 0.764860 0.961534
Cu27  Cu    Cu3+1 0.235140 0.000000 0.764860 0.961534
Cu28  Cu    Cu3+1 0.764860 0.000000 0.235140 0.961534
Cu29  Cu    Cu3+1 0.235140 0.000000 0.235140 0.961534
Cu30  Cu    Cu3+1 0.764860 0.000000 0.764860 0.961534
Cu31  Cu    Cu3+1 0.264860 0.264860 0.000000 0.961534
Cu32  Cu    Cu3+1 0.735140 0.735140 0.000000 0.961534
Cu33  Cu    Cu3+1 0.000000 0.264860 0.264860 0.961534
Cu34  Cu    Cu3+1 0.500000 0.235140 0.735140 0.961534
Cu35  Cu    Cu3+1 1.000000 0.735140 0.735140 0.961534
Cu36  Cu    Cu3+1 0.735140 0.264860 0.000000 0.961534
Cu37  Cu    Cu3+1 0.264860 0.735140 0.000000 0.961534
Cu38  Cu    Cu3+1 1.000000 0.264860 0.735140 0.961534
Cu39  Cu    Cu3+1 1.000000 0.735140 0.264860 0.961534
Cu40  Cu    Cu3+1 0.735140 0.000000 0.264860 0.961534
Cu41  Cu    Cu3+1 0.264860 1.000000 0.735140 0.961534
Cu42  Cu    Cu3+1 0.735140 1.000000 0.735140 0.961534
Cu43  Cu    Cu3+1 0.264860 0.000000 0.264860 0.961534
Cu44  Cu    Cu3+1 0.735140 0.764860 0.500000 0.961534
Cu45  Cu    Cu3+1 0.264860 0.235140 0.500000 0.961534
Cu46  Cu    Cu3+1 0.500000 0.764860 0.735140 0.961534
Cu47  Cu    Cu3+1 0.500000 0.235140 0.264860 0.961534
Cu48  Cu    Cu3+1 0.235140 0.500000 0.264860 0.961534
H1    H     H_    0.190730 0.949169 0.741004 0.156918
H2    H     H_    0.809272 0.949171 0.741002 0.156918
H3    H     H_    0.241004 0.050830 0.309270 0.156918
H4    H     H_    0.309272 0.949171 0.758998 0.156918
H5    H     H_    0.690728 0.050828 0.241002 0.156918
H6    H     H_    0.241002 0.949171 0.309272 0.156918
H7    H     H_    0.758998 0.050829 0.690728 0.156918
H8    H     H_    0.690728 0.050829 0.758998 0.156918
H9    H     H_    0.309272 0.949171 0.241002 0.156918
H10   H     H_    0.758998 0.050829 0.309272 0.156917
H11   H     H_    0.241002 0.949171 0.690728 0.156917
H12   H     H_    0.309270 0.050830 0.241004 0.156918
H13   H     H_    0.258998 0.050829 0.809272 0.156917
H14   H     H_    0.690730 0.949169 0.758996 0.156918
H15   H     H_    0.241004 0.050831 0.690730 0.156917
H16   H     H_    0.758996 0.949169 0.309270 0.156917
H17   H     H_    0.050829 0.758998 0.690728 0.156918
H18   H     H_    0.949171 0.241002 0.309272 0.156918
H19   H     H_    0.050830 0.309270 0.758996 0.156917
H20   H     H_    0.949169 0.690730 0.241004 0.156918
H21   H     H_    0.050830 0.241004 0.309270 0.156918
H22   H     H_    0.949169 0.758996 0.690730 0.156918
H23   H     H_    0.050828 0.690728 0.241002 0.156918
H24   H     H_    0.741002 0.949171 0.190728 0.156917
H25   H     H_    0.949171 0.309272 0.758998 0.156918
H26   H     H_    0.949171 0.241002 0.690728 0.156917
H27   H     H_    0.050829 0.758998 0.309272 0.156917
H28   H     H_    0.949169 0.690730 0.758996 0.156918
H29   H     H_    0.050830 0.309270 0.241004 0.156918
H30   H     H_    0.949169 0.758996 0.309270 0.156917
H31   H     H_    0.050831 0.241004 0.690730 0.156917
H32   H     H_    0.949171 0.309272 0.241002 0.156918
H33   H     H_    0.050829 0.690728 0.758998 0.156918
H34   H     H_    0.241003 0.309271 0.050829 0.156918
H35   H     H_    0.809270 0.050830 0.741004 0.156918
H36   H     H_    0.758997 0.690729 0.949170 0.156918
H37   H     H_    0.690729 0.241003 0.050829 0.156917
H38   H     H_    0.309271 0.758997 0.949170 0.156917
H39   H     H_    0.758997 0.690729 0.050829 0.156917
H40   H     H_    0.241003 0.309271 0.949170 0.156917
H41   H     H_    0.309271 0.758997 0.050829 0.156917
H42   H     H_    0.690729 0.241003 0.949170 0.156917
H43   H     H_    0.758997 0.309271 0.949170 0.156917
H44   H     H_    0.241003 0.690729 0.050829 0.156917
H45   H     H_    0.309271 0.241003 0.949170 0.156917
H46   H     H_    0.190730 0.949169 0.258996 0.156918
H47   H     H_    0.690729 0.758997 0.050829 0.156917
H48   H     H_    0.241003 0.690729 0.949170 0.156917
H49   H     H_    0.758997 0.309271 0.050829 0.156917
H50   H     H_    0.690729 0.758997 0.949170 0.156918
H51   H     H_    0.309271 0.241003 0.050829 0.156918
H52   H     H_    0.190730 0.449169 0.241004 0.156918
H53   H     H_    0.809270 0.550831 0.758996 0.156917
H54   H     H_    0.758996 0.449169 0.190730 0.156918
H55   H     H_    0.241004 0.550830 0.809270 0.156918
H56   H     H_    0.809272 0.449171 0.758998 0.156918
H57   H     H_    0.741004 0.050830 0.190730 0.156917
H58   H     H_    0.190728 0.550829 0.241002 0.156918
H59   H     H_    0.241002 0.449171 0.809272 0.156918
H60   H     H_    0.758998 0.550829 0.190728 0.156918
H61   H     H_    0.190728 0.550829 0.758998 0.156918
H62   H     H_    0.809272 0.449171 0.241002 0.156918
H63   H     H_    0.758998 0.550829 0.809272 0.156917
H64   H     H_    0.241002 0.449171 0.190728 0.156917
H65   H     H_    0.809270 0.550830 0.241004 0.156918
H66   H     H_    0.190730 0.449169 0.758996 0.156918
H67   H     H_    0.241004 0.550831 0.190730 0.156917
H68   H     H_    0.258996 0.949169 0.809270 0.156917
H69   H     H_    0.758996 0.449169 0.809270 0.156917
H70   H     H_    0.550829 0.758998 0.190728 0.156918
H71   H     H_    0.449171 0.241002 0.809272 0.156918
H72   H     H_    0.550831 0.809270 0.758996 0.156917
H73   H     H_    0.449169 0.190730 0.241004 0.156918
H74   H     H_    0.550830 0.241004 0.809270 0.156918
H75   H     H_    0.449169 0.758996 0.190730 0.156918
H76   H     H_    0.550829 0.190728 0.241002 0.156918
H77   H     H_    0.449171 0.809272 0.758998 0.156918
H78   H     H_    0.449171 0.241002 0.190728 0.156917
H79   H     H_    0.050829 0.258998 0.190728 0.156918
H80   H     H_    0.550829 0.758998 0.809272 0.156917
H81   H     H_    0.449169 0.190730 0.758996 0.156918
H82   H     H_    0.550830 0.809270 0.241004 0.156918
H83   H     H_    0.449169 0.758996 0.809270 0.156917
H84   H     H_    0.550831 0.241004 0.190730 0.156917
H85   H     H_    0.449171 0.809272 0.241002 0.156918
H86   H     H_    0.550829 0.190728 0.758998 0.156918
H87   H     H_    0.241003 0.809271 0.550829 0.156918
H88   H     H_    0.758997 0.190729 0.449170 0.156918
H89   H     H_    0.190729 0.241003 0.550829 0.156917
H90   H     H_    0.949171 0.741002 0.809272 0.156918
H91   H     H_    0.809271 0.758997 0.449170 0.156917
H92   H     H_    0.758997 0.190729 0.550829 0.156917
H93   H     H_    0.241003 0.809271 0.449170 0.156917
H94   H     H_    0.809271 0.758997 0.550829 0.156917
H95   H     H_    0.190729 0.241003 0.449170 0.156917
H96   H     H_    0.758997 0.809271 0.449170 0.156917
H97   H     H_    0.241003 0.190729 0.550829 0.156917
H98   H     H_    0.809271 0.241003 0.449170 0.156917
H99   H     H_    0.190729 0.758997 0.550829 0.156917
H100  H     H_    0.241003 0.190729 0.449170 0.156917
H101  H     H_    0.050831 0.809270 0.258996 0.156917
H102  H     H_    0.758997 0.809271 0.550829 0.156917
H103  H     H_    0.190729 0.758997 0.449170 0.156918
H104  H     H_    0.809271 0.241003 0.550829 0.156918
H105  H     H_    0.173028 0.917465 0.723162 0.162405
H106  H     H_    0.826972 0.082535 0.276838 0.162405
H107  H     H_    0.276838 0.917465 0.173028 0.162406
H108  H     H_    0.723162 0.082535 0.826972 0.162406
H109  H     H_    0.826973 0.917467 0.276840 0.162405
H110  H     H_    0.173026 0.082533 0.723160 0.162405
H111  H     H_    0.723160 0.917467 0.826973 0.162406
H112  H     H_    0.809270 0.050830 0.258996 0.156917
H113  H     H_    0.949169 0.190730 0.741004 0.156918
H114  H     H_    0.276840 0.082533 0.173027 0.162406
H115  H     H_    0.173026 0.082533 0.276840 0.162405
H116  H     H_    0.826973 0.917467 0.723160 0.162405
H117  H     H_    0.276840 0.082533 0.826973 0.162405
H118  H     H_    0.723160 0.917467 0.173026 0.162405
H119  H     H_    0.826972 0.082535 0.723162 0.162406
H120  H     H_    0.173028 0.917465 0.276838 0.162406
H121  H     H_    0.723162 0.082535 0.173028 0.162405
H122  H     H_    0.276838 0.917465 0.826972 0.162405
H123  H     H_    0.082533 0.276840 0.173027 0.162406
H124  H     H_    0.050830 0.741004 0.809270 0.156918
H125  H     H_    0.917467 0.723160 0.826973 0.162406
H126  H     H_    0.082535 0.826972 0.276838 0.162405
H127  H     H_    0.917465 0.173028 0.723162 0.162405
H128  H     H_    0.082535 0.723162 0.826972 0.162406
H129  H     H_    0.917465 0.276838 0.173028 0.162406
H130  H     H_    0.082533 0.173026 0.723160 0.162405
H131  H     H_    0.917467 0.826973 0.276840 0.162405
H132  H     H_    0.917467 0.723160 0.173026 0.162405
H133  H     H_    0.082533 0.276840 0.826973 0.162405
H134  H     H_    0.917465 0.173028 0.276838 0.162406
H135  H     H_    0.949169 0.258996 0.190730 0.156918
H136  H     H_    0.082535 0.826972 0.723162 0.162406
H137  H     H_    0.917465 0.276838 0.826972 0.162405
H138  H     H_    0.082535 0.723162 0.173028 0.162405
H139  H     H_    0.917467 0.826973 0.723160 0.162405
H140  H     H_    0.082533 0.173026 0.276840 0.162405
H141  H     H_    0.723161 0.826973 0.082534 0.162405
H142  H     H_    0.276839 0.173027 0.917466 0.162406
H143  H     H_    0.173027 0.723161 0.082534 0.162406
H144  H     H_    0.826973 0.276839 0.917466 0.162406
H145  H     H_    0.276839 0.173027 0.082534 0.162405
H146  H     H_    0.050828 0.190728 0.741002 0.156918
H147  H     H_    0.723161 0.826973 0.917466 0.162405
H148  H     H_    0.826973 0.276839 0.082534 0.162406
H149  H     H_    0.173027 0.723161 0.917466 0.162406
H150  H     H_    0.276839 0.826973 0.917466 0.162406
H151  H     H_    0.723161 0.173027 0.082534 0.162406
H152  H     H_    0.826973 0.723161 0.917466 0.162405
H153  H     H_    0.173027 0.276839 0.082534 0.162405
H154  H     H_    0.723161 0.173027 0.917466 0.162406
H155  H     H_    0.276839 0.826973 0.082534 0.162406
H156  H     H_    0.173027 0.276839 0.917466 0.162406
H157  H     H_    0.949171 0.809272 0.258998 0.156918
H158  H     H_    0.826973 0.723161 0.082534 0.162405
H159  H     H_    0.673028 0.417465 0.723162 0.162405
H160  H     H_    0.326972 0.582535 0.276838 0.162405
H161  H     H_    0.276838 0.417465 0.673028 0.162406
H162  H     H_    0.723162 0.582535 0.326972 0.162406
H163  H     H_    0.326973 0.417467 0.276840 0.162405
H164  H     H_    0.673026 0.582533 0.723160 0.162405
H165  H     H_    0.723160 0.417467 0.326973 0.162406
H166  H     H_    0.276840 0.582533 0.673027 0.162406
H167  H     H_    0.673026 0.582533 0.276840 0.162405
H168  H     H_    0.949171 0.741002 0.190728 0.156917
H169  H     H_    0.326973 0.417467 0.723160 0.162405
H170  H     H_    0.276840 0.582533 0.326973 0.162405
H171  H     H_    0.723160 0.417467 0.673027 0.162405
H172  H     H_    0.326972 0.582535 0.723162 0.162406
H173  H     H_    0.673028 0.417465 0.276838 0.162406
H174  H     H_    0.723162 0.582535 0.673028 0.162405
H175  H     H_    0.276838 0.417465 0.326972 0.162405
H176  H     H_    0.582533 0.276840 0.673027 0.162406
H177  H     H_    0.417467 0.723160 0.326973 0.162406
H178  H     H_    0.582535 0.326972 0.276838 0.162405
H179  H     H_    0.050829 0.258998 0.809272 0.156917
H180  H     H_    0.417465 0.673028 0.723162 0.162405
H181  H     H_    0.582535 0.723162 0.326972 0.162406
H182  H     H_    0.417465 0.276838 0.673028 0.162406
H183  H     H_    0.582533 0.673026 0.723160 0.162405
H184  H     H_    0.417467 0.326973 0.276840 0.162405
H185  H     H_    0.417467 0.723160 0.673027 0.162405
H186  H     H_    0.582533 0.276840 0.326973 0.162405
H187  H     H_    0.417465 0.673028 0.276838 0.162406
H188  H     H_    0.582535 0.326972 0.723162 0.162406
H189  H     H_    0.417465 0.276838 0.326972 0.162405
H190  H     H_    0.949169 0.190730 0.258996 0.156918
H191  H     H_    0.582535 0.723162 0.673028 0.162405
H192  H     H_    0.417467 0.326973 0.723160 0.162405
H193  H     H_    0.582533 0.673026 0.276840 0.162405
H194  H     H_    0.723161 0.326973 0.582534 0.162405
H195  H     H_    0.276839 0.673027 0.417466 0.162406
H196  H     H_    0.673027 0.723161 0.582534 0.162406
H197  H     H_    0.326973 0.276839 0.417466 0.162406
H198  H     H_    0.276839 0.673027 0.582534 0.162405
H199  H     H_    0.723161 0.326973 0.417466 0.162405
H200  H     H_    0.326973 0.276839 0.582534 0.162406
H201  H     H_    0.050830 0.809270 0.741004 0.156918
H202  H     H_    0.673027 0.723161 0.417466 0.162406
H203  H     H_    0.276839 0.326973 0.417466 0.162406
H204  H     H_    0.723161 0.673027 0.582534 0.162406
H205  H     H_    0.326973 0.723161 0.417466 0.162405
H206  H     H_    0.673027 0.276839 0.582534 0.162405
H207  H     H_    0.723161 0.673027 0.417466 0.162406
H208  H     H_    0.276839 0.326973 0.582534 0.162406
H209  H     H_    0.673027 0.276839 0.417466 0.162406
H210  H     H_    0.326973 0.723161 0.582534 0.162405
H211  H     H_    0.673028 0.917465 0.223162 0.162405
H212  H     H_    0.949169 0.258996 0.809270 0.156917
H213  H     H_    0.326972 0.082535 0.776838 0.162405
H214  H     H_    0.776838 0.917465 0.673028 0.162406
H215  H     H_    0.223162 0.082535 0.326972 0.162406
H216  H     H_    0.326973 0.917467 0.776840 0.162405
H217  H     H_    0.673026 0.082533 0.223160 0.162405
H218  H     H_    0.223160 0.917467 0.326973 0.162406
H219  H     H_    0.776840 0.082533 0.673027 0.162406
H220  H     H_    0.673026 0.082533 0.776840 0.162405
H221  H     H_    0.326973 0.917467 0.223160 0.162405
H222  H     H_    0.776840 0.082533 0.326973 0.162405
H223  H     H_    0.258996 0.949169 0.190730 0.156918
H224  H     H_    0.050830 0.741004 0.190730 0.156917
H225  H     H_    0.223160 0.917467 0.673027 0.162405
H226  H     H_    0.326972 0.082535 0.223162 0.162406
H227  H     H_    0.673028 0.917465 0.776838 0.162406
H228  H     H_    0.223162 0.082535 0.673028 0.162405
H229  H     H_    0.776838 0.917465 0.326972 0.162405
H230  H     H_    0.082533 0.776840 0.673027 0.162406
H231  H     H_    0.917467 0.223160 0.326973 0.162406
H232  H     H_    0.082535 0.326972 0.776838 0.162405
H233  H     H_    0.917465 0.673028 0.223162 0.162405
H234  H     H_    0.082535 0.223162 0.326972 0.162406
H235  H     H_    0.949171 0.809272 0.741002 0.156918
H236  H     H_    0.917465 0.776838 0.673028 0.162406
H237  H     H_    0.082533 0.673026 0.223160 0.162405
H238  H     H_    0.917467 0.326973 0.776840 0.162405
H239  H     H_    0.917467 0.223160 0.673027 0.162405
H240  H     H_    0.082533 0.776840 0.326973 0.162405
H241  H     H_    0.917465 0.673028 0.776838 0.162406
H242  H     H_    0.082535 0.326972 0.223162 0.162406
H243  H     H_    0.917465 0.776838 0.326972 0.162405
H244  H     H_    0.082535 0.223162 0.673028 0.162405
H245  H     H_    0.917467 0.326973 0.223160 0.162405
H246  H     H_    0.050829 0.190728 0.258998 0.156918
H247  H     H_    0.082533 0.673026 0.776840 0.162405
H248  H     H_    0.223161 0.326973 0.082534 0.162405
H249  H     H_    0.776839 0.673027 0.917466 0.162406
H250  H     H_    0.673027 0.223161 0.082534 0.162406
H251  H     H_    0.326973 0.776839 0.917466 0.162406
H252  H     H_    0.776839 0.673027 0.082534 0.162405
H253  H     H_    0.223161 0.326973 0.917466 0.162405
H254  H     H_    0.326973 0.776839 0.082534 0.162406
H255  H     H_    0.673027 0.223161 0.917466 0.162406
H256  H     H_    0.776839 0.326973 0.917466 0.162406
H257  H     H_    0.741003 0.809271 0.050829 0.156918
H258  H     H_    0.223161 0.673027 0.082534 0.162406
H259  H     H_    0.326973 0.223161 0.917466 0.162405
H260  H     H_    0.673027 0.776839 0.082534 0.162405
H261  H     H_    0.223161 0.673027 0.917466 0.162406
H262  H     H_    0.776839 0.326973 0.082534 0.162406
H263  H     H_    0.673027 0.776839 0.917466 0.162406
H264  H     H_    0.326973 0.223161 0.082534 0.162405
H265  H     H_    0.173028 0.417465 0.223162 0.162405
H266  H     H_    0.826972 0.582535 0.776838 0.162405
H267  H     H_    0.776838 0.417465 0.173028 0.162406
H268  H     H_    0.258997 0.190729 0.949170 0.156918
H269  H     H_    0.223162 0.582535 0.826972 0.162406
H270  H     H_    0.826973 0.417467 0.776840 0.162405
H271  H     H_    0.173026 0.582533 0.223160 0.162405
H272  H     H_    0.223160 0.417467 0.826973 0.162406
H273  H     H_    0.776840 0.582533 0.173027 0.162406
H274  H     H_    0.173026 0.582533 0.776840 0.162405
H275  H     H_    0.826973 0.417467 0.223160 0.162405
H276  H     H_    0.776840 0.582533 0.826973 0.162405
H277  H     H_    0.223160 0.417467 0.173026 0.162405
H278  H     H_    0.826972 0.582535 0.223162 0.162406
H279  H     H_    0.190729 0.741003 0.050829 0.156917
H280  H     H_    0.173028 0.417465 0.776838 0.162406
H281  H     H_    0.223162 0.582535 0.173028 0.162405
H282  H     H_    0.776838 0.417465 0.826972 0.162405
H283  H     H_    0.582533 0.776840 0.173027 0.162406
H284  H     H_    0.417467 0.223160 0.826973 0.162406
H285  H     H_    0.582535 0.826972 0.776838 0.162405
H286  H     H_    0.417465 0.173028 0.223162 0.162405
H287  H     H_    0.582535 0.223162 0.826972 0.162406
H288  H     H_    0.417465 0.776838 0.173028 0.162406
H289  H     H_    0.582533 0.173026 0.223160 0.162405
H290  H     H_    0.809271 0.258997 0.949170 0.156917
H291  H     H_    0.417467 0.826973 0.776840 0.162405
H292  H     H_    0.417467 0.223160 0.173026 0.162405
H293  H     H_    0.582533 0.776840 0.826973 0.162405
H294  H     H_    0.417465 0.173028 0.776838 0.162406
H295  H     H_    0.582535 0.826972 0.223162 0.162406
H296  H     H_    0.417465 0.776838 0.826972 0.162405
H297  H     H_    0.582535 0.223162 0.173028 0.162405
H298  H     H_    0.417467 0.826973 0.223160 0.162405
H299  H     H_    0.582533 0.173026 0.776840 0.162405
H300  H     H_    0.223161 0.826973 0.582534 0.162405
H301  H     H_    0.258997 0.190729 0.050829 0.156917
H302  H     H_    0.776839 0.173027 0.417466 0.162406
H303  H     H_    0.173027 0.223161 0.582534 0.162406
H304  H     H_    0.826973 0.776839 0.417466 0.162406
H305  H     H_    0.776839 0.173027 0.582534 0.162405
H306  H     H_    0.223161 0.826973 0.417466 0.162405
H307  H     H_    0.826973 0.776839 0.582534 0.162406
H308  H     H_    0.173027 0.223161 0.417466 0.162406
H309  H     H_    0.776839 0.826973 0.417466 0.162406
H310  H     H_    0.223161 0.173027 0.582534 0.162406
H311  H     H_    0.826973 0.223161 0.417466 0.162405
H312  H     H_    0.741003 0.809271 0.949170 0.156917
H313  H     H_    0.173027 0.776839 0.582534 0.162405
H314  H     H_    0.223161 0.173027 0.417466 0.162406
H315  H     H_    0.776839 0.826973 0.582534 0.162406
H316  H     H_    0.173027 0.776839 0.417466 0.162406
H317  H     H_    0.826973 0.223161 0.582534 0.162405
H318  H     H_    0.809271 0.258997 0.050829 0.156917
H319  H     H_    0.741004 0.050830 0.809270 0.156918
H320  H     H_    0.190729 0.741003 0.949170 0.156917
H321  H     H_    0.258997 0.809271 0.949170 0.156917
H322  H     H_    0.741003 0.190729 0.050829 0.156917
H323  H     H_    0.809271 0.741003 0.949170 0.156917
H324  H     H_    0.190729 0.258997 0.050829 0.156917
H325  H     H_    0.741003 0.190729 0.949170 0.156917
H326  H     H_    0.258997 0.809271 0.050829 0.156917
H327  H     H_    0.190729 0.258997 0.949170 0.156918
H328  H     H_    0.809271 0.741003 0.050829 0.156918
H329  H     H_    0.690730 0.449169 0.741004 0.156918
H330  H     H_    0.809272 0.949171 0.258998 0.156918
H331  H     H_    0.309270 0.550831 0.258996 0.156917
H332  H     H_    0.258996 0.449169 0.690730 0.156918
H333  H     H_    0.741004 0.550830 0.309270 0.156918
H334  H     H_    0.309272 0.449171 0.258998 0.156918
H335  H     H_    0.690728 0.550829 0.741002 0.156918
H336  H     H_    0.741002 0.449171 0.309272 0.156918
H337  H     H_    0.258998 0.550829 0.690728 0.156918
H338  H     H_    0.690728 0.550829 0.258998 0.156918
H339  H     H_    0.309272 0.449171 0.741002 0.156918
H340  H     H_    0.258998 0.550829 0.309272 0.156917
H341  H     H_    0.190728 0.050828 0.741002 0.156918
H342  H     H_    0.741002 0.449171 0.690728 0.156917
H343  H     H_    0.309270 0.550830 0.741004 0.156918
H344  H     H_    0.690730 0.449169 0.258996 0.156918
H345  H     H_    0.741004 0.550831 0.690730 0.156917
H346  H     H_    0.258996 0.449169 0.309270 0.156917
H347  H     H_    0.550829 0.258998 0.690728 0.156918
H348  H     H_    0.449171 0.741002 0.309272 0.156918
H349  H     H_    0.550831 0.309270 0.258996 0.156917
H350  H     H_    0.449169 0.690730 0.741004 0.156918
H351  H     H_    0.550830 0.741004 0.309270 0.156918
H352  H     H_    0.741002 0.949171 0.809272 0.156918
H353  H     H_    0.449169 0.258996 0.690730 0.156918
H354  H     H_    0.550829 0.690728 0.741002 0.156918
H355  H     H_    0.449171 0.309272 0.258998 0.156918
H356  H     H_    0.449171 0.741002 0.690728 0.156917
H357  H     H_    0.550829 0.258998 0.309272 0.156917
H358  H     H_    0.449169 0.690730 0.258996 0.156918
H359  H     H_    0.550830 0.309270 0.741004 0.156918
H360  H     H_    0.449169 0.258996 0.309270 0.156917
H361  H     H_    0.550831 0.741004 0.690730 0.156917
H362  H     H_    0.449171 0.309272 0.741002 0.156918
H363  H     H_    0.258998 0.050829 0.190728 0.156918
H364  H     H_    0.550829 0.690728 0.258998 0.156918
H365  H     H_    0.741003 0.309271 0.550829 0.156918
H366  H     H_    0.258997 0.690729 0.449170 0.156918
H367  H     H_    0.690729 0.741003 0.550829 0.156917
H368  H     H_    0.309271 0.258997 0.449170 0.156917
H369  H     H_    0.258997 0.690729 0.550829 0.156917
H370  H     H_    0.741003 0.309271 0.449170 0.156917
H371  H     H_    0.309271 0.258997 0.550829 0.156917
H372  H     H_    0.690729 0.741003 0.449170 0.156917
H373  H     H_    0.258997 0.309271 0.449170 0.156917
H374  H     H_    0.190728 0.050829 0.258998 0.156918
H375  H     H_    0.741003 0.690729 0.550829 0.156917
H376  H     H_    0.309271 0.741003 0.449170 0.156917
H377  H     H_    0.690729 0.258997 0.550829 0.156917
H378  H     H_    0.741003 0.690729 0.449170 0.156917
H379  H     H_    0.258997 0.309271 0.550829 0.156917
H380  H     H_    0.690729 0.258997 0.449170 0.156918
H381  H     H_    0.309271 0.741003 0.550829 0.156918
H382  H     H_    0.690730 0.949169 0.241004 0.156918
H383  H     H_    0.309270 0.050830 0.758996 0.156917
H384  H     H_    0.758996 0.949169 0.690730 0.156918
O1    O     O_R   0.246660 0.778390 0.521780 -0.577051
O2    O     O_R   0.753340 0.778390 0.521780 -0.577051
O3    O     O_R   0.021780 0.221610 0.253340 -0.577051
O4    O     O_R   0.253340 0.778390 0.978220 -0.577051
O5    O     O_R   0.746660 0.221610 0.021780 -0.577051
O6    O     O_R   0.021780 0.778390 0.253340 -0.577052
O7    O     O_R   0.978220 0.221610 0.746660 -0.577052
O8    O     O_R   0.746660 0.221610 0.978220 -0.577051
O9    O     O_R   0.253340 0.778390 0.021780 -0.577051
O10   O     O_R   0.978220 0.221610 0.253340 -0.577052
O11   O     O_R   0.021780 0.778390 0.746660 -0.577052
O12   O     O_R   0.253340 0.221610 0.021780 -0.577051
O13   O     O_R   0.478220 0.221610 0.753340 -0.577052
O14   O     O_R   0.746660 0.778390 0.978220 -0.577051
O15   O     O_R   0.021780 0.221610 0.746660 -0.577051
O16   O     O_R   0.978220 0.778390 0.253340 -0.577051
O17   O     O_R   0.221610 0.978220 0.746660 -0.577052
O18   O     O_R   0.778390 0.021780 0.253340 -0.577052
O19   O     O_R   0.221610 0.253340 0.978220 -0.577051
O20   O     O_R   0.778390 0.746660 0.021780 -0.577051
O21   O     O_R   0.221610 0.021780 0.253340 -0.577051
O22   O     O_R   0.778390 0.978220 0.746660 -0.577051
O23   O     O_R   0.221610 0.746660 0.021780 -0.577051
O24   O     O_R   0.521780 0.778390 0.246660 -0.577052
O25   O     O_R   0.778390 0.253340 0.978220 -0.577051
O26   O     O_R   0.778390 0.021780 0.746660 -0.577052
O27   O     O_R   0.221610 0.978220 0.253340 -0.577052
O28   O     O_R   0.778390 0.746660 0.978220 -0.577051
O29   O     O_R   0.221610 0.253340 0.021780 -0.577051
O30   O     O_R   0.778390 0.978220 0.253340 -0.577051
O31   O     O_R   0.221610 0.021780 0.746660 -0.577051
O32   O     O_R   0.778390 0.253340 0.021780 -0.577051
O33   O     O_R   0.221610 0.746660 0.978220 -0.577051
O34   O     O_R   0.021780 0.253340 0.221610 -0.577051
O35   O     O_R   0.753340 0.221610 0.521780 -0.577051
O36   O     O_R   0.978220 0.746660 0.778390 -0.577051
O37   O     O_R   0.746660 0.021780 0.221610 -0.577052
O38   O     O_R   0.253340 0.978220 0.778390 -0.577052
O39   O     O_R   0.978220 0.746660 0.221610 -0.577051
O40   O     O_R   0.021780 0.253340 0.778390 -0.577051
O41   O     O_R   0.253340 0.978220 0.221610 -0.577052
O42   O     O_R   0.746660 0.021780 0.778390 -0.577052
O43   O     O_R   0.978220 0.253340 0.778390 -0.577052
O44   O     O_R   0.021780 0.746660 0.221610 -0.577052
O45   O     O_R   0.253340 0.021780 0.778390 -0.577051
O46   O     O_R   0.246660 0.778390 0.478220 -0.577051
O47   O     O_R   0.746660 0.978220 0.221610 -0.577051
O48   O     O_R   0.021780 0.746660 0.778390 -0.577052
O49   O     O_R   0.978220 0.253340 0.221610 -0.577052
O50   O     O_R   0.746660 0.978220 0.778390 -0.577051
O51   O     O_R   0.253340 0.021780 0.221610 -0.577051
O52   O     O_R   0.246660 0.278390 0.021780 -0.577051
O53   O     O_R   0.753340 0.721610 0.978220 -0.577051
O54   O     O_R   0.978220 0.278390 0.246660 -0.577051
O55   O     O_R   0.021780 0.721610 0.753340 -0.577051
O56   O     O_R   0.753340 0.278390 0.978220 -0.577051
O57   O     O_R   0.521780 0.221610 0.246660 -0.577051
O58   O     O_R   0.246660 0.721610 0.021780 -0.577051
O59   O     O_R   0.021780 0.278390 0.753340 -0.577052
O60   O     O_R   0.978220 0.721610 0.246660 -0.577052
O61   O     O_R   0.246660 0.721610 0.978220 -0.577051
O62   O     O_R   0.753340 0.278390 0.021780 -0.577051
O63   O     O_R   0.978220 0.721610 0.753340 -0.577052
O64   O     O_R   0.021780 0.278390 0.246660 -0.577052
O65   O     O_R   0.753340 0.721610 0.021780 -0.577051
O66   O     O_R   0.246660 0.278390 0.978220 -0.577051
O67   O     O_R   0.021780 0.721610 0.246660 -0.577051
O68   O     O_R   0.478220 0.778390 0.753340 -0.577051
O69   O     O_R   0.978220 0.278390 0.753340 -0.577051
O70   O     O_R   0.721610 0.978220 0.246660 -0.577052
O71   O     O_R   0.278390 0.021780 0.753340 -0.577052
O72   O     O_R   0.721610 0.753340 0.978220 -0.577051
O73   O     O_R   0.278390 0.246660 0.021780 -0.577051
O74   O     O_R   0.721610 0.021780 0.753340 -0.577051
O75   O     O_R   0.278390 0.978220 0.246660 -0.577051
O76   O     O_R   0.721610 0.246660 0.021780 -0.577051
O77   O     O_R   0.278390 0.753340 0.978220 -0.577051
O78   O     O_R   0.278390 0.021780 0.246660 -0.577052
O79   O     O_R   0.221610 0.478220 0.246660 -0.577052
O80   O     O_R   0.721610 0.978220 0.753340 -0.577052
O81   O     O_R   0.278390 0.246660 0.978220 -0.577051
O82   O     O_R   0.721610 0.753340 0.021780 -0.577051
O83   O     O_R   0.278390 0.978220 0.753340 -0.577051
O84   O     O_R   0.721610 0.021780 0.246660 -0.577051
O85   O     O_R   0.278390 0.753340 0.021780 -0.577051
O86   O     O_R   0.721610 0.246660 0.978220 -0.577051
O87   O     O_R   0.021780 0.753340 0.721610 -0.577051
O88   O     O_R   0.978220 0.246660 0.278390 -0.577051
O89   O     O_R   0.246660 0.021780 0.721610 -0.577052
O90   O     O_R   0.778390 0.521780 0.753340 -0.577052
O91   O     O_R   0.753340 0.978220 0.278390 -0.577052
O92   O     O_R   0.978220 0.246660 0.721610 -0.577051
O93   O     O_R   0.021780 0.753340 0.278390 -0.577051
O94   O     O_R   0.753340 0.978220 0.721610 -0.577052
O95   O     O_R   0.246660 0.021780 0.278390 -0.577052
O96   O     O_R   0.978220 0.753340 0.278390 -0.577052
O97   O     O_R   0.021780 0.246660 0.721610 -0.577052
O98   O     O_R   0.753340 0.021780 0.278390 -0.577051
O99   O     O_R   0.246660 0.978220 0.721610 -0.577051
O100  O     O_R   0.021780 0.246660 0.278390 -0.577052
O101  O     O_R   0.221610 0.753340 0.478220 -0.577051
O102  O     O_R   0.978220 0.753340 0.721610 -0.577052
O103  O     O_R   0.246660 0.978220 0.278390 -0.577051
O104  O     O_R   0.753340 0.021780 0.721610 -0.577051
O105  O     O_R   0.753340 0.221610 0.478220 -0.577051
O106  O     O_R   0.778390 0.246660 0.521780 -0.577051
O107  O     O_R   0.221610 0.521780 0.753340 -0.577051
O108  O     O_R   0.778390 0.478220 0.246660 -0.577051
O109  O     O_R   0.221610 0.246660 0.521780 -0.577051
O110  O     O_R   0.778390 0.753340 0.478220 -0.577051
O111  O     O_R   0.778390 0.521780 0.246660 -0.577052
O112  O     O_R   0.221610 0.478220 0.753340 -0.577052
O113  O     O_R   0.778390 0.246660 0.478220 -0.577051
O114  O     O_R   0.221610 0.753340 0.521780 -0.577051
O115  O     O_R   0.778390 0.478220 0.753340 -0.577051
O116  O     O_R   0.478220 0.778390 0.246660 -0.577051
O117  O     O_R   0.221610 0.521780 0.246660 -0.577051
O118  O     O_R   0.778390 0.753340 0.521780 -0.577051
O119  O     O_R   0.221610 0.246660 0.478220 -0.577051
O120  O     O_R   0.521780 0.753340 0.221610 -0.577051
O121  O     O_R   0.478220 0.246660 0.778390 -0.577051
O122  O     O_R   0.246660 0.521780 0.221610 -0.577052
O123  O     O_R   0.753340 0.478220 0.778390 -0.577052
O124  O     O_R   0.478220 0.246660 0.221610 -0.577051
O125  O     O_R   0.521780 0.753340 0.778390 -0.577051
O126  O     O_R   0.753340 0.478220 0.221610 -0.577052
O127  O     O_R   0.521780 0.221610 0.753340 -0.577051
O128  O     O_R   0.246660 0.521780 0.778390 -0.577052
O129  O     O_R   0.478220 0.753340 0.778390 -0.577052
O130  O     O_R   0.521780 0.246660 0.221610 -0.577052
O131  O     O_R   0.753340 0.521780 0.778390 -0.577051
O132  O     O_R   0.246660 0.478220 0.221610 -0.577051
O133  O     O_R   0.521780 0.246660 0.778390 -0.577052
O134  O     O_R   0.478220 0.753340 0.221610 -0.577052
O135  O     O_R   0.246660 0.478220 0.778390 -0.577051
O136  O     O_R   0.753340 0.521780 0.221610 -0.577051
O137  O     O_R   0.746660 0.278390 0.521780 -0.577051
O138  O     O_R   0.753340 0.778390 0.478220 -0.577051
O139  O     O_R   0.253340 0.721610 0.478220 -0.577051
O140  O     O_R   0.478220 0.278390 0.746660 -0.577051
O141  O     O_R   0.521780 0.721610 0.253340 -0.577051
O142  O     O_R   0.253340 0.278390 0.478220 -0.577051
O143  O     O_R   0.746660 0.721610 0.521780 -0.577051
O144  O     O_R   0.521780 0.278390 0.253340 -0.577052
O145  O     O_R   0.478220 0.721610 0.746660 -0.577052
O146  O     O_R   0.746660 0.721610 0.478220 -0.577051
O147  O     O_R   0.253340 0.278390 0.521780 -0.577051
O148  O     O_R   0.478220 0.721610 0.253340 -0.577052
O149  O     O_R   0.246660 0.221610 0.521780 -0.577051
O150  O     O_R   0.521780 0.278390 0.746660 -0.577052
O151  O     O_R   0.253340 0.721610 0.521780 -0.577051
O152  O     O_R   0.746660 0.278390 0.478220 -0.577051
O153  O     O_R   0.521780 0.721610 0.746660 -0.577051
O154  O     O_R   0.478220 0.278390 0.253340 -0.577051
O155  O     O_R   0.721610 0.478220 0.746660 -0.577052
O156  O     O_R   0.278390 0.521780 0.253340 -0.577052
O157  O     O_R   0.721610 0.253340 0.478220 -0.577051
O158  O     O_R   0.278390 0.746660 0.521780 -0.577051
O159  O     O_R   0.721610 0.521780 0.253340 -0.577051
O160  O     O_R   0.521780 0.778390 0.753340 -0.577052
O161  O     O_R   0.278390 0.478220 0.746660 -0.577051
O162  O     O_R   0.721610 0.746660 0.521780 -0.577051
O163  O     O_R   0.278390 0.253340 0.478220 -0.577051
O164  O     O_R   0.278390 0.521780 0.746660 -0.577052
O165  O     O_R   0.721610 0.478220 0.253340 -0.577052
O166  O     O_R   0.278390 0.746660 0.478220 -0.577051
O167  O     O_R   0.721610 0.253340 0.521780 -0.577051
O168  O     O_R   0.278390 0.478220 0.253340 -0.577051
O169  O     O_R   0.721610 0.521780 0.746660 -0.577051
O170  O     O_R   0.278390 0.253340 0.521780 -0.577051
O171  O     O_R   0.478220 0.221610 0.246660 -0.577052
O172  O     O_R   0.721610 0.746660 0.478220 -0.577051
O173  O     O_R   0.521780 0.253340 0.721610 -0.577051
O174  O     O_R   0.478220 0.746660 0.278390 -0.577051
O175  O     O_R   0.746660 0.521780 0.721610 -0.577052
O176  O     O_R   0.253340 0.478220 0.278390 -0.577052
O177  O     O_R   0.478220 0.746660 0.721610 -0.577051
O178  O     O_R   0.521780 0.253340 0.278390 -0.577051
O179  O     O_R   0.253340 0.478220 0.721610 -0.577052
O180  O     O_R   0.746660 0.521780 0.278390 -0.577052
O181  O     O_R   0.478220 0.253340 0.278390 -0.577052
O182  O     O_R   0.246660 0.221610 0.478220 -0.577051
O183  O     O_R   0.521780 0.746660 0.721610 -0.577052
O184  O     O_R   0.253340 0.521780 0.278390 -0.577051
O185  O     O_R   0.746660 0.478220 0.721610 -0.577051
O186  O     O_R   0.521780 0.746660 0.278390 -0.577052
O187  O     O_R   0.478220 0.253340 0.721610 -0.577052
O188  O     O_R   0.746660 0.478220 0.278390 -0.577051
O189  O     O_R   0.253340 0.521780 0.721610 -0.577051
O190  O     O_R   0.746660 0.778390 0.021780 -0.577051
O191  O     O_R   0.253340 0.221610 0.978220 -0.577051
O192  O     O_R   0.978220 0.778390 0.746660 -0.577051

loop_
_geom_bond_atom_site_label_1
_geom_bond_atom_site_label_2
_ccdc_geom_bond_type
C605  C818  A    
C111  C191  A    
C3    C224  A    
C171  Cl78  S    
C40   C654  A    
C649  H272  S    
C336  C1003 S    
C365  C472  T    
C546  H170  S    
C730  H246  S    
C21   C543  A    
C312  C419  T    
C679  H303  S    
Cu47  O178  S    
C599  C812  A    
C606  H230  S    
Cu46  O177  S    
C97   C417  S    
C594  C807  A    
Cu16  O165  S    
C158  C970  S    
C87   C241  A    
C863  H60   S    
C900  H97   S    
C366  C473  T    
Cu11  O132  S    
C639  C1056 A    
C7    C529  A    
C685  H308  S    
C679  C893  A    
C332  C439  T    
C778  C971  A    
C702  O82   A    
C602  O49   A    
C105  C424  S    
C655  C868  A    
Cu8   O110  S    
C703  H363  S    
C62   C371  S    
C303  O129  A    
C376  C1035 S    
C139  C459  S    
C104  C423  S    
C245  Cl74  S    
C100  C254  A    
C324  C431  T    
C503  O66   A    
C358  C1006 S    
C86   C233  A    
C90   C238  A    
C643  H266  S    
Cu43  O75   S    
C496  C709  A    
C529  H152  S    
C888  H85   S    
C178  Cl7   S    
C74   C245  A    
C272  C1018 S    
C935  O92   A    
C572  H195  S    
C299  C1044 S    
C110  C200  A    
Cu4   O137  S    
C101  C253  A    
C46   C355  S    
C594  C1030 A    
C126  C213  A    
C492  H116  S    
C755  C968  A    
C263  Cl92  S    
C162  Cl1   S    
C362  C468  T    
C879  C1004 A    
C701  C915  A    
C334  C441  T    
C637  C1050 A    
C670  H293  S    
C695  H1    S    
C19   C551  A    
C774  C978  A    
C886  C1005 A    
Cu15  O153  S    
C78   C250  A    
C117  C437  S    
C829  C928  A    
C788  H369  S    
C486  C1019 A    
C607  C820  A    
C133  C191  A    
C352  C459  T    
C484  C1017 A    
Cu35  O87   S    
C30   C339  S    
C309  C416  T    
Cu1   O1    S    
C819  C938  A    
C584  C797  A    
C343  C450  T    
C561  C774  A    
C661  C874  A    
Cu14  Cu47  S    
C90   C410  S    
C938  C980  S    
C527  C740  A    
C275  C382  T    
C747  O8    A    
C66   C385  S    
C856  H53   S    
C722  C936  A    
Cu29  Cu43  S    
C540  H163  S    
C50   C661  A    
C363  C470  T    
C714  C927  A    
C667  C881  A    
C791  O12   A    
C869  O98   A    
C618  C830  A    
C48   C655  A    
C758  O74   A    
C128  C208  A    
C832  H30   S    
C337  C443  T    
C64   C373  S    
C877  C1001 A    
C782  C976  A    
C746  H327  S    
C35   C344  S    
C143  C237  A    
C72   C390  S    
C57   C366  S    
C795  H376  S    
C579  C793  A    
C676  C889  A    
C330  C437  T    
C786  H367  S    
C239  Cl68  S    
C788  C984  A    
C148  C267  A    
C1002 O94   A    
C821  H19   S    
Cu24  O8    S    
C728  C940  A    
C615  C1045 A    
C284  C1029 S    
C483  H106  S    
C34   C574  A    
C142  C256  A    
C650  H273  S    
C618  C1033 A    
C769  O41   A    
C969  O91   A    
C596  C1028 A    
C581  C794  A    
C10   C532  A    
C301  C1047 S    
C53   C664  A    
Cu28  O18   S    
C765  H346  S    
C12   C321  S    
C414  C994  S    
C37   C345  S    
C27   C557  A    
C24   C563  A    
C267  Cl96  S    
C181  C965  S    
C749  C962  A    
C143  C255  A    
C898  H95   S    
C847  C942  S    
Cu11  Cu48  S    
C69   C388  S    
C785  C981  A    
C32   C341  S    
C613  O170  A    
C557  C771  A    
C374  C481  T    
C502  O172  A    
C764  H345  S    
C288  C395  T    
C839  H36   S    
Cu44  O2    S    
C132  C452  S    
Cu30  Cu42  S    
Cu18  O28   S    
C29   C567  A    
C553  C766  A    
C273  C1019 S    
C868  H65   S    
C279  C386  T    
C812  H10   S    
Cu42  O94   S    
C731  C943  A    
C130  C206  A    
C62   C694  A    
C800  H381  S    
C156  C232  A    
C125  O145  A    
C295  C401  T    
C447  O107  A    
C869  O18   A    
C865  H62   S    
C533  H156  S    
C633  C846  A    
Cu34  O187  S    
C192  C964  S    
C142  C235  A    
C824  C954  S    
C77   C176  A    
C631  H254  S    
C946  O142  A    
C307  C1052 S    
C738  C951  A    
C137  C252  A    
C875  C999  A    
Cu28  O37   S    
C281  O2    A    
C891  O16   A    
C53   C362  S    
C784  C979  A    
C370  C476  T    
C27   C570  A    
C562  H185  S    
C871  H67   S    
C97   C168  A    
C136  C966  S    
Cu15  Cu46  S    
C670  C883  A    
C628  C841  A    
C620  C1040 A    
C671  H294  S    
C156  C246  A    
C325  O149  A    
C785  H366  S    
C88   C408  S    
C22   C331  S    
Cu27  O31   S    
C98   C184  A    
C614  O55   A    
Cu30  O26   S    
Cu37  O85   S    
C192  O161  A    
C895  H92   S    
C185  Cl14  S    
C17   C544  A    
C635  C1051 A    
C886  H83   S    
C901  C1007 A    
C672  H295  S    
C447  C992  S    
C628  H251  S    
C318  C424  T    
C160  C239  A    
C513  H137  S    
C665  H288  S    
C702  O190  A    
C119  C190  A    
C347  O127  A    
C685  C898  A    
C170  O165  A    
C782  H362  S    
C283  C1028 S    
C107  C186  A    
C803  C919  A    
C530  H153  S    
C274  C381  T    
C595  C1029 A    
C837  H33   S    
C616  H239  S    
C693  C906  A    
C88   C240  A    
C258  O120  A    
C112  C198  A    
Cu1   O158  S    
C75   C244  A    
C684  C897  A    
C905  C1012 A    
C51   C662  A    
C759  H339  S    
C541  C754  A    
C80   C248  A    
C817  H15   S    
C106  C164  A    
C214  C963  S    
C585  H208  S    
Cu46  O183  S    
C883  C999  A    
C521  C1053 A    
C1002 O22   A    
Cu16  O159  S    
C31   C583  A    
C222  Cl51  S    
C696  H112  S    
C829  H27   S    
C577  H200  S    
C946  O163  A    
C34   C343  S    
C77   C397  S    
C60   C679  A    
C321  C428  T    
C121  C441  S    
C284  C389  T    
Cu40  O91   S    
C108  C185  A    
Cu21  O3    S    
C276  C383  T    
C499  H123  S    
C653  C866  A    
C491  O65   A    
C355  C462  T    
C634  C1052 A    
C595  H218  S    
C547  O32   A    
C49   C660  A    
C129  C215  A    
C58   C172  A    
Cu29  O27   S    
C906  H103  S    
C268  C375  T    
C896  H93   S    
C703  C916  A    
C147  C967  S    
C533  C746  A    
C149  C468  S    
C40   C349  S    
Cu40  O84   S    
C642  H265  S    
Cu21  O10   S    
C277  C384  T    
C929  C935  S    
C259  Cl87  S    
C489  C1022 A    
C469  O132  A    
C552  C765  A    
Cu10  O150  S    
C518  H141  S    
C99   C264  A    
C76   C177  A    
C140  C460  S    
C622  H245  S    
C553  H176  S    
C499  C1032 A    
C779  H360  S    
Cu21  O34   S    
C815  C916  A    
C280  C972  S    
C569  O43   A    
C564  H187  S    
Cu25  O44   S    
C820  C937  A    
C161  C238  A    
C746  C960  A    
C489  C703  A    
C719  C932  A    
C168  Cl67  S    
Cu29  O41   S    
C247  O121  A    
C215  Cl43  S    
C311  C1056 S    
C206  Cl35  S    
C68   C216  A    
Cu45  O182  S    
C617  H240  S    
C797  C987  A    
C810  C911  A    
C87   C407  S    
C581  H204  S    
C784  H365  S    
C625  C956  S    
C326  C432  T    
C681  C894  A    
C710  C923  A    
Cu36  O86   S    
C753  C966  A    
C290  C397  T    
C736  O85   A    
Cu26  O7    S    
C889  H86   S    
Cu10  O140  S    
C82   C401  S    
C490  H115  S    
C661  H284  S    
C669  O83   A    
C557  H181  S    
C650  C863  A    
C102  C252  A    
Cu14  O154  S    
C290  C1036 S    
C791  C949  S    
C612  C1047 A    
C169  O157  A    
C654  H277  S    
Cu1   O166  S    
C44   C659  A    
C20   C550  A    
C146  C266  A    
C863  C996  A    
C669  C925  S    
C901  H98   S    
C225  O35   A    
C585  C798  A    
C531  H154  S    
C551  C764  A    
C812  C909  A    
C727  H212  S    
C567  C781  A    
C861  H58   S    
C80   C167  A    
C226  Cl54  S    
C482  H105  S    
C614  O48   A    
C139  C264  A    
C163  Cl12  S    
C344  C451  T    
Cu45  O163  S    
C666  C879  A    
Cu2   Cu13  S    
C469  C988  S    
C711  H68   S    
C62   C682  A    
C40   C642  A    
C364  C471  T    
Cu30  O50   S    
C757  C965  A    
C855  H52   S    
C254  Cl83  S    
C713  O51   A    
C510  H133  S    
C188  Cl17  S    
C726  C938  A    
C878  C1003 A    
C605  C1019 A    
C991  O10   A    
C114  O178  A    
C714  H90   S    
C58   C219  A    
C742  C955  A    
C687  C900  A    
C680  O84   A    
C21   C549  A    
C588  C801  A    
C702  C943  S    
C30   C561  A    
C836  C953  S    
C532  C745  A    
C270  C376  T    
C794  H375  S    
Cu15  O125  S    
C70   C976  S    
C607  C1043 A    
C814  C908  A    
C596  C809  A    
C293  C399  T    
Cu13  O131  S    
C836  O4    A    
C852  C951  A    
Cu5   O179  S    
C805  C917  A    
C514  C927  S    
C436  O112  A    
C612  C826  A    
C880  O99   A    
C155  C475  S    
C870  H66   S    
C336  O134  A    
C666  H289  S    
C347  C1001 S    
C436  C995  S    
C651  H274  S    
C154  C227  A    
C81   C975  S    
Cu22  O9    S    
C51   C360  S    
C152  C254  A    
C801  H382  S    
C104  C180  A    
C697  C910  A    
Cu28  O47   S    
C490  C1023 A    
C885  C997  A    
C1013 O95   A    
C817  C914  A    
C564  C777  A    
C13   C322  S    
C112  C193  A    
C5    C527  A    
C158  O189  A    
Cu18  O20   S    
C12   C629  A    
C88   C188  A    
C74   C180  A    
C705  C918  A    
Cu19  O29   S    
C280  O148  A    
C75   C395  S    
C380  O125  A    
C810  H8    S    
C879  H76   S    
C331  C438  T    
C282  C387  T    
Cu3   O139  S    
Cu2   O115  S    
C512  H136  S    
C425  O136  A    
C513  C1045 A    
C830  H28   S    
Cu7   O109  S    
Cu7   Cu45  S    
C349  C455  T    
Cu37  O77   S    
Cu39  O60   S    
C838  H34   S    
C98   C265  A    
C12   C534  A    
C634  H258  S    
C298  C405  T    
C827  H25   S    
Cu18  O14   S    
C893  H89   S    
C538  C751  A    
C275  C1021 S    
C625  O29   A    
C833  H31   S    
C89   C173  A    
C14   C232  A    
C55   C364  S    
C667  H291  S    
C691  O81   A    
Cu10  O121  S    
C227  C1035 A    
C739  C952  A    
C636  O28   A    
C563  H186  S    
C249  Cl77  S    
C487  C1020 A    
C486  H109  S    
C22   C565  A    
C599  H222  S    
Cu36  O62   S    
C514  O63   A    
C114  O144  A    
C543  C756  A    
C84   C235  A    
Cu35  O63   S    
Cu42  O74   S    
C13   C548  A    
C682  H305  S    
C724  O183  A    
C46   C656  A    
C345  C452  T    
C110  C190  A    
C317  C423  T    
C501  H126  S    
C969  O30   A    
Cu8   O146  S    
C738  H318  S    
C277  C1023 S    
C521  H144  S    
C499  C712  A    
C709  C922  A    
C858  O102  A    
C170  C968  S    
Cu37  O58   S    
C74   C394  S    
C576  H199  S    
C46   C649  A    
C761  H342  S    
C138  C457  S    
Cu5   Cu17  S    
C767  H348  S    
C624  H248  S    
C203  C962  S    
C958  O31   A    
C308  C1053 S    
Cu14  O124  S    
C235  Cl64  S    
C876  C1000 A    
C750  C963  A    
C65   C685  A    
C780  O72   A    
C141  C261  A    
C143  C463  S    
C899  H96   S    
C311  C418  T    
C47   C171  A    
C529  C742  A    
C203  O185  A    
C16   C324  S    
C8    C317  S    
C729  C941  A    
C289  C1034 S    
C174  Cl3   S    
C301  C408  T    
C723  H190  S    
C597  C1018 A    
C804  C918  A    
C19   C328  S    
C518  C1050 A    
C313  C420  T    
C537  C750  A    
C64   C692  A    
C632  C845  A    
Cu23  O24   S    
C808  H6    S    
C626  C839  A    
C76   C396  S    
C480  O90   A    
C847  O3    A    
C912  C969  S    
C329  C435  T    
Cu25  O39   S    
C591  O58   A    
C11   C320  S    
C896  C1011 A    
C512  C1044 A    
C11   C630  A    
C783  C975  A    
C566  H189  S    
C38   C585  A    
Cu16  O136  S    
C28   C559  A    
C113  C194  A    
C458  C990  S    
C632  H255  S    
C898  C1014 A    
C718  C931  A    
Cu31  O81   S    
C871  C994  A    
C528  H151  S    
C913  O103  A    
C851  H48   S    
C7    C626  A    
C535  C749  A    
Cu18  Cu32  S    
C65   C690  A    
C67   C174  A    
C236  O101  A    
C771  H351  S    
C865  C990  A    
Cu31  O73   S    
C868  C996  A    
C480  C989  S    
Cu4   O113  S    
C258  C997  S    
C869  C909  S    
C192  O179  A    
C597  C810  A    
C306  C412  T    
C625  O52   A    
C578  C792  A    
C280  O174  A    
C14   C166  A    
C159  C478  S    
Cu21  O49   S    
C5    C313  S    
Cu12  O105  S    
C747  C957  S    
C842  C961  A    
C493  C706  A    
Cu31  O52   S    
C885  H82   S    
C565  H188  S    
C303  O68   A    
C292  O57   A    
C822  C934  A    
C696  C909  A    
C516  H139  S    
C558  C940  S    
C16   C538  A    
C905  H102  S    
C115  C434  S    
C82   C246  A    
C599  C1016 A    
C160  C479  S    
C831  H29   S    
C116  C435  S    
C87   C187  A    
C535  H159  S    
C918  C1002 S    
Cu23  O186  S    
C725  C915  S    
C598  H221  S    
C69   C223  A    
C593  C806  A    
C832  C933  A    
C777  C972  A    
C236  O46   A    
C730  C942  A    
C504  H127  S    
C39   C584  A    
C825  C941  A    
C488  C701  A    
C731  H257  S    
C624  C838  A    
C542  C755  A    
C546  C760  A    
C109  C429  S    
C845  H42   S    
C519  C732  A    
C353  C460  T    
C117  C202  A    
C496  H120  S    
C617  C829  A    
C93   C262  A    
C269  O182  A    
Cu20  O192  S    
C135  C251  A    
C801  C920  A    
C34   C579  A    
C276  C1022 S    
C154  C474  S    
C103  C981  S    
C184  Cl13  S    
C845  C957  A    
C848  C945  A    
C813  O71   A    
C118  C207  A    
C674  H297  S    
C50   C359  S    
C509  C1041 A    
C732  C944  A    
C754  H335  S    
C787  H368  S    
C146  C466  S    
C692  C905  A    
C118  C438  S    
C391  O173  A    
C469  O79   A    
C127  C446  S    
Cu3   O101  S    
C906  C1011 A    
Cu6   Cu16  S    
C42   C351  S    
C116  C196  A    
C33   C573  A    
C660  C873  A    
C242  Cl71  S    
C81   O186  A    
C403  O115  A    
C119  C208  A    
C859  C992  A    
C197  Cl26  S    
Cu9   O120  S    
C763  C968  A    
C68   C387  S    
C85   C234  A    
C91   C411  S    
C204  Cl32  S    
C135  C245  A    
C84   C186  A    
C501  C1034 A    
C360  C466  T    
C751  C964  A    
C611  H236  S    
C43   C352  S    
C26   C556  A    
C727  C939  A    
C156  C476  S    
C193  Cl21  S    
C216  Cl44  S    
C492  C1025 A    
C807  H5    S    
C23   C554  A    
C167  Cl56  S    
C484  H107  S    
C593  C1031 A    
C94   C413  S    
Cu44  O162  S    
C150  C257  A    
Cu32  O65   S    
C526  H149  S    
C798  H379  S    
C157  C242  A    
Cu13  O123  S    
C140  C241  A    
C18   C327  S    
Cu10  O133  S    
C272  C378  T    
C149  C259  A    
C133  C453  S    
C483  C1016 A    
C303  C1005 S    
C708  H35   S    
C36   C382  S    
C756  H337  S    
Cu8   Cu44  S    
Cu44  O138  S    
C96   C171  A    
C848  H44   S    
C636  C955  S    
Cu40  O98   S    
C54   C675  A    
C495  C708  A    
C881  C1005 A    
Cu6   O111  S    
C790  C986  A    
C523  C1055 A    
C134  C209  A    
C524  C1056 A    
C600  C1015 A    
C693  H316  S    
C783  H364  S    
C739  H320  S    
C68   C175  A    
C728  H224  S    
C809  C921  A    
C754  C967  A    
C17   C539  A    
C611  C825  A    
C709  H46   S    
C639  H262  S    
C489  H114  S    
C92   C979  S    
C525  O34   A    
C73   C220  A    
C511  C1043 A    
C314  C1009 S    
C500  C714  A    
C16   C545  A    
C604  H228  S    
C537  H160  S    
C129  C205  A    
C864  H61   S    
C182  Cl10  S    
Cu36  O56   S    
Cu14  O144  S    
C678  H302  S    
C603  H227  S    
Cu38  O97   S    
C524  H148  S    
C675  C888  A    
C54   C363  S    
C47   C229  A    
C298  C1043 S    
C500  H125  S    
C872  H69   S    
C141  C240  A    
C606  C819  A    
C777  H358  S    
C82   C166  A    
C304  C410  T    
C760  H340  S    
Cu47  O171  S    
C580  O56   A    
C638  H261  S    
C647  C936  S    
C619  C1032 A    
C853  H50   S    
C52   C668  A    
C159  C222  A    
C659  C872  A    
C296  C402  T    
Cu30  O42   S    
C726  H201  S    
C840  H37   S    
C737  C950  A    
C4    C312  S    
C781  H361  S    
Cu14  O130  S    
C258  O24   A    
C736  C959  S    
C183  Cl11  S    
C98   C418  S    
C545  C759  A    
Cu35  O55   S    
C604  C1020 A    
Cu24  O25   S    
C800  C984  A    
C447  O128  A    
C145  C217  A    
C694  H317  S    
Cu23  O116  S    
C807  C923  A    
C482  C695  A    
C795  C981  A    
C980  O11   A    
C643  C856  A    
C261  Cl90  S    
C224  Cl53  S    
C266  Cl95  S    
C55   C666  A    
C721  C934  A    
C680  C923  S    
C862  C995  A    
Cu47  O181  S    
C335  C442  T    
C767  C972  A    
C89   C239  A    
C217  Cl46  S    
C683  H306  S    
C844  H41   S    
Cu12  O157  S    
C637  H260  S    
C128  C200  A    
C615  C827  A    
C346  C453  T    
C58   C384  S    
C126  C194  A    
C946  C983  S    
C828  H26   S    
Cu29  O21   S    
C8    C624  A    
C711  C925  A    
C894  H91   S    
C721  H168  S    
C607  H231  S    
C816  C915  A    
C560  C773  A    
Cu39  O96   S    
C510  C722  A    
C43   C645  A    
C205  Cl33  S    
C602  O54   A    
C549  H172  S    
C163  C1035 A    
C736  O9    A    
Cu12  O35   S    
C513  C727  A    
C858  O192  A    
C165  Cl34  S    
C96   C267  A    
C194  Cl22  S    
C654  C867  A    
C105  C259  A    
C286  C393  T    
Cu20  O11   S    
Cu46  O160  S    
C669  O38   A    
C550  H173  S    
C20   C329  S    
C772  C976  A    
C278  C1025 S    
C158  O164  A    
C826  H23   S    
C160  C218  A    
C572  C785  A    
C77   C242  A    
C706  H13   S    
C761  C962  A    
C103  O139  A    
C837  C930  A    
C586  H209  S    
C41   C643  A    
C580  O25   A    
Cu22  Cu37  S    
C935  O7    A    
C629  C842  A    
C873  C997  A    
C823  C942  A    
C790  H371  S    
C668  H292  S    
C522  C1054 A    
C524  C738  A    
C636  O53   A    
C491  C961  S    
C199  Cl28  S    
C740  C953  A    
C392  O171  A    
C792  H372  S    
C287  C394  T    
C127  C201  A    
C752  H333  S    
Cu24  Cu36  S    
C169  O152  A    
C175  Cl4   S    
C635  C849  A    
C641  C1054 A    
C115  C205  A    
C278  C385  T    
C520  C1052 A    
C95   C415  S    
C745  H326  S    
C122  C442  S    
C506  C1038 A    
C19   C541  A    
C796  H377  S    
C145  C262  A    
C117  C197  A    
C744  H325  S    
C203  O155  A    
Cu6   O188  S    
C742  H323  S    
C501  C715  A    
C488  C1021 A    
C806  C925  A    
C512  C726  A    
C902  O15   A    
C600  H225  S    
C980  O87   A    
C504  C1036 A    
C672  C885  A    
C153  C473  S    
C485  H108  S    
C505  C717  A    
C544  C757  A    
Cu5   O112  S    
C71   C177  A    
C843  C960  A    
C900  C1008 A    
C106  C426  S    
C646  H270  S    
C179  Cl8   S    
C589  H213  S    
C665  C878  A    
C502  O146  A    
C152  C220  A    
C155  C231  A    
C870  C995  A    
C107  C256  A    
C145  C465  S    
C6    C627  A    
C729  H235  S    
C601  C815  A    
C713  O78   A    
C73   C179  A    
C369  C1007 S    
C867  C988  A    
C819  H17   S    
C124  C444  S    
Cu9   Cu23  S    
C148  C229  A    
C425  O111  A    
C100  C179  A    
C31   C340  S    
C859  H55   S    
C555  C768  A    
C83   C237  A    
C733  C945  A    
Cu28  O30   S    
C611  C1048 A    
C550  C763  A    
C138  C249  A    
C375  C1024 S    
C359  C465  T    
C509  H132  S    
Cu20  O48   S    
C101  C421  S    
C902  O97   A    
C30   C566  A    
C846  C948  A    
C256  Cl85  S    
C673  H296  S    
C228  Cl57  S    
C530  C743  A    
C108  C428  S    
C882  C1000 A    
C760  C963  A    
C582  C795  A    
C232  Cl61  S    
C36   C168  A    
C92   O167  A    
C500  C1033 A    
C522  H145  S    
C902  C932  S    
C6    C315  S    
C282  C1027 S    
C616  C1036 A    
C574  H197  S    
C680  O37   A    
C354  C461  T    
C847  O100  A    
C201  Cl30  S    
Cu44  O172  S    
C151  C253  A    
Cu32  O82   S    
C269  C1014 S    
C15   C323  S    
C483  C696  A    
Cu5   O189  S    
C54   C665  A    
C507  H130  S    
C511  C723  A    
C116  C204  A    
Cu17  O161  S    
C181  O180  A    
C2    O162  A    
C520  H143  S    
C102  C182  A    
C781  C977  A    
Cu22  O23   S    
C18   C540  A    
C59   C688  A    
C899  C1009 A    
C32   C582  A    
C753  H334  S    
C271  C1017 S    
Cu3   O114  S    
C609  C1041 A    
C600  C814  A    
C316  C422  T    
C802  O70   A    
C826  C940  A    
Cu19  O12   S    
C841  C953  A    
C813  O45   A    
C154  C234  A    
C285  C1030 S    
C288  C1033 S    
C1    O158  A    
C243  Cl72  S    
C547  O62   A    
C700  C914  A    
C594  H217  S    
C27   C335  S    
C49   C357  S    
C691  C944  S    
C588  H211  S    
C658  O60   A    
Cu4   Cu12  S    
C268  C1015 S    
C718  H135  S    
C494  C707  A    
C140  C260  A    
C677  H300  S    
C131  C197  A    
C748  C961  A    
C260  Cl88  S    
C61   C686  A    
Cu13  O155  S    
C630  H253  S    
C710  H57   S    
C570  H193  S    
C304  C1049 S    
Cu33  O100  S    
C4    C638  A    
C814  H11   S    
C818  H16   S    
Cu17  O135  S    
C816  H14   S    
C566  C779  A    
Cu41  O99   S    
C490  C704  A    
C210  Cl39  S    
C543  H166  S    
C380  O160  A    
C57   C689  A    
C23   C564  A    
C904  H100  S    
C668  C882  A    
C296  C1041 S    
C350  C456  T    
C574  C787  A    
C601  H226  S    
C877  H74   S    
C631  C844  A    
C556  C770  A    
C202  Cl31  S    
C792  C987  A    
C887  C1004 A    
C66   C218  A    
C830  C927  A    
C811  C910  A    
C497  H121  S    
C850  H47   S    
C211  Cl40  S    
C240  Cl69  S    
C549  C762  A    
Cu47  O57   S    
C120  C212  A    
C33   C342  S    
C622  C834  A    
C834  H32   S    
C44   C353  S    
C56   C365  S    
Cu37  O61   S    
Cu42  O80   S    
C214  O184  A    
C776  H357  S    
C645  C859  A    
C341  C448  T    
C716  C929  A    
C558  O67   A    
C147  O169  A    
C63   C372  S    
C123  C199  A    
C181  O159  A    
C2    C982  S    
C538  H161  S    
C589  C1026 A    
C347  O133  A    
C766  C971  A    
C118  C189  A    
C623  H247  S    
C697  H223  S    
C289  C396  T    
C866  C989  A    
C39   C348  S    
C333  C440  T    
C519  C1051 A    
C644  H267  S    
C835  C978  S    
C31   C571  A    
C913  O27   A    
C704  H374  S    
Cu12  O167  S    
C28   C337  S    
C517  C1049 A    
C678  C892  A    
C695  C908  A    
C662  H285  S    
C579  H203  S    
C651  C864  A    
C302  C1048 S    
C49   C672  A    
C340  C446  T    
C576  C789  A    
C99   C183  A    
C602  C931  S    
C308  C415  T    
C189  Cl18  S    
C786  C982  A    
C775  C974  A    
C208  Cl37  S    
C818  C912  A    
C804  H384  S    
C270  C1016 S    
C257  Cl86  S    
C663  H286  S    
C95   C260  A    
C647  O59   A    
C300  C407  T    
C752  C965  A    
C76   C243  A    
C369  O105  A    
C802  C920  S    
C712  H79   S    
C130  C450  S    
C836  O77   A    
C487  C700  A    
Cu39  O93   S    
C414  O117  A    
C287  C1032 S    
C144  C464  S    
Cu6   O180  S    
C169  C985  S    
C825  H22   S    
C608  C1042 A    
C627  C840  A    
C97   C266  A    
Cu11  O168  S    
C894  C1009 A    
C610  C1049 A    
C893  C1008 A    
C824  O76   A    
C39   C578  A    
C495  H119  S    
C892  H88   S    
C547  C951  S    
C37   C576  A    
C3    C165  A    
C281  C1012 S    
C302  C409  T    
C112  C432  S    
C884  C998  A    
C612  H237  S    
C247  O13   A    
C839  C955  A    
C589  C803  A    
C59   C367  S    
C578  H202  S    
C138  C265  A    
C50   C671  A    
Cu2   O185  S    
C436  O135  A    
C320  C427  T    
C658  C934  S    
C844  C959  A    
C652  C865  A    
C586  C799  A    
C715  H101  S    
C120  C204  A    
C72   C221  A    
C851  C952  A    
C325  C1008 S    
C737  H312  S    
C648  C861  A    
C6    C528  A    
C485  C698  A    
C671  C884  A    
C820  H18   S    
C802  O47   A    
C238  Cl66  S    
C190  Cl19  S    
C575  H198  S    
C603  C1021 A    
C75   C182  A    
C21   C330  S    
C297  C1042 S    
C799  C985  A    
C124  C215  A    
C551  H174  S    
C150  C226  A    
C780  O14   A    
C89   C409  S    
C234  Cl63  S    
C656  H280  S    
C328  C434  T    
C854  H51   S    
C28   C568  A    
C253  Cl82  S    
C597  H220  S    
Cu32  O72   S    
C583  C796  A    
C676  H299  S    
Cu11  O156  S    
C56   C667  A    
C779  C978  A    
C15   C537  A    
C552  H175  S    
C688  C901  A    
C13   C535  A    
C724  C977  S    
C691  O191  A    
C10   C631  A    
C567  H191  S    
C751  H332  S    
C131  C451  S    
C106  C257  A    
Cu4   O106  S    
C367  C474  T    
C694  C907  A    
C70   O140  A    
C720  H157  S    
C556  H180  S    
C808  C922  A    
C159  C243  A    
C734  H290  S    
C903  H99   S    
C150  C470  S    
C44   C646  A    
C652  H275  S    
C873  H70   S    
C768  C973  A    
Cu45  O149  S    
C698  H319  S    
C495  C1028 A    
C835  O181  A    
Cu22  O4    S    
C507  C1039 A    
C221  Cl50  S    
C92   O137  A    
C815  H12   S    
C570  C783  A    
C307  C413  T    
C884  H81   S    
C212  Cl41  S    
C732  H268  S    
C928  C947  S    
C166  Cl45  S    
C264  Cl93  S    
C136  O176  A    
Cu34  O173  S    
C904  C1014 A    
C706  C919  A    
C855  C988  A    
C59   C678  A    
C522  C735  A    
C744  C957  A    
C860  C993  A    
C480  O131  A    
C139  C250  A    
C867  H64   S    
C608  H232  S    
C295  C1040 S    
C707  H24   S    
C618  H241  S    
C917  C1013 S    
Cu48  O176  S    
C793  H373  S    
Cu24  O5    S    
C229  Cl58  S    
C55   C674  A    
C758  O42   A    
C391  C971  S    
C65   C374  S    
Cu23  O174  S    
C113  C433  S    
C897  C1012 A    
C292  C1004 S    
C773  C977  A    
C763  H344  S    
C109  C201  A    
C559  H182  S    
C151  C471  S    
C225  O106  A    
C248  Cl76  S    
C157  C477  S    
C627  H250  S    
C833  C932  A    
Cu36  O76   S    
C105  C165  A    
C787  C983  A    
C110  C430  S    
C310  C417  T    
C841  H38   S    
C799  H380  S    
C218  Cl47  S    
C214  O156  A    
C94   C261  A    
Cu43  O103  S    
C850  C943  A    
C541  H164  S    
C759  C964  A    
C674  C887  A    
C690  H314  S    
C914  C958  S    
C866  H63   S    
C323  C430  T    
C813  C919  S    
C225  C1010 S    
C580  C948  S    
C532  H155  S    
C128  C448  S    
C683  C896  A    
Cu19  O19   S    
C305  C1050 S    
C41   C350  S    
C132  C212  A    
C496  C1029 A    
C358  O114  A    
C947  O6    A    
Cu19  Cu31  S    
C633  C1053 A    
C25   C167  A    
C796  C979  A    
C120  C440  S    
C663  C876  A    
Cu30  O22   S    
C121  C202  A    
C882  H78   S    
C842  H39   S    
C22   C553  A    
Cu29  O51   S    
C565  C778  A    
Cu22  O33   S    
C528  C741  A    
C130  C213  A    
C78   C183  A    
C180  Cl9   S    
C502  C987  S    
C527  H150  S    
C509  C721  A    
C769  C910  S    
C517  H140  S    
C111  C199  A    
Cu26  O43   S    
C521  C734  A    
C9    C531  A    
C134  C193  A    
C780  C950  S    
C517  C730  A    
C621  H244  S    
Cu27  O38   S    
C573  C786  A    
C615  H238  S    
C768  H349  S    
C559  C772  A    
C15   C546  A    
C114  C973  S    
C285  C390  T    
C734  C948  A    
C4    C526  A    
C133  C210  A    
C79   C249  A    
C125  O177  A    
C861  C994  A    
C747  O86   A    
C638  C851  A    
Cu27  O45   S    
C705  H2    S    
C741  C954  A    
C241  Cl70  S    
C61   C370  S    
C56   C673  A    
C244  Cl73  S    
C506  H129  S    
C536  O33   A    
C592  C1023 A    
C907  H104  S    
C821  C936  A    
Cu41  O89   S    
C658  O39   A    
C555  H178  S    
Cu46  O68   S    
C762  C970  A    
C484  C697  A    
C122  C209  A    
C673  C886  A    
C81   O141  A    
C299  C406  T    
C213  Cl42  S    
C236  C1011 S    
C991  O88   A    
C889  C1001 A    
C45   C354  S    
C111  C431  S    
C269  O119  A    
C146  C230  A    
C24   C555  A    
C25   C381  S    
Cu20  Cu35  S    
C80   C400  S    
C891  O96   A    
C325  O109  A    
C53   C676  A    
C590  C804  A    
C609  H233  S    
C351  C457  T    
C563  C776  A    
C745  C959  A    
C361  C467  T    
C306  C1051 S    
C113  C206  A    
C887  H84   S    
C924  O26   A    
C177  Cl6   S    
C687  H310  S    
C164  C1046 A    
C220  Cl49  S    
C616  C828  A    
C852  H49   S    
C124  C195  A    
C656  C870  A    
C403  O123  A    
C571  C784  A    
C458  O126  A    
C620  H243  S    
C291  C398  T    
Cu7   O147  S    
C518  C731  A    
C592  C805  A    
C29   C338  S    
Cu38  O59   S    
C104  C251  A    
C237  Cl65  S    
C147  O175  A    
C42   C644  A    
C247  C998  S    
C617  C1034 A    
C688  H311  S    
C755  H336  S    
C758  C911  S    
C637  C850  A    
C769  O75   A    
C250  Cl79  S    
C640  C853  A    
C568  C782  A    
C1    C984  S    
Cu42  O104  S    
C482  C1015 A    
C100  C420  S    
C823  H21   S    
C748  H328  S    
C35   C587  A    
C493  H117  S    
C99   C419  S    
C641  H264  S    
C196  Cl25  S    
C67   C386  S    
C604  C817  A    
C623  C1037 A    
C677  C890  A    
C200  Cl29  S    
C79   C184  A    
Cu11  O122  S    
C655  H278  S    
Cu38  O92   S    
C515  C1047 A    
C659  H282  S    
C176  Cl5   S    
C640  C1055 A    
C274  C1020 S    
C864  C992  A    
Cu25  O16   S    
C619  H242  S    
C322  C429  T    
C47   C383  S    
C647  O40   A    
C231  Cl60  S    
C895  C1010 A    
C291  C1037 S    
C717  H124  S    
C827  C939  A    
C356  C463  T    
C141  C461  S    
Cu20  O36   S    
C689  C903  A    
C770  H350  S    
C686  H309  S    
C195  Cl24  S    
C536  O61   A    
C29   C560  A    
C95   C187  A    
C675  H298  S    
C775  H356  S    
C857  C990  A    
Cu9   O134  S    
C11   C533  A    
C662  C875  A    
C660  H283  S    
C569  C939  S    
C849  C944  A    
C357  C464  T    
C750  H331  S    
Cu27  Cu41  S    
C172  Cl89  S    
C858  C941  S    
C704  C917  A    
C523  C737  A    
C548  C761  A    
C645  H269  S    
C494  C1027 A    
Cu10  Cu34  S    
C164  Cl23  S    
C774  H355  S    
C103  O166  A    
Cu9   O141  S    
C161  C219  A    
C108  C255  A    
C862  H59   S    
C633  H256  S    
C233  Cl62  S    
C639  C852  A    
C91   C263  A    
Cu32  O53   S    
C336  O116  A    
C271  C377  T    
C492  C705  A    
C392  O124  A    
Cu19  O191  S    
C857  H54   S    
C3    C378  S    
C794  C982  A    
C598  C1017 A    
C947  O93   A    
C642  C855  A    
C888  C1003 A    
C327  C433  T    
C890  C1006 A    
C368  C475  T    
C834  C931  A    
Cu15  O129  S    
C805  H3    S    
C881  H77   S    
C824  O5    A    
C9    C318  S    
C891  C933  S    
C17   C326  S    
C514  O36   A    
C554  H177  S    
C577  C790  A    
C9    C632  A    
C689  H313  S    
C725  O50   A    
C252  Cl81  S    
C144  C263  A    
C664  C877  A    
C613  O147  A    
C136  O168  A    
C653  H276  S    
C126  C445  S    
C37   C586  A    
C60   C368  S    
C83   C402  S    
C525  C926  S    
C72   C178  A    
C749  H329  S    
C872  C993  A    
C508  C720  A    
C590  H214  S    
Cu33  O88   S    
C682  C895  A    
C548  H171  S    
Cu2   O175  S    
C94   C188  A    
C26   C562  A    
C591  O23   A    
Cu28  Cu40  S    
Cu33  O54   S    
Cu48  O184  S    
C7    C316  S    
C286  C1031 S    
C101  C178  A    
C63   C683  A    
C273  C379  T    
C93   C412  S    
Cu6   O108  S    
C300  C1045 S    
C279  C1026 S    
C854  C949  A    
C770  C974  A    
C281  O118  A    
C849  H45   S    
C722  H179  S    
C485  C1018 A    
C838  C956  A    
C876  H73   S    
C699  H330  S    
C835  O154  A    
Cu41  O71   S    
C657  H281  S    
C494  H118  S    
C629  H252  S    
C716  H113  S    
C1    O151  A    
C228  C1024 A    
C699  C912  A    
C498  C711  A    
C85   C405  S    
Cu8   O143  S    
C369  O113  A    
C720  C933  A    
C793  C983  A    
C806  H4    S    
C377  C1046 S    
C144  C216  A    
C809  H7    S    
C707  C920  A    
C568  H192  S    
Cu48  O79   S    
C64   C684  A    
C173  Cl2   S    
C621  C833  A    
C536  C952  S    
C595  C808  A    
C664  H287  S    
C10   C319  S    
Cu17  O128  S    
C803  H383  S    
C828  C929  A    
C425  C996  S    
C690  C904  A    
C122  C198  A    
C840  C954  A    
C723  C937  A    
C149  C224  A    
C603  C816  A    
C131  C211  A    
C878  H75   S    
C684  H307  S    
C534  C748  A    
C373  C479  T    
C505  H128  S    
C32   C572  A    
Cu2   O90   S    
C843  H40   S    
C209  Cl38  S    
C883  H80   S    
C619  C831  A    
Cu41  O83   S    
Cu43  O95   S    
C246  Cl75  S    
C305  C411  T    
C903  C1006 A    
C798  C986  A    
C78   C398  S    
C958  O89   A    
C544  H167  S    
C764  C967  A    
C640  H263  S    
Cu8   O118  S    
C554  C767  A    
C137  C456  S    
C48   C356  S    
C161  C481  S    
C70   O187  A    
C890  H87   S    
C292  O130  A    
C534  H158  S    
C187  Cl16  S    
C314  O110  A    
Cu16  O126  S    
C157  C223  A    
C856  C989  A    
C414  O122  A    
C35   C575  A    
C773  H354  S    
C191  Cl20  S    
C497  C710  A    
C519  H142  S    
C853  C950  A    
C63   C693  A    
C545  H169  S    
C880  C908  S    
C614  C930  S    
C657  C871  A    
C1013 O21   A    
C20   C542  A    
C757  H338  S    
C772  H353  S    
Cu43  O78   S    
C96   C416  S    
C525  O64   A    
C601  C1022 A    
C342  C449  T    
C880  O17   A    
C558  O44   A    
C598  C811  A    
Cu15  O145  S    
C123  C210  A    
Cu4   O152  S    
C593  H216  S    
C686  C899  A    
C498  H122  S    
C907  C1010 A    
C508  H131  S    
C14   C379  S    
Cu31  O66   S    
C649  C862  A    
C539  H162  S    
Cu18  O190  S    
C587  C800  A    
C71   C389  S    
C129  C449  S    
Cu26  O15   S    
C43   C651  A    
C531  C744  A    
C608  C821  A    
C743  H324  S    
C507  C719  A    
C621  C1039 A    
C71   C222  A    
C789  C985  A    
Cu25  Cu39  S    
C741  H322  S    
C613  C986  S    
C590  C1025 A    
C539  C752  A    
C503  O19   A    
C562  C775  A    
C123  C443  S    
C504  C716  A    
C42   C652  A    
C505  C1037 A    
C67   C217  A    
C319  C426  T    
Cu34  O127  S    
C515  C728  A    
Cu48  O117  S    
C151  C221  A    
C338  C444  T    
Cu3   O151  S    
C610  H234  S    
Cu7   O142  S    
C41   C653  A    
C314  O138  A    
C392  C1000 S    
C24   C333  S    
C605  H229  S    
C486  C699  A    
C561  H184  S    
C107  C427  S    
C623  C837  A    
Cu45  O170  S    
C26   C334  S    
C592  H215  S    
C230  Cl59  S    
C913  C922  S    
C497  C1030 A    
C135  C455  S    
C85   C163  A    
Cu21  Cu33  S    
C293  C1038 S    
C634  C848  A    
C717  C930  A    
C503  C960  S    
C569  O69   A    
C251  Cl80  S    
C115  C195  A    
C25   C231  A    
C45   C648  A    
Cu5   O107  S    
C508  C1040 A    
C255  Cl84  S    
C596  H219  S    
Cu40  O70   S    
C583  H206  S    
C48   C650  A    
C587  H210  S    
C771  C975  A    
C102  C422  S    
C309  C1054 S    
C937  C991  S    
C297  C404  T    
C227  Cl55  S    
C262  Cl91  S    
C516  C1048 A    
C491  O20   A    
C733  H279  S    
C134  C454  S    
C372  C478  T    
C776  C973  A    
C380  C999  S    
C822  H20   S    
C743  C956  A    
C584  H207  S    
C575  C788  A    
C57   C677  A    
C635  H259  S    
C90   C172  A    
C622  C1038 A    
C511  H134  S    
Cu7   O119  S    
Cu26  Cu38  S    
C831  C926  A    
C560  H183  S    
C846  H43   S    
C153  C228  A    
C756  C970  A    
C573  H196  S    
C219  Cl48  S    
C403  C993  S    
C119  C439  S    
C155  C248  A    
Cu25  O6    S    
C542  H165  S    
C719  H146  S    
C646  C860  A    
C223  Cl52  S    
C582  H205  S    
C52   C361  S    
C713  C916  S    
C93   C174  A    
C708  C921  A    
C18   C552  A    
C735  C949  A    
Cu13  O169  S    
C137  C244  A    
Cu34  O13   S    
C186  Cl15  S    
C109  C189  A    
C641  C854  A    
C724  O153  A    
C498  C1031 A    
C38   C577  A    
C66   C173  A    
C86   C162  A    
C69   C176  A    
C294  C1039 S    
C38   C346  S    
C630  C843  A    
C315  C421  T    
Cu17  O164  S    
C526  C739  A    
C121  C211  A    
Cu9   O148  S    
C458  O108  A    
Cu33  O64   S    
C283  C388  T    
C735  H301  S    
C73   C393  S    
C571  H194  S    
C348  C454  T    
C765  C966  A    
C924  O104  A    
Cu39  O67   S    
C142  C462  S    
C762  H343  S    
C153  C233  A    
C45   C657  A    
C515  H138  S    
C127  C207  A    
C2    O143  A    
C892  C1007 A    
C310  C1055 S    
C170  O188  A    
C8    C530  A    
C874  C998  A    
C626  H249  S    
C797  H378  S    
C701  H352  S    
C23   C332  S    
C391  O150  A    
C91   C175  A    
C791  O73   A    
C921  C924  S    
C152  C472  S    
Cu35  O102  S    
Cu27  O17   S    
C198  Cl27  S    
C162  C1024 A    
C516  C729  A    
C606  C1044 A    
C778  H359  S    
C681  H304  S    
C61   C681  A    
C811  H9    S    
C125  C974  S    
C493  C1026 A    
Cu26  O40   S    
C226  C1046 A    
C358  O1    A    
C620  C832  A    
C725  O80   A    
C897  H94   S    
C294  C400  T    
C487  H110  S    
C371  C477  T    
C79   C399  S    
C740  H321  S    
C265  Cl94  S    
C692  H315  S    
C715  C928  A    
C591  C945  S    
C789  H370  S    
C33   C581  A    
C874  H71   S    
C506  C718  A    
C51   C670  A    
C488  H111  S    
C86   C406  S    
C5    C628  A    
C52   C663  A    
C698  C911  A    
C523  H147  S    
C84   C404  S    
C588  C1027 A    
C766  H347  S    
C207  Cl36  S    
C648  H271  S    
C510  C1042 A    
C875  H72   S    
C609  C822  A    
C712  C926  A    
C36   C230  A    
C644  C857  A    
C540  C753  A    
C148  C467  S    
C610  C823  A    
C132  C196  A    
C60   C687  A    
C860  H56   S    
C83   C185  A    
Cu38  O69   S    
C700  H341  S    
Cu24  O32   S    
C339  C445  T    
C520  C733  A    
Cu1   O46   S    
Cu1   Cu3   S    
