data_mof_unit_20642.cif
_audit_creation_date              2012-12-10T17:40:02-0500
_audit_creation_method            fapswitch 2.2
_symmetry_space_group_name_H-M    P1
_symmetry_Int_Tables_number       1
_space_group_crystal_system       triclinic
_cell_length_a                    11.939671
_cell_length_b                    12.902914
_cell_length_c                    27.64255
_cell_angle_alpha                 90.695028
_cell_angle_beta                  86.346636
_cell_angle_gamma                 94.102533
_cell_volume                      4238.84934789

loop_
_atom_site_label
_atom_site_type_symbol
_atom_type_description
_atom_site_fract_x
_atom_site_fract_y
_atom_site_fract_z
_atom_type_partial_charge
C1    C     C_R   0.523025 0.700450 0.498457 0.990115
C2    C     C_R   0.497052 0.602089 0.126850 -0.054426
C3    C     C_R   0.497900 0.494475 0.647419 -0.256310
C4    C     C_R   0.497298 0.509393 0.353384 -0.252485
C5    C     C_R   0.473653 0.608246 0.026277 0.008004
C6    C     C_R   0.425080 0.418181 0.977606 0.054736
C7    C     C_R   0.402213 0.425170 0.028469 -0.001604
C8    C     C_R   0.453959 0.608395 0.976175 -0.079910
C9    C     C_R   0.440119 0.516656 0.052751 -0.069248
C10   C     C_R   0.445000 0.512161 0.951389 -0.061795
C11   C     C_R   0.530905 0.693700 0.049629 0.491575
C12   C     C_R   0.477163 0.299510 0.501503 0.984877
C13   C     C_R   0.435359 0.321310 0.953049 0.547204
C14   C     C_R   0.542065 0.688213 0.100032 -0.299698
C15   C     C_R   0.453027 0.321711 0.902078 -0.321502
C16   C     C_R   0.499885 0.498336 0.594207 0.997125
C17   C     C_R   0.499685 0.501521 0.405995 1.015929
C18   C     C_R   0.442777 0.700514 0.949902 0.385895
C19   C     C_R   0.340091 0.346016 0.055523 0.376611
C20   C     C_R   0.462165 0.187901 0.501531 -0.210367
C21   C     C_R   0.539118 0.811983 0.498165 -0.223882
C22   C     C_R   0.627528 0.967920 0.531032 -0.285335
C23   C     C_R   0.457022 0.510233 0.900473 -0.143020
C24   C     C_R   0.373854 0.031680 0.468813 -0.270319
C25   C     C_R   0.629234 0.862061 0.521617 0.416268
C26   C     C_R   0.372717 0.137323 0.478024 0.400985
C27   C     C_R   0.455686 0.867550 0.479136 0.357892
C28   C     C_R   0.546333 0.132446 0.520196 0.362144
C29   C     C_R   0.457753 0.974672 0.486510 -0.054426
C30   C     C_R   0.544393 0.025186 0.512795 -0.043557
C31   C     C_R   0.953407 0.402885 0.454381 -0.353386
C32   C     C_R   0.046938 0.600034 0.544316 -0.355363
C33   C     C_R   0.837009 0.411237 0.459278 0.028722
C34   C     C_R   0.444978 0.516039 0.103396 -0.146849
C35   C     C_R   0.163029 0.589435 0.540510 0.070295
C36   C     C_R   0.858883 0.542911 0.519238 -0.078356
C37   C     C_R   0.141317 0.458545 0.480086 -0.046398
C38   C     C_R   0.976308 0.536788 0.515914 0.093185
C39   C     C_R   0.023970 0.465392 0.483110 0.091629
C40   C     C_R   0.482637 0.598341 0.823219 0.563167
C41   C     C_R   0.412723 0.429128 0.180745 0.569021
C42   C     C_R   0.475536 0.413093 0.825433 0.621555
C43   C     C_R   0.506900 0.598707 0.176889 0.611562
C44   C     C_R   0.391965 0.467992 0.725123 0.412145
C45   C     C_R   0.467270 0.604047 0.874102 -0.151693
C46   C     C_R   0.409359 0.574848 0.283945 0.414751
C47   C     C_R   0.396719 0.461605 0.674157 0.270269
C48   C     C_R   0.422576 0.575988 0.334185 0.260290
C49   C     C_R   0.595709 0.523862 0.671821 0.395595
C50   C     C_R   0.565913 0.449554 0.322423 0.382487
C51   C     C_R   0.589947 0.527445 0.722366 -0.278085
C52   C     C_R   0.552200 0.450101 0.272627 -0.285895
C53   C     C_R   0.489199 0.499700 0.748727 0.100382
C54   C     C_R   0.475501 0.512636 0.253576 0.103509
C55   C     C_3   0.775532 0.482343 0.648977 0.117978
C56   C     C_R   0.401122 0.428208 0.130357 -0.114516
C57   C     C_3   0.886151 0.536191 0.664072 -0.365382
C58   C     C_3   0.981601 0.463414 0.659268 -0.932951
C59   C     C_3   0.749761 0.412872 0.328755 0.092511
C60   C     C_3   0.819433 0.317818 0.327947 -0.323759
C61   C     C_3   0.944228 0.347761 0.316493 -0.970699
C62   C     C_3   0.186310 0.171223 0.486580 0.100007
C63   C     C_3   0.094895 0.139430 0.451958 -0.336576
C64   C     C_3   0.979201 0.125599 0.478909 -1.007927
C65   C     C_3   0.818805 0.834644 0.521673 0.097245
C66   C     C_3   0.837625 0.798716 0.468712 -0.366287
C67   C     C_R   0.457064 0.699626 0.898940 0.455480
C68   C     C_3   0.961172 0.815173 0.450893 -0.947954
C69   C     C_3   0.228257 0.583566 0.264553 0.043928
C70   C     C_3   0.146141 0.653030 0.242982 -0.295217
C71   C     C_3   0.027804 0.599734 0.243315 -0.965467
C72   C     C_3   0.229592 0.526573 0.758705 0.048767
C73   C     C_3   0.117143 0.493495 0.785489 -0.315549
C74   C     C_3   0.044315 0.585350 0.793741 -0.934799
C75   C     C_3   0.616801 0.867231 0.044068 0.128536
C76   C     C_3   0.514626 0.924432 0.064068 -0.412230
C77   C     C_3   0.550913 0.031661 0.083905 -0.886713
C78   C     C_R   0.346294 0.343383 0.106449 0.349091
C79   C     C_3   0.423139 0.135645 0.957282 0.113306
C80   C     C_3   0.300721 0.116351 0.943119 -0.359550
C81   C     C_3   0.283096 0.012673 0.916653 -0.898722
C82   C     C_R   0.461055 0.414373 0.875986 -0.053266
H1    H     H_    0.689810 0.003683 0.553878 0.179704
H2    H     H_    0.600656 0.400898 0.248554 0.183727
H3    H     H_    0.586611 0.750039 0.119068 0.189922
H4    H     H_    0.461830 0.250440 0.881948 0.193986
H5    H     H_    0.788979 0.447402 0.612325 0.179969
H6    H     H_    0.750462 0.416892 0.674472 0.130089
H7    H     H_    0.908638 0.605346 0.641044 0.233806
H8    H     H_    0.875276 0.563035 0.702312 0.222084
H9    H     H_    0.962872 0.395796 0.683673 0.265348
H10   H     H_    0.060934 0.505821 0.669374 0.269918
H11   H     H_    0.993627 0.435258 0.621285 0.277548
H12   H     H_    0.308634 0.996000 0.447397 0.181521
H13   H     H_    0.780388 0.469308 0.356516 0.157982
H14   H     H_    0.763691 0.450664 0.292563 0.133391
H15   H     H_    0.808455 0.278380 0.363568 0.219630
H16   H     H_    0.789103 0.261861 0.299962 0.237730
H17   H     H_    0.957951 0.378337 0.279065 0.276183
H18   H     H_    0.992996 0.278182 0.319229 0.278288
H19   H     H_    0.975624 0.407742 0.342444 0.261128
H20   H     H_    0.164317 0.243330 0.506201 0.170099
H21   H     H_    0.187054 0.109413 0.514572 0.120857
H22   H     H_    0.093544 0.199554 0.423641 0.229537
H23   H     H_    0.179936 0.404855 0.454851 0.148276
H24   H     H_    0.114486 0.065115 0.433692 0.220006
H25   H     H_    0.978963 0.064685 0.506934 0.260850
H26   H     H_    0.914699 0.101793 0.452962 0.272142
H27   H     H_    0.956785 0.199499 0.496758 0.277859
H28   H     H_    0.878737 0.797046 0.543781 0.159827
H29   H     H_    0.839805 0.919602 0.524916 0.120222
H30   H     H_    0.810913 0.715000 0.465312 0.251269
H31   H     H_    0.786400 0.842984 0.445136 0.215277
H32   H     H_    0.989951 0.898672 0.453055 0.269664
H33   H     H_    0.971762 0.788963 0.412571 0.274482
H34   H     H_    0.820285 0.597022 0.544253 0.174791
H35   H     H_    0.014168 0.769560 0.473054 0.271053
H36   H     H_    0.463966 0.851310 0.894788 0.366490
H37   H     H_    0.300225 0.196141 0.111796 0.334811
H38   H     H_    0.323513 0.689323 0.346526 0.374972
H39   H     H_    0.243745 0.395625 0.673023 0.366825
H40   H     H_    0.196739 0.563476 0.302361 0.153790
H41   H     H_    0.231329 0.510948 0.242435 0.173188
H42   H     H_    0.143356 0.726474 0.264333 0.234659
H43   H     H_    0.175920 0.672507 0.205030 0.232658
H44   H     H_    0.028271 0.526848 0.221529 0.270338
H45   H     H_    0.217745 0.637676 0.562587 0.133953
H46   H     H_    0.970552 0.652137 0.227290 0.277024
H47   H     H_    0.995377 0.581619 0.281053 0.264475
H48   H     H_    0.212881 0.560210 0.723128 0.144120
H49   H     H_    0.274358 0.587336 0.780662 0.176014
H50   H     H_    0.071415 0.432806 0.763937 0.231571
H51   H     H_    0.132562 0.459956 0.821120 0.237070
H52   H     H_    0.086695 0.645204 0.816853 0.276711
H53   H     H_    0.962346 0.558373 0.812263 0.268399
H54   H     H_    0.028362 0.620539 0.758589 0.264600
H55   H     H_    0.663033 0.917887 0.016140 0.176055
H56   H     H_    0.781846 0.362229 0.437868 0.149233
H57   H     H_    0.678882 0.857400 0.071589 0.123233
H58   H     H_    0.457265 0.933997 0.034728 0.253059
H59   H     H_    0.466762 0.879432 0.093493 0.225026
H60   H     H_    0.607308 0.024400 0.113945 0.271614
H61   H     H_    0.475589 0.070968 0.097980 0.279435
H62   H     H_    0.595474 0.080275 0.054789 0.265427
H63   H     H_    0.438014 0.074719 0.983570 0.175532
H64   H     H_    0.486118 0.124058 0.926767 0.127438
H65   H     H_    0.243234 0.115328 0.976336 0.260738
H66   H     H_    0.277435 0.178883 0.919282 0.231942
H67   H     H_    0.987584 0.347882 0.428639 0.162328
H68   H     H_    0.339422 0.011420 0.883111 0.283095
H69   H     H_    0.194527 0.001290 0.906519 0.270823
H70   H     H_    0.300426 0.947921 0.940500 0.295354
H71   H     H_    0.365311 0.769602 0.003615 0.332358
H72   H     H_    0.203772 0.253383 0.055388 0.334628
H73   H     H_    0.702769 0.164698 0.531607 0.328793
H74   H     H_    0.299569 0.834052 0.467697 0.324930
H75   H     H_    0.013038 0.657147 0.569075 0.142873
H76   H     H_    0.664022 0.552609 0.741243 0.182474
N1    N     N_R   0.484708 0.503973 0.800404 -0.333244
N2    N     N_R   0.464964 0.513340 0.202464 -0.334538
N3    N     N_R   0.207800 0.519340 0.508990 -0.098881
N4    N     N_R   0.792200 0.480660 0.491010 -0.110238
O1    O     O_R   0.421700 0.658820 0.502400 -0.595452
O2    O     O_2   0.372165 0.347366 0.208147 -0.486180
O3    O     O_2   0.558645 0.679725 0.199991 -0.545577
O4    O     O_2   0.480045 0.321804 0.801209 -0.540974
O5    O     O_3   0.694950 0.557309 0.646384 -0.609404
O6    O     O_3   0.635675 0.380949 0.341221 -0.617567
O7    O     O_3   0.290197 0.192633 0.459517 -0.626316
O8    O     O_3   0.708803 0.804256 0.541254 -0.614290
O9    O     O_3   0.456219 0.790376 0.872829 -0.696479
O10   O     O_3   0.300684 0.258721 0.132952 -0.706296
O11   O     O_3   0.364853 0.641405 0.365308 -0.704672
O12   O     O_R   0.578300 0.341180 0.497600 -0.596951
O13   O     O_3   0.304838 0.422839 0.649715 -0.743291
O14   O     O_3   0.335516 0.637550 0.263923 -0.628381
O15   O     O_3   0.293643 0.438994 0.752297 -0.631948
O16   O     O_3   0.585556 0.772344 0.020426 -0.621423
O17   O     O_3   0.442998 0.232548 0.981083 -0.624374
O18   O     O_3   0.406406 0.789253 0.972407 -0.798110
O19   O     O_3   0.265343 0.279375 0.031982 -0.768754
O20   O     O_3   0.628985 0.184991 0.545675 -0.749378
O21   O     O_3   0.373594 0.815195 0.453290 -0.709402
O22   O     O_R   0.609310 0.646410 0.496630 -0.617533
O23   O     O_R   0.390690 0.353590 0.503370 -0.610206
O24   O     O_R   0.406200 0.506190 0.574130 -0.587321
O25   O     O_R   0.593800 0.493810 0.425870 -0.635372
O26   O     O_R   0.593820 0.493770 0.568360 -0.596806
O27   O     O_R   0.406180 0.506230 0.431640 -0.571464
O28   O     O_2   0.493838 0.685599 0.796410 -0.486705
Zn1   Zn    Zn3+2 0.374730 0.508290 0.503850 1.017823
Zn2   Zn    Zn3+2 0.625270 0.491710 0.496150 0.980182

loop_
_geom_bond_atom_site_label_1
_geom_bond_atom_site_label_2
_ccdc_geom_bond_type
C25   O8    S    
C66   C68   S    
C34   C56   A    
C23   C45   A    
C23   C82   A    
C27   C29   A    
C73   C74   S    
C40   N1    A    
C42   N1    A    
C42   C82   A    
C55   O5    S    
N3    Zn1   S    
C19   O19   S    
N4    Zn2   S    
C3    C49   A    
H73   O20   S    
C79   H63   S    
C1    C21   S    
C5    C9    A    
C29   C30   A    
C57   H7    S    
C72   H49   S    
H36   O9    S    
C37   N3    A    
C66   H31   S    
C58   H11   S    
C24   C26   A    
C62   H21   S    
C60   H16   S    
C38   C39   A    
C31   H67   S    
C11   C14   A    
C69   H41   S    
C81   H68   S    
H72   O19   S    
O24   Zn1   S    
C56   C78   A    
O27   Zn1   S    
C3    C47   A    
C55   H6    S    
C52   H2    S    
C75   O16   S    
C28   O20   S    
C24   C29   A    
C65   H29   S    
C77   H60   S    
C44   C53   A    
C1    O22   A    
C80   H65   S    
C26   O7    S    
C49   C51   A    
C22   C25   A    
C74   H54   S    
C45   C67   A    
C50   C52   A    
O22   Zn2   S    
C71   H44   S    
C64   H26   S    
C70   C71   S    
C69   O14   S    
C32   C38   A    
C79   H64   S    
C58   H9    S    
C33   H56   S    
C72   H48   S    
C44   C47   A    
H37   O10   S    
C76   H59   S    
C2    C34   A    
C76   H58   S    
C21   C27   A    
C73   H50   S    
C18   O18   S    
C59   C60   S    
C36   N4    A    
C46   C54   A    
C61   H17   S    
C59   H13   S    
C72   O15   S    
C78   O10   S    
H74   O21   S    
C52   C54   A    
O23   Zn1   S    
C15   C82   A    
C43   O3    S    
C40   C45   A    
C46   C48   A    
C53   N1    S    
C57   H8    S    
C64   H27   S    
C32   C35   A    
C76   C77   S    
C43   N2    A    
C16   O26   A    
C72   C73   S    
C20   C28   A    
C17   O27   A    
C18   C67   A    
C81   H69   S    
C8    C18   A    
C63   C64   S    
C4    C50   A    
C60   C61   S    
C51   C53   A    
C19   C78   A    
C61   H19   S    
C75   C76   S    
C77   H61   S    
C41   C56   A    
C37   H23   S    
C62   C63   S    
C24   H12   S    
C68   H35   S    
C71   H47   S    
C41   N2    A    
C13   C15   A    
C2    C43   A    
C63   H22   S    
C74   H53   S    
C12   C20   S    
C31   C33   A    
C11   O16   S    
C35   N3    A    
C63   H24   S    
C35   H45   S    
O25   Zn2   S    
C15   H4    S    
C4    C17   S    
C70   H43   S    
C73   H51   S    
C60   H15   S    
C7    C19   A    
C55   C57   S    
C5    C11   A    
C75   H55   S    
C9    C34   A    
C46   O14   S    
C71   H46   S    
C61   H18   S    
C59   H14   S    
C36   H34   S    
C64   H25   S    
C12   O12   A    
C32   H75   S    
C4    C48   A    
C7    C9    A    
C62   O7    S    
C21   C25   A    
C22   C30   A    
C14   H3    S    
C80   C81   S    
C44   O15   S    
C6    C10   A    
C5    C8    A    
O1    Zn1   S    
C49   O5    S    
C6    C7    A    
C10   C23   A    
C81   H70   S    
C51   H76   S    
C65   O8    S    
O26   Zn2   S    
C67   O9    S    
C22   H1    S    
C36   C38   A    
C33   N4    A    
C77   H62   S    
C28   C30   A    
C37   C39   A    
C75   H57   S    
C6    C13   A    
C50   O6    S    
C57   C58   S    
H39   O13   S    
C20   C26   A    
C69   H40   S    
C17   O25   A    
C12   O23   A    
C74   H52   S    
C13   O17   S    
C31   C39   A    
C48   O11   S    
C79   O17   S    
C55   H5    S    
C69   C70   S    
C2    C14   A    
C27   O21   S    
C65   H28   S    
H71   O18   S    
C59   O6    S    
C68   H33   S    
C54   N2    S    
C79   C80   S    
C70   H42   S    
H38   O11   S    
C80   H66   S    
C40   O28   S    
C1    O1    A    
C8    C10   A    
C65   C66   S    
C41   O2    S    
O12   Zn2   S    
C16   O24   A    
C66   H30   S    
C58   H10   S    
C47   O13   S    
C3    C16   S    
C42   O4    S    
C68   H32   S    
C62   H20   S    
