data_mof_unit_6428.cif
_audit_creation_date              2012-12-10T19:10:05-0500
_audit_creation_method            fapswitch 2.2
_symmetry_space_group_name_H-M    P1
_symmetry_Int_Tables_number       1
_space_group_crystal_system       triclinic
_cell_length_a                    10.883998
_cell_length_b                    10.783742
_cell_length_c                    9.594999
_cell_angle_alpha                 90.41118
_cell_angle_beta                  91.524009
_cell_angle_gamma                 90.136431
_cell_volume                      1125.73612772

loop_
_atom_site_label
_atom_site_type_symbol
_atom_type_description
_atom_site_fract_x
_atom_site_fract_y
_atom_site_fract_z
_atom_type_partial_charge
C1    C     C_R   0.500724 0.262640 0.499803 0.817169
C2    C     C_R   0.174175 0.608000 0.962672 -0.151719
C3    C     C_R   0.930494 0.531699 0.382756 -0.242085
C4    C     C_R   0.871961 0.500710 0.505504 -0.091144
C5    C     C_R   0.943237 0.468558 0.624808 0.104665
C6    C     C_R   0.070119 0.465513 0.616665 -0.179929
C7    C     C_R   0.128520 0.496860 0.493794 -0.105300
C8    C     C_R   0.057336 0.528624 0.374056 -0.013690
C9    C     C_R   0.864783 0.546995 0.848413 -0.262190
C10   C     C_R   0.830643 0.528134 0.985541 0.622673
C11   C     C_R   0.824545 0.407842 0.038504 -0.297650
C12   C     C_R   0.262406 0.499325 0.497771 0.780467
C13   C     C_R   0.850744 0.306189 0.953250 -0.282502
C14   C     C_R   0.885112 0.324696 0.815548 0.642118
C15   C     C_R   0.892178 0.445570 0.762758 -0.084470
C16   C     C_R   0.451717 0.065017 0.609166 0.099688
C17   C     C_R   0.506351 0.129369 0.501446 -0.165527
C18   C     C_R   0.571735 0.063994 0.400715 -0.125709
C19   C     C_R   0.571690 0.934692 0.401476 -0.213640
C20   C     C_R   0.505558 0.870832 0.502296 -0.081016
C21   C     C_R   0.450302 0.937036 0.609007 0.027417
C22   C     C_3   0.319280 0.932356 0.652526 -0.525834
C23   C     C_R   0.499953 0.737427 0.500394 0.801571
C24   C     C_3   0.321849 0.072879 0.654592 0.479935
C25   C     C_R   0.464785 0.602481 0.073316 0.181779
C26   C     C_R   0.528358 0.395779 0.072966 0.668813
C27   C     C_R   0.527568 0.395867 0.925238 -0.109840
C28   C     C_R   0.466489 0.602875 0.926385 0.199186
C29   C     C_3   0.526675 0.727189 0.925196 -0.418372
C30   C     C_3   0.521740 0.728139 0.082743 -0.433881
C31   C     C_R   0.737745 0.500100 0.502126 0.804018
C32   C     C_R   0.143337 0.705051 0.052351 -0.110717
C33   C     C_R   0.110068 0.679841 0.189047 -0.097484
C34   C     C_R   0.108394 0.557147 0.236836 0.132818
C35   C     C_R   0.140600 0.460149 0.146678 -0.084951
C36   C     C_R   0.174288 0.485753 0.010364 -0.160160
Cu1   Cu    Cu3+1 0.499990 0.499980 0.640670 0.967215
Cu2   Cu    Cu3+1 0.500010 0.500020 0.359330 1.006676
H1    H     H_    0.199152 0.627753 0.856676 0.145610
H2    H     H_    0.798893 0.392891 0.145175 0.211201
H3    H     H_    0.845612 0.213213 0.994463 0.204591
H4    H     H_    0.620674 0.112427 0.320696 0.213529
H5    H     H_    0.621056 0.884987 0.322273 0.162219
H6    H     H_    0.256691 0.893124 0.569841 0.152696
H7    H     H_    0.308117 0.891328 0.757187 0.216833
H8    H     H_    0.258313 0.117209 0.577231 0.074482
H9    H     H_    0.143933 0.799642 0.015434 0.149008
H10   H     H_    0.553201 0.312227 0.870777 0.196879
H11   H     H_    0.621740 0.723658 0.885686 0.236437
H12   H     H_    0.467169 0.798894 0.876790 0.198949
H13   H     H_    0.613591 0.727948 0.135608 0.261559
H14   H     H_    0.456868 0.798327 0.123383 0.197728
H15   H     H_    0.083192 0.755329 0.256685 0.128670
H16   H     H_    0.137440 0.364848 0.181315 0.139318
H17   H     H_    0.199641 0.410636 0.941658 0.166236
H18   H     H_    0.876961 0.559265 0.292174 0.226110
H19   H     H_    0.123635 0.439544 0.708502 0.164283
H20   H     H_    0.872491 0.640715 0.809586 0.172203
N1    N     N_R   0.500790 0.500930 0.147930 -0.232499
N2    N     N_R   0.500790 0.500890 0.852020 -0.229165
O1    O     O_R   0.500000 0.319640 0.618810 -0.572254
O2    O     O_R   0.500010 0.319680 0.381230 -0.511712
O3    O     O_R   0.319640 0.499990 0.618790 -0.585779
O4    O     O_R   0.319650 0.500030 0.381210 -0.579600
O5    O     O_R   0.499990 0.680320 0.618770 -0.580621
O6    O     O_R   0.500000 0.680360 0.381190 -0.591983
O7    O     O_R   0.680350 0.499970 0.618790 -0.580603
O8    O     O_R   0.680360 0.500010 0.381210 -0.566331
F1    F     F_    0.913787 0.225618 0.734797 -0.656567
F2    F     F_    0.315171 0.121511 0.788090 -0.636436
F3    F     F_    0.564217 0.290718 0.138091 -0.676129
F4    F     F_    0.805851 0.627213 0.067180 -0.717262

loop_
_geom_bond_atom_site_label_1
_geom_bond_atom_site_label_2
_ccdc_geom_bond_type
C27   H10   S    
Cu1   O1    S    
C30   H13   S    
C16   C21   A    
C3    H18   S    
C1    C17   S    
C19   C20   A    
C20   C23   S    
C27   N2    A    
C24   H8    S    
C32   C33   A    
C23   O5    A    
C13   H3    S    
C33   C34   A    
C9    C15   A    
C24   F2    S    
C7    C8    A    
C16   C24   S    
C36   H17   S    
C8    C34   S    
C21   C22   S    
C1    O2    A    
C35   H16   S    
C31   O7    A    
C26   F3    S    
C11   C13   A    
C6    H19   S    
C26   C27   A    
C29   C30   S    
C5    C6    A    
Cu1   O7    S    
C23   O6    A    
Cu1   O5    S    
C28   C29   S    
Cu1   O3    S    
Cu1   Cu2   S    
C19   H5    S    
C17   C18   A    
C6    C7    A    
Cu2   O4    S    
C29   H12   S    
C28   N2    A    
C3    C8    A    
C33   H15   S    
C31   O8    A    
C12   O4    A    
C32   H9    S    
C22   C24   S    
C7    C12   S    
C5    C15   S    
C4    C31   S    
C16   C17   A    
C10   C11   A    
C25   C28   A    
C1    O1    A    
C11   H2    S    
Cu1   N2    S    
Cu2   O6    S    
C22   H7    S    
C18   C19   A    
C20   C21   A    
C9    H20   S    
C2    C32   A    
C34   C35   A    
C9    C10   A    
C2    C36   A    
C25   C30   S    
C12   O3    A    
C30   H14   S    
C14   C15   A    
C14   F1    S    
C26   N1    A    
C29   H11   S    
C25   N1    A    
C18   H4    S    
C13   C14   A    
C2    H1    S    
C22   H6    S    
C3    C4    A    
Cu2   N1    S    
Cu2   O8    S    
C4    C5    A    
Cu2   O2    S    
C35   C36   A    
C10   F4    S    
