data_mof_unit_51511.cif
_audit_creation_date              2013-03-05T15:40:46-0500
_audit_creation_method            fapswitch 2.2
_symmetry_space_group_name_H-M    P1
_symmetry_Int_Tables_number       1
_space_group_crystal_system       triclinic
_cell_length_a                    6.931826
_cell_length_b                    17.391059
_cell_length_c                    24.213922
_cell_angle_alpha                 105.189393
_cell_angle_beta                  90.770707
_cell_angle_gamma                 90.565523
_cell_volume                      2816.52921105

loop_
_atom_site_label
_atom_site_type_symbol
_atom_site_description
_atom_site_fract_x
_atom_site_fract_y
_atom_site_fract_z
_atom_type_partial_charge
O1    O     O_R   0.494290 0.391990 0.999150 -0.563944
O2    O     O_R   0.827170 0.534410 0.082350 -0.539848
O3    O     O_R   0.994360 0.608010 0.000850 -0.532692
C1    C     C_R   0.659526 0.549679 0.106175 0.923473
O4    O     O_R   0.824210 0.388010 0.004470 -0.537675
O5    O     O_R   0.991370 0.460560 0.922410 -0.566404
C2    C     C_R   0.653008 0.354872 0.000403 0.869732
O6    O     O_R   0.497270 0.539440 0.077590 -0.556893
O7    O     O_3   0.659770 0.523970 0.973170 -0.242510
V1    V     V_3+5 0.935840 0.495550 0.004980 1.254893
O8    O     O_R   0.320910 0.465590 0.917650 -0.567663
C3    C     C_R   0.150370 0.448703 0.894191 0.845720
O9    O     O_R   0.323870 0.611990 0.995530 -0.506444
C4    C     C_R   0.154583 0.645028 0.998653 0.834549
V2    V     V_3+5 0.435470 0.504450 0.995020 1.259675
O10   O     O_3   0.161670 0.476030 0.026830 -0.260137
C5    C     C_2   0.143722 0.730186 0.998735 0.082286
C6    C     C_2   0.972038 0.770117 0.002016 0.101815
C7    C     C_R   0.105680 0.235390 0.626763 0.645107
N1    N     N_R   0.077010 0.314771 0.650739 -0.455951
C8    C     C_R   0.027580 0.364723 0.617700 0.606424
C9    C     C_R   0.016951 0.336381 0.557166 -0.099374
C10   C     C_R   0.038800 0.253592 0.532239 -0.077810
C11   C     C_R   0.081641 0.202993 0.567354 -0.083140
C12   C     C_R   0.980933 0.387104 0.520837 0.353227
C13   C     C_R   0.953476 0.354008 0.461904 -0.053732
C14   C     C_R   0.974650 0.272099 0.437162 -0.075958
C15   C     C_R   0.019814 0.221362 0.472146 -0.076228
C16   C     C_R   0.048156 0.138854 0.446995 -0.109634
C17   C     C_R   0.075526 0.087308 0.483593 0.385356
C18   C     C_R   0.095901 0.120888 0.542894 0.031387
C19   C     C_R   0.957935 0.240218 0.377613 0.635862
N2    N     N_R   0.001951 0.162269 0.353286 -0.447496
C20   C     C_R   0.055178 0.112743 0.386335 0.647258
O11   O     O_2   0.155922 0.187814 0.660420 -0.461718
O12   O     O_2   0.982915 0.440710 0.643774 -0.463676
H1    H     H_    0.925767 0.393682 0.434942 0.192111
O13   O     O_2   0.902863 0.287267 0.344058 -0.463941
O14   O     O_2   0.124653 0.040460 0.360350 -0.406714
H2    H     H_    0.117946 0.081868 0.570592 0.212064
C21   C     C_R   0.851168 0.079714 0.264747 -0.036223
H3    H     H_    0.744747 0.060861 0.291019 0.169362
C22   C     C_R   0.844075 0.048535 0.204991 0.290602
C23   C     C_R   0.981529 0.074674 0.170434 -0.271018
C24   C     C_R   0.132913 0.127315 0.198209 0.277464
C25   C     C_R   0.142798 0.154207 0.258443 0.216054
C26   C     C_R   0.998161 0.132442 0.291648 0.125264
C27   C     C_R   0.260421 0.392192 0.735321 0.002145
H4    H     H_    0.373116 0.402347 0.707409 0.120579
C28   C     C_R   0.280337 0.424679 0.794540 -0.095985
H5    H     H_    0.408852 0.459263 0.811387 0.119044
C29   C     C_R   0.133646 0.413861 0.831377 -0.122065
C30   C     C_R   0.968672 0.368555 0.807765 -0.105589
H6    H     H_    0.854302 0.358676 0.835274 0.118853
C31   C     C_R   0.950185 0.334571 0.748714 0.210479
C32   C     C_R   0.096367 0.346583 0.711968 0.241093
C33   C     C_R   0.511209 0.881708 0.614370 0.662162
N3    N     N_R   0.504193 0.829143 0.647826 -0.451273
C34   C     C_R   0.497957 0.748640 0.623108 0.597925
C35   C     C_R   0.497544 0.718623 0.563093 -0.048879
C36   C     C_R   0.518140 0.771518 0.528319 -0.079329
C37   C     C_R   0.532785 0.854220 0.554085 -0.132124
C38   C     C_R   0.477212 0.636748 0.537483 0.017361
C39   C     C_R   0.476167 0.606163 0.478054 0.251321
C40   C     C_R   0.504760 0.658222 0.442231 -0.048754
C41   C     C_R   0.526937 0.741338 0.467969 -0.095573
C42   C     C_R   0.555365 0.794327 0.433335 -0.137438
C43   C     C_R   0.553413 0.877948 0.458532 0.328080
C44   C     C_R   0.560058 0.907066 0.518978 0.345680
C45   C     C_R   0.513208 0.631030 0.381792 0.697819
N4    N     N_R   0.565650 0.681835 0.349749 -0.431938
C46   C     C_R   0.592791 0.761576 0.374539 0.731823
O15   O     O_2   0.490887 0.960112 0.639328 -0.426527
O16   O     O_2   0.491836 0.697518 0.656466 -0.500596
H7    H     H_    0.460586 0.595625 0.563845 0.185470
O17   O     O_2   0.471225 0.554641 0.354706 -0.447294
O18   O     O_2   0.662051 0.808351 0.342657 -0.416406
C47   C     C_R   0.468615 0.669964 0.248383 0.345535
C48   C     C_R   0.497342 0.636800 0.189809 -0.132489
H8    H     H_    0.398236 0.651976 0.159433 0.156773
C49   C     C_R   0.648290 0.584057 0.169477 -0.208903
C50   C     C_R   0.777439 0.565027 0.209694 0.093540
C51   C     C_R   0.749444 0.597443 0.269179 0.348732
C52   C     C_R   0.595162 0.650168 0.288751 0.095070
C53   C     C_R   0.333272 0.839290 0.738403 -0.004968
H9    H     H_    0.220061 0.801326 0.714069 0.142422
C54   C     C_R   0.317228 0.867159 0.798008 0.146221
C55   C     C_R   0.463342 0.917210 0.830531 -0.141893
C56   C     C_R   0.624930 0.936055 0.801692 -0.124927
H10   H     H_    0.740019 0.973408 0.825583 0.141929
C57   C     C_R   0.641569 0.907290 0.742190 0.238044
C58   C     C_R   0.493554 0.858973 0.709666 0.201182
C59   C     C_2   0.636142 0.267707 0.990921 -0.046528
C60   C     C_2   0.477419 0.231744 0.006737 -0.007108
O19   O     O_R   0.618210 0.960470 0.922400 -0.562222
O20   O     O_R   0.291310 0.111960 0.995450 -0.541309
O21   O     O_R   0.124210 0.039530 0.077580 -0.524041
C61   C     C_R   0.462309 0.144828 0.998626 0.885451
O22   O     O_R   0.288310 0.965490 0.917650 -0.548431
O23   O     O_R   0.121180 0.892010 0.999220 -0.537732
C62   C     C_R   0.455448 0.948408 0.894025 0.889859
O24   O     O_R   0.621230 0.107990 0.000760 -0.559628
O25   O     O_3   0.455770 0.976060 0.026840 -0.202147
V3    V     V_3+5 0.179680 0.004440 0.995020 1.301499
O26   O     O_R   0.791670 0.888040 0.004570 -0.495934
C63   C     C_R   0.961037 0.855113 0.001721 0.863939
O27   O     O_R   0.794680 0.034510 0.082370 -0.514458
C64   C     C_R   0.965683 0.048499 0.106305 0.912143
V4    V     V_3+5 0.680070 0.995560 0.005010 1.342599
O28   O     O_3   0.953840 0.023940 0.973160 -0.280942
N5    N     N_R   0.323555 0.770236 0.996309 0.107804
O29   O     O_R   0.386509 0.776396 0.947254 -0.313069
O30   O     O_R   0.406074 0.811458 0.043494 -0.250654
I1    I     I_    0.384848 0.223821 0.299843 -0.147872
I2    I     I_    0.697886 0.266570 0.717012 -0.291496
I3    I     I_    0.436514 0.479684 0.449965 -0.152855
N6    N     N_R   0.518672 0.932045 0.423242 0.155667
O31   O     O_R   0.390010 0.913137 0.382098 -0.192322
O32   O     O_R   0.587082 0.004586 0.437347 -0.283964
N7    N     N_R   0.610178 0.989001 0.544480 0.147970
O33   O     O_R   0.775138 0.006769 0.571225 -0.297498
O34   O     O_R   0.482530 0.044306 0.548450 -0.288949
N8    N     N_R   0.308294 0.722489 0.265842 0.128983
O35   O     O_R   0.219695 0.725701 0.313372 -0.280419
O36   O     O_R   0.239821 0.762948 0.231892 -0.263834
N9    N     N_R   0.792355 0.730271 0.004991 0.111645
O37   O     O_R   0.731235 0.724161 0.054257 -0.293049
O38   O     O_R   0.708576 0.688945 0.958056 -0.291604
I4    I     I_    0.016819 0.488058 0.182925 -0.159143
N10   N     N_R   0.875479 0.575704 0.310094 0.122197
O39   O     O_R   0.950246 0.630276 0.352588 -0.310401
O40   O     O_R   0.891411 0.501229 0.310117 -0.233805
I5    I     I_    0.075007 0.824260 0.834664 -0.321685
I6    I     I_    0.898536 0.936420 0.704888 -0.260535
I7    I     I_    0.852425 0.203003 0.936087 -0.347919
I8    I     I_    0.247951 0.295922 0.055852 -0.190001
N11   N     N_R   0.986678 0.472414 0.541818 0.130382
O41   O     O_R   0.139018 0.507534 0.569582 -0.306350
O42   O     O_R   0.862240 0.515171 0.522759 -0.339092
N12   N     N_R   0.070907 0.001357 0.463018 0.144920
O43   O     O_R   0.954650 0.965770 0.421427 -0.226245
O44   O     O_R   0.147709 0.958278 0.493849 -0.339041
N13   N     N_R   0.703141 0.987269 0.180743 0.137331
O45   O     O_R   0.754127 0.923523 0.142359 -0.295906
O46   O     O_R   0.535764 0.987574 0.204565 -0.271515
N14   N     N_R   0.273936 0.156452 0.165789 0.099243
O47   O     O_R   0.420719 0.112540 0.145574 -0.310875
O48   O     O_R   0.281690 0.232233 0.169117 -0.290246

loop_
_geom_bond_atom_site_label_1
_geom_bond_atom_site_label_2
_geom_bond_distance
_ccdc_geom_bond_type
C31   C32   1.406979 A    
C59   C60   1.368076 D    
C39   I3    2.139034 S    
C21   C22   1.405877 A    
C21   H3    1.083300 S    
C54   I5    2.127422 S    
C22   N13   1.438950 S    
C7    N1    1.367807 A    
C27   C32   1.404275 A    
N1    C32   1.444133 S    
C55   C62   1.492251 S    
N8    O35   1.300309 A    
C8    O12   1.347932 S    
C53   H9    1.082778 S    
C23   C24   1.425139 A    
N11   O42   1.300667 A    
C13   C14   1.403186 A    
C46   O18   1.348890 S    
C31   I2    2.119857 S    
C35   C38   1.401033 A    
C8    C9    1.419369 A    
C15   C16   1.421014 A    
N12   O44   1.300877 A    
N14   O47   1.300342 A    
N6    O32   1.300426 A    
O5    C3    1.294255 A    
C17   C18   1.405813 A    
N8    O36   1.302078 A    
C60   C61   1.474821 S    
V2    O10   2.158709 S    
O23   V3    2.021769 S    
C18   H2    1.082356 S    
C5    C6    1.376518 D    
C42   C46   1.416535 A    
C33   O15   1.348540 S    
O21   C64   1.297209 A    
O8    V2    1.970532 S    
C36   C41   1.419754 A    
C1    C49   1.495622 S    
N5    O29   1.300989 A    
C43   C44   1.417787 A    
C9    C12   1.421039 A    
O20   C61   1.303387 A    
O19   C62   1.299212 A    
C28   C29   1.404815 A    
C10   C11   1.405679 A    
C45   N4    1.369416 A    
O1    V2    2.029417 S    
C19   O13   1.349647 S    
C56   C57   1.402615 A    
O7    V1    2.162918 S    
C1    O6    1.298577 A    
C30   C31   1.400349 A    
C41   C42   1.413218 A    
N7    O33   1.300254 A    
C34   C35   1.409479 A    
O9    C4    1.306063 A    
O27   V4    1.970603 S    
C4    C5    1.483137 S    
C5    N5    1.431357 S    
O22   V3    1.979551 S    
C3    C29   1.484884 S    
C53   C58   1.404954 A    
N7    O34   1.299175 A    
C28   H5    1.082978 S    
N14   O48   1.299669 A    
C23   C64   1.501514 S    
C2    C59   1.475707 S    
C17   N12   1.446374 S    
C25   I1    2.136464 S    
C53   C54   1.403261 A    
C42   C43   1.422301 A    
C33   C37   1.422437 A    
N12   O43   1.299381 A    
C51   N10   1.437785 S    
O19   V4    1.972211 S    
C57   C58   1.411902 A    
C48   C49   1.405258 A    
C47   C48   1.401812 A    
C12   C13   1.401428 A    
C61   O24   1.287017 A    
C16   C20   1.420869 A    
C49   C50   1.417953 A    
C20   O14   1.346727 S    
C37   C44   1.418931 A    
C35   C36   1.407886 A    
C40   C45   1.417380 A    
C12   N11   1.436717 S    
C22   C23   1.423673 A    
C6    C63   1.482755 S    
C16   C17   1.428294 A    
C47   C52   1.415179 A    
C43   N6    1.446902 S    
C60   I8    2.140235 S    
C51   C52   1.419298 A    
O27   C64   1.304649 A    
N2    C20   1.370366 A    
C21   C26   1.397883 A    
N5    O30   1.300617 A    
C10   C15   1.419432 A    
C55   C56   1.408320 A    
C50   I4    2.140901 S    
C47   N8    1.441694 S    
C34   O16   1.349499 S    
O3    C4    1.286940 A    
C27   H4    1.082712 S    
O22   C62   1.301294 A    
C50   C51   1.419247 A    
O6    V2    1.971157 S    
O20   V3    2.014041 S    
C45   O17   1.345501 S    
N2    C26   1.445786 S    
O2    V1    1.979508 S    
C14   C15   1.408603 A    
C29   C30   1.408545 A    
O4    C2    1.305292 A    
N4    C52   1.452855 S    
O26   C63   1.306046 A    
N13   O46   1.302084 A    
O26   V4    2.028145 S    
C25   C26   1.403071 A    
N9    O38   1.300526 A    
C14   C19   1.405440 A    
O1    C2    1.285092 A    
C38   C39   1.397236 A    
C59   I7    2.140265 S    
O5    V1    1.975758 S    
O8    C3    1.301564 A    
C13   H1    1.083708 S    
C30   H6    1.083148 S    
N11   O41   1.301199 A    
C44   N7    1.433813 S    
O23   C63   1.286787 A    
C24   N14   1.431059 S    
O25   V4    1.708063 S    
N10   O40   1.301116 A    
C19   N2    1.368318 A    
O9    V2    2.028073 S    
C7    C11   1.407679 A    
N3    C34   1.370830 A    
C11   C18   1.400227 A    
O4    V1    2.013893 S    
O3    V1    2.021789 S    
V1    O10   1.711142 S    
N6    O31   1.301810 A    
C6    N9    1.431184 S    
V3    O28   1.711191 S    
C33   N3    1.372073 A    
C57   I6    2.123810 S    
C38   H7    1.082482 S    
N9    O37   1.301138 A    
O2    C1    1.302918 A    
C39   C40   1.422684 A    
C27   C28   1.401068 A    
N10   O39   1.300880 A    
O7    V2    1.708338 S    
C36   C37   1.411865 A    
O21   V3    1.975522 S    
C48   H8    1.083652 S    
C24   C25   1.410628 A    
N4    C46   1.369103 A    
N1    C8    1.369240 A    
C54   C55   1.416198 A    
C40   C41   1.422107 A    
O25   V3    2.162907 S    
C9    C10   1.418325 A    
O24   V4    2.029806 S    
C7    O11   1.349600 S    
C56   H10   1.083292 S    
V4    O28   2.158722 S    
N3    C58   1.453741 S    
N13   O45   1.301683 A    
