data_mof_unit_45011.cif
_audit_creation_date              2012-12-11T15:08:28-0500
_audit_creation_method            fapswitch 2.2
_symmetry_space_group_name_H-M    P1
_symmetry_Int_Tables_number       1
_space_group_crystal_system       triclinic
_cell_length_a                    26.862637
_cell_length_b                    7.080515
_cell_length_c                    11.970296
_cell_angle_alpha                 89.702438
_cell_angle_beta                  103.285129
_cell_angle_gamma                 89.240946
_cell_volume                      2215.56252206

loop_
_atom_site_label
_atom_site_type_symbol
_atom_type_description
_atom_site_fract_x
_atom_site_fract_y
_atom_site_fract_z
_atom_type_partial_charge
O1    O     O_R   0.437360 0.505910 0.042120 -0.522312
O2    O     O_R   0.562640 0.005910 0.957880 -0.537006
O3    O     O_R   0.542480 0.176660 0.157100 -0.541593
O4    O     O_R   0.457520 0.676660 0.842900 -0.528645
C1    C     C_R   0.556646 0.343219 0.197966 0.732750
C2    C     C_R   0.443369 0.845729 0.802072 0.737218
O5    O     O_R   0.436520 0.176250 0.054800 -0.533487
O6    O     O_R   0.563480 0.676250 0.945200 -0.521325
O7    O     O_R   0.455920 0.005040 0.854840 -0.542253
O8    O     O_R   0.544080 0.505040 0.145160 -0.527779
C3    C     C_R   0.417724 0.345599 0.064385 0.824059
C4    C     C_R   0.582273 0.844019 0.935596 0.827210
O9    O     O_3   0.506490 0.338900 0.934520 -0.377535
O10   O     O_3   0.493510 0.838900 0.065480 -0.377688
V1    V     V_3+5 0.498800 0.064400 0.012150 1.609036
V2    V     V_3+5 0.501200 0.564400 0.987850 1.643165
C5    C     C_R   0.681775 0.873490 0.760744 -0.062618
C6    C     C_R   0.318311 0.348347 0.240441 -0.065218
H1    H     H_    0.681997 0.887315 0.670801 0.200970
H2    H     H_    0.318075 0.340999 0.330620 0.201580
C7    C     C_R   0.632176 0.850042 0.904781 -0.158324
C8    C     C_R   0.367950 0.355153 0.095875 -0.158469
C9    C     C_R   0.867367 0.900047 0.212526 0.366192
C10   C     C_R   0.132493 0.311194 0.789646 0.366291
C11   C     C_R   0.820916 0.913589 0.245607 0.388482
C12   C     C_R   0.178843 0.289773 0.756925 0.396776
C13   C     C_R   0.774978 0.905099 0.163726 -0.092945
C14   C     C_R   0.224858 0.298871 0.838514 -0.094252
C15   C     C_R   0.773386 0.861624 0.047997 0.085639
C16   C     C_R   0.226712 0.350141 0.953211 0.085104
C17   C     C_R   0.820794 0.849942 0.013862 -0.065209
C18   C     C_R   0.179384 0.369688 0.986991 -0.065759
C19   C     C_R   0.726175 0.846556 0.963460 0.027574
C20   C     C_R   0.273995 0.366158 0.037354 0.027327
C21   C     C_R   0.727630 0.854674 0.845171 -0.054587
C22   C     C_R   0.272516 0.365681 0.155721 -0.055188
C23   C     C_R   0.774849 0.842913 0.813162 0.420637
C24   C     C_R   0.225328 0.382942 0.187477 0.422800
C25   C     C_R   0.820337 0.833978 0.896654 -0.106627
C26   C     C_R   0.179902 0.392458 0.103808 -0.108375
C27   C     C_R   0.677428 0.823075 0.990478 0.306632
C28   C     C_R   0.322848 0.382433 0.009828 0.306227
C29   C     C_R   0.634677 0.879252 0.790470 0.364678
C30   C     C_R   0.365336 0.334742 0.210772 0.367183
C31   C     C_R   0.867817 0.866790 0.096891 -0.179575
C32   C     C_R   0.132280 0.353918 0.904199 -0.177370
H3    H     H_    0.741216 0.945711 0.192074 0.204386
H4    H     H_    0.258383 0.252738 0.811003 0.203947
H5    H     H_    0.855666 0.823720 0.867965 0.152449
H6    H     H_    0.144599 0.407695 0.132209 0.149868
C33   C     C_R   0.091949 0.847125 0.311035 -0.253021
C34   C     C_R   0.908597 0.373010 0.687349 -0.252994
C35   C     C_R   0.408566 0.856647 0.688152 -0.090647
C36   C     C_R   0.591646 0.347485 0.311649 -0.089410
C37   C     C_R   0.109043 0.731381 0.506647 0.022733
C38   C     C_R   0.891593 0.467991 0.487642 0.020921
C39   C     C_R   0.076572 0.746046 0.398189 0.351299
C40   C     C_R   0.924095 0.462390 0.596184 0.355861
C41   C     C_R   0.142829 0.906440 0.328259 0.587780
C42   C     C_R   0.857697 0.314512 0.672145 0.587175
C43   C     C_R   0.178912 0.860476 0.432138 -0.013928
C44   C     C_R   0.821553 0.352309 0.566842 -0.013529
C45   C     C_R   0.159748 0.791423 0.524947 -0.197125
C46   C     C_R   0.840740 0.411203 0.471809 -0.198655
C47   C     C_R   0.233103 0.873511 0.446403 0.036658
C48   C     C_R   0.767292 0.341576 0.553075 0.034779
C49   C     C_R   0.266148 0.858913 0.558704 -0.136976
C50   C     C_R   0.734178 0.349694 0.440558 -0.136599
C51   C     C_R   0.243378 0.818101 0.652342 0.584540
C52   C     C_R   0.756921 0.381735 0.345824 0.584251
C53   C     C_R   0.191706 0.777547 0.634237 0.653797
C54   C     C_R   0.808669 0.419295 0.362494 0.649053
C55   C     C_R   0.255107 0.876841 0.350312 -0.036396
C56   C     C_R   0.745273 0.345518 0.649166 -0.036186
C57   C     C_R   0.307662 0.867747 0.361409 0.315083
C58   C     C_R   0.692710 0.353855 0.638030 0.314439
C59   C     C_R   0.340879 0.863355 0.470709 0.033563
C60   C     C_R   0.659461 0.352991 0.528811 0.032609
C61   C     C_R   0.320561 0.869104 0.570785 0.078483
C62   C     C_R   0.679741 0.341493 0.428849 0.078763
C63   C     C_R   0.394226 0.848258 0.481974 -0.021039
C64   C     C_R   0.606088 0.367465 0.517469 -0.022029
C65   C     C_R   0.427506 0.839432 0.589752 -0.145202
C66   C     C_R   0.572706 0.369333 0.409731 -0.146607
C67   C     C_R   0.355958 0.878889 0.678629 -0.056354
C68   C     C_R   0.644289 0.326547 0.321381 -0.055562
H7    H     H_    0.344523 0.907241 0.757213 0.205593
H8    H     H_    0.655626 0.292764 0.243417 0.204562
H9    H     H_    0.468177 0.822129 0.596301 0.181253
H10   H     H_    0.531971 0.384194 0.403073 0.182010
H11   H     H_    0.095317 0.663855 0.575047 0.247207
H12   H     H_    0.905418 0.527121 0.416925 0.245696
H13   H     H_    0.232059 0.867522 0.264088 0.213301
H14   H     H_    0.768235 0.359795 0.735094 0.215745
H15   H     H_    0.410751 0.839382 0.407816 0.206934
H16   H     H_    0.589590 0.380147 0.591496 0.206450
O11   O     O_R   0.955980 0.206520 0.854760 -0.520269
O12   O     O_R   0.044020 0.706520 0.145240 -0.544614
O13   O     O_R   0.063490 0.536770 0.945200 -0.534055
O14   O     O_R   0.936510 0.036770 0.054800 -0.529136
C69   C     C_R   0.082847 0.367247 0.937863 0.767094
C70   C     C_R   0.917169 0.869641 0.062387 0.770606
O15   O     O_R   0.957530 0.536190 0.842880 -0.540668
O16   O     O_R   0.042470 0.036190 0.157120 -0.517875
O17   O     O_R   0.937350 0.707210 0.042130 -0.539254
O18   O     O_R   0.062650 0.207210 0.957870 -0.533950
C71   C     C_R   0.942702 0.369945 0.802753 0.835834
C72   C     C_R   0.057457 0.865888 0.196791 0.839987
O19   O     O_3   0.993540 0.373870 0.065440 -0.373646
O20   O     O_3   0.006460 0.873870 0.934560 -0.375692
V3    V     V_3+5 0.001200 0.648440 0.987860 1.638985
V4    V     V_3+5 0.998800 0.148440 0.012140 1.686029
Cl1   Cl    Cl    0.579008 0.912215 0.680739 -0.676221
Cl2   Cl    Cl    0.420830 0.302316 0.321055 -0.676209
Cl3   Cl    Cl    0.329828 0.854751 0.233587 -0.650929
Cl4   Cl    Cl    0.670529 0.370485 0.765702 -0.647607
Cl5   Cl    Cl    0.017844 0.628525 0.372782 -0.468609
Cl6   Cl    Cl    0.982991 0.577732 0.615940 -0.462002
F1    F     F_    0.155873 0.010904 0.244201 -0.690865
F2    F     F_    0.844689 0.219729 0.759876 -0.692550
F3    F     F_    0.270192 0.799713 0.762132 -0.629875
F4    F     F_    0.730085 0.394102 0.235767 -0.629892
Cl7   Cl    Cl    0.779344 0.835400 0.668343 -0.607255
Cl8   Cl    Cl    0.220752 0.394651 0.332148 -0.611669
Cl9   Cl    Cl    0.670279 0.724064 0.122355 -0.589493
Cl10  Cl    Cl    0.330531 0.471030 0.875881 -0.589633
Cl11  Cl    Cl    0.924591 0.942023 0.315333 -0.485056
Cl12  Cl    Cl    0.075042 0.266586 0.688346 -0.488237
Cl13  Cl    Cl    0.818920 0.942421 0.390498 -0.566209
Cl14  Cl    Cl    0.180587 0.253256 0.612575 -0.566848
F5    F     F_    0.172626 0.726604 0.725616 -0.647255
F6    F     F_    0.827639 0.462997 0.269730 -0.645283

loop_
_geom_bond_atom_site_label_1
_geom_bond_atom_site_label_2
_ccdc_geom_bond_type
C50   C62   A    
C48   C50   A    
C9    C31   A    
C13   C15   A    
C56   H14   S    
O1    C3    A    
C55   H13   S    
C46   C54   A    
C11   Cl13  S    
C2    O7    A    
C36   C66   A    
C47   C55   A    
O18   V4    S    
C58   Cl4   S    
O5    C3    A    
C56   C58   A    
O15   V3    S    
C21   C23   A    
C58   C60   A    
O19   V3    S    
C63   H15   S    
C60   C62   A    
C48   C56   A    
C15   C19   A    
C40   Cl6   S    
O12   C72   A    
C70   O17   A    
C42   C44   A    
C37   H11   S    
C43   C45   A    
C52   F4    S    
O20   V3    S    
C44   C46   A    
C34   C42   A    
C19   C21   A    
C23   Cl7   S    
C8    C30   A    
C34   C71   S    
C38   C40   A    
C33   C72   S    
C47   C49   A    
C20   C28   A    
C62   C68   A    
C38   C46   A    
C33   C39   A    
C59   C63   A    
C6    H2    S    
C12   Cl14  S    
C67   H7    S    
O17   V3    S    
C30   Cl2   S    
O6    V2    S    
C24   C26   A    
C7    C29   A    
C55   C57   A    
C66   H10   S    
C63   C65   A    
C54   F6    S    
C59   C61   A    
C65   H9    S    
C32   C69   S    
C41   C43   A    
C64   H16   S    
C44   C48   A    
C68   H8    S    
C27   Cl9   S    
C1    C36   S    
C49   C61   A    
O4    C2    A    
O19   V4    S    
C36   C68   A    
O11   V4    S    
C16   C20   A    
O5    V1    S    
C4    C7    S    
C37   C45   A    
C49   C51   A    
O4    V2    S    
C5    C29   A    
C6    C30   A    
C60   C64   A    
C51   F3    S    
O6    C4    A    
O13   V3    S    
O14   C70   A    
O1    V2    S    
O2    V1    S    
C57   C59   A    
C34   C40   A    
C7    C27   A    
C50   C52   A    
O13   C69   A    
C45   C53   A    
O14   V4    S    
C64   C66   A    
C37   C39   A    
C57   Cl3   S    
C2    C35   S    
O16   C72   A    
C18   C26   A    
O3    V1    S    
O16   V4    S    
O2    C4    A    
C13   H3    S    
C69   O18   A    
C14   H4    S    
C41   F1    S    
O12   V3    S    
C3    C8    S    
C25   H5    S    
C18   C32   A    
C10   C12   A    
O3    C1    A    
C52   C54   A    
C11   C13   A    
C9    Cl11  S    
C12   C14   A    
C51   C53   A    
C35   C65   A    
O15   C71   A    
C19   C27   A    
C14   C16   A    
O7    V1    S    
C10   C32   A    
C1    O8    A    
C15   C17   A    
O8    V2    S    
C29   Cl1   S    
C16   C18   A    
C8    C28   A    
C26   H6    S    
C22   C24   A    
C5    H1    S    
C61   C67   A    
C17   C25   A    
C42   F2    S    
C20   C22   A    
C9    C11   A    
O20   V4    S    
C39   Cl5   S    
C31   C70   S    
C28   Cl10  S    
C53   F5    S    
O11   C71   A    
C43   C47   A    
C38   H12   S    
C33   C41   A    
C23   C25   A    
C17   C31   A    
O9    V2    S    
C10   Cl12  S    
O10   V1    S    
C35   C67   A    
C5    C21   A    
C6    C22   A    
C24   Cl8   S    
