data_mof_unit_46033.cif
_audit_creation_date              2012-12-10T17:49:32-0500
_audit_creation_method            fapswitch 2.2
_symmetry_space_group_name_H-M    P1
_symmetry_Int_Tables_number       1
_space_group_crystal_system       triclinic
_cell_length_a                    14.725083
_cell_length_b                    14.72138
_cell_length_c                    15.888698
_cell_angle_alpha                 76.274696
_cell_angle_beta                  102.369452
_cell_angle_gamma                 115.479012
_cell_volume                      2995.68517396

loop_
_atom_site_label
_atom_site_type_symbol
_atom_type_description
_atom_site_fract_x
_atom_site_fract_y
_atom_site_fract_z
_atom_type_partial_charge
C1    C     C_R   0.879934 0.311939 0.515752 0.786554
C2    C     C_3   0.011592 0.402987 0.072701 -0.019949
C3    C     C_3   0.996117 0.499361 0.082744 0.063638
C4    C     C_3   0.083647 0.597271 0.043712 -0.448578
C5    C     C_3   0.090793 0.591243 0.949114 -0.259991
C6    C     C_1   0.999746 0.499848 0.175731 -0.004288
C7    C     C_1   0.997337 0.499193 0.823951 -0.026418
C8    C     C_1   0.998346 0.499685 0.748646 -0.138272
C9    C     C_R   0.811606 0.203392 0.532542 -0.047987
C10   C     C_R   0.188110 0.795384 0.490455 -0.073292
C11   C     C_R   0.783552 0.025682 0.579568 -0.141599
C12   C     C_R   0.999538 0.499947 0.659411 0.816935
C13   C     C_R   0.849457 0.127349 0.559795 -0.213118
C14   C     C_R   0.707180 0.176425 0.525131 -0.213596
C15   C     C_R   0.639349 0.074846 0.548165 0.034788
C16   C     C_R   0.678392 0.998091 0.574097 0.132874
C17   C     C_R   0.533608 0.047850 0.542983 0.020260
C18   C     C_R   0.466477 0.943315 0.551357 0.039133
C19   C     C_R   0.507188 0.868308 0.587527 0.081452
C20   C     C_R   0.612715 0.895688 0.596441 0.088952
C21   C     C_R   0.492733 0.121924 0.531709 -0.181616
C22   C     C_R   0.388695 0.094867 0.520172 -0.208285
C23   C     C_R   0.119990 0.687947 0.487167 0.835268
C24   C     C_R   0.322084 0.994436 0.514159 0.144098
C25   C     C_R   0.360616 0.918440 0.526418 0.110997
C26   C     C_R   0.217324 0.969282 0.494376 -0.175740
C27   C     C_R   0.150464 0.869733 0.484284 -0.173337
C28   C     C_R   0.292803 0.821712 0.507459 -0.162913
C29   C     C_R   0.722943 0.676800 0.360682 -0.113528
C30   C     C_R   0.799924 0.641075 0.379661 0.048409
C31   C     C_R   0.714343 0.508707 0.488726 0.033637
C32   C     C_R   0.633648 0.540874 0.474622 -0.054439
C33   C     C_R   0.642431 0.631787 0.413238 0.041362
C34   C     C_R   0.000523 0.500173 0.340589 0.847573
C35   C     C_R   0.546369 0.487621 0.520687 0.097190
C36   C     C_R   0.469074 0.525550 0.503297 0.030765
C37   C     C_R   0.491139 0.624888 0.457101 -0.209247
C38   C     C_R   0.574957 0.677819 0.412206 0.171931
C39   C     C_R   0.533871 0.399286 0.584596 -0.214068
C40   C     C_R   0.449516 0.352038 0.630031 -0.184341
C41   C     C_R   0.370511 0.385481 0.608491 0.158288
C42   C     C_R   0.375870 0.467917 0.540199 -0.060315
C43   C     C_R   0.285015 0.335977 0.652983 -0.307752
C44   C     C_R   0.204295 0.366579 0.627771 0.063629
C45   C     C_3   0.006927 0.400290 0.974004 0.000601
C46   C     C_R   0.285969 0.486412 0.509394 0.101495
C47   C     C_3   0.897164 0.507158 0.929116 -0.048422
C48   C     C_3   0.889777 0.496242 0.029754 -0.131677
C49   C     C_1   0.001057 0.499965 0.251353 -0.096102
C50   C     C_3   0.995920 0.498442 0.916221 0.126215
Cu1   Cu    Cu3+1 0.081750 0.475690 0.522550 0.979201
Cu2   Cu    Cu3+1 0.918250 0.524310 0.477450 0.970022
H1    H     H_    0.950042 0.333472 0.101217 0.207827
H2    H     H_    0.079674 0.400668 0.963448 0.145103
H3    H     H_    0.072299 0.666565 0.045074 0.245476
H4    H     H_    0.320799 0.766603 0.502902 0.203621
H5    H     H_    0.069717 0.851148 0.471458 0.168243
H6    H     H_    0.360420 0.153678 0.512464 0.156276
H7    H     H_    0.815758 0.969001 0.599874 0.175736
H8    H     H_    0.930035 0.146324 0.566098 0.159623
H9    H     H_    0.680002 0.236040 0.499425 0.154509
H10   H     H_    0.539475 0.201296 0.534750 0.138406
H11   H     H_    0.187191 0.026599 0.486848 0.145282
H12   H     H_    0.139228 0.329406 0.663290 0.134333
H13   H     H_    0.444748 0.286830 0.680750 0.148503
H14   H     H_    0.863963 0.676821 0.342779 0.161747
H15   H     H_    0.716531 0.444636 0.537294 0.122606
H16   H     H_    0.906861 0.585953 0.897692 0.213708
H17   H     H_    0.445968 0.665558 0.459225 0.169099
H18   H     H_    0.589267 0.366241 0.602981 0.127754
H19   H     H_    0.280726 0.274180 0.707127 0.148270
H20   H     H_    0.159234 0.575571 0.952295 0.148468
H21   H     H_    0.157553 0.607530 0.084890 0.176098
N1    N     N_R   0.795410 0.560790 0.443550 -0.193014
N2    N     N_R   0.204590 0.439170 0.556520 -0.213626
O1    O     O_R   0.977910 0.338120 0.529720 -0.592521
O2    O     O_R   0.839850 0.379180 0.491640 -0.588847
O3    O     O_R   0.069060 0.479460 0.639610 -0.584142
O4    O     O_R   0.931000 0.520530 0.601530 -0.574224
O5    O     O_R   0.160150 0.620820 0.508360 -0.546594
O6    O     O_R   0.022090 0.661880 0.470280 -0.594427
O7    O     O_R   0.069000 0.479470 0.398470 -0.566736
O8    O     O_R   0.930940 0.520540 0.360390 -0.557880
N3    N     N_3   0.106602 0.397454 0.121443 -0.596557
H22   H     H_    0.169812 0.459503 0.098496 0.233088
H23   H     H_    0.109223 0.396729 0.187832 0.246188
N4    N     N_3   0.653854 0.819507 0.628537 -0.605918
H24   H     H_    0.622228 0.764807 0.587284 0.235987
H25   H     H_    0.634745 0.784238 0.691282 0.233864
N5    N     N_3   0.925981 0.305623 0.949065 -0.546418
H26   H     H_    0.939125 0.244003 0.989520 0.241831
H27   H     H_    0.931857 0.300907 0.885956 0.211663
N6    N     N_3   0.443183 0.767631 0.625402 -0.594170
H28   H     H_    0.466498 0.756572 0.692579 0.240754
H29   H     H_    0.450551 0.713680 0.597973 0.213749
N7    N     N_3   0.595562 0.782917 0.376751 -0.588564
H30   H     H_    0.575390 0.791424 0.309248 0.267584
H31   H     H_    0.672095 0.828198 0.393217 0.228781
C51   C     C_2   0.271490 0.534969 0.417529 0.872411
O9    O     O_2   0.265798 0.617891 0.399821 -0.611996
O10   O     O_R   0.268924 0.486685 0.350657 -0.759029
H32   H     H_    0.259923 0.526963 0.290457 0.327971
C52   C     C_2   0.725174 0.752866 0.280630 0.819070
O11   O     O_2   0.801672 0.830924 0.269547 -0.590400
O12   O     O_R   0.641750 0.732318 0.215554 -0.744593
H33   H     H_    0.652789 0.789099 0.163214 0.341021
N8    N     N_3   0.804562 0.444182 0.878273 -0.571907
H34   H     H_    0.794795 0.368390 0.887771 0.303290
H35   H     H_    0.740979 0.447490 0.894414 0.261492
C53   C     C_2   0.803015 0.397944 0.065588 0.814481
O13   O     O_2   0.759167 0.399030 0.122519 -0.563948
O14   O     O_R   0.775903 0.305534 0.037511 -0.767450
H36   H     H_    0.718942 0.247131 0.067621 0.344880
C54   C     C_2   0.865363 0.585058 0.038807 0.872068
O15   O     O_2   0.916384 0.642560 0.091302 -0.576233
O16   O     O_R   0.780320 0.597828 0.987607 -0.752856
H37   H     H_    0.770406 0.657596 0.999170 0.351698
C55   C     C_2   0.109994 0.693129 0.888960 0.867286
O17   O     O_2   0.180134 0.729472 0.845035 -0.583254
O18   O     O_R   0.049729 0.746492 0.884500 -0.771600
H38   H     H_    0.071006 0.813199 0.842127 0.340664

loop_
_geom_bond_atom_site_label_1
_geom_bond_atom_site_label_2
_ccdc_geom_bond_type
C10   C27   A    
C48   C53   S    
N4    H24   S    
C20   N4    S    
O10   H32   S    
C37   H17   S    
Cu2   O8    S    
C1    O2    A    
C41   C42   A    
C36   C42   A    
C19   C20   A    
C9    C14   A    
C3    C6    S    
C54   O15   D    
C28   H4    S    
C7    C8    T    
C13   H8    S    
C44   H12   S    
C25   C28   A    
C31   H15   S    
C26   C27   A    
N6    H28   S    
C36   C37   A    
C24   C26   A    
C5    H20   S    
Cu2   N1    S    
C30   N1    A    
C15   C16   A    
C12   O4    A    
C29   C33   A    
C3    C48   S    
O16   H37   S    
C29   C52   S    
C18   C19   A    
C42   C46   A    
C9    C13   A    
C53   O13   D    
C46   N2    A    
C55   O17   D    
C2    N3    S    
N3    H22   S    
C31   C32   A    
N7    H31   S    
C47   C48   S    
N8    H34   S    
C23   O5    A    
Cu2   O4    S    
C19   N6    S    
C8    C12   S    
N6    H29   S    
C21   C22   A    
C41   C43   A    
C18   C25   A    
C11   H7    S    
O14   H36   S    
C47   C50   S    
C53   O14   S    
C2    C45   S    
Cu1   Cu2   S    
C32   C35   A    
C1    C9    S    
C24   C25   A    
C27   H5    S    
C39   C40   A    
C31   N1    A    
C14   H9    S    
C17   C21   A    
C12   O3    A    
C35   C36   A    
C44   N2    A    
C35   C39   A    
C26   H11   S    
C37   C38   A    
C11   C16   A    
N5    H27   S    
C51   O9    D    
C16   C20   A    
N7    H30   S    
C17   C18   A    
C4    H21   S    
C52   O12   S    
Cu1   O1    S    
C45   N5    S    
Cu1   O7    S    
C21   H10   S    
C30   H14   S    
C40   C41   A    
C51   O10   S    
C45   H2    S    
C47   N8    S    
C40   H13   S    
N4    H25   S    
C4    H3    S    
C22   C24   A    
C5    C50   S    
C34   O8    A    
Cu2   O2    S    
C47   H16   S    
O18   H38   S    
C48   C54   S    
C10   C28   A    
C15   C17   A    
C34   C49   S    
C43   H19   S    
C23   O6    A    
C1    O1    A    
C7    C50   S    
Cu1   N2    S    
C4    C5    S    
C2    H1    S    
C22   H6    S    
C54   O16   S    
C10   C23   S    
O12   H33   S    
C33   C38   A    
C5    C55   S    
C32   C33   A    
C46   C51   S    
C2    C3    S    
Cu1   O3    S    
C11   C13   A    
N5    H26   S    
N8    H35   S    
C45   C50   S    
C43   C44   A    
Cu1   O5    S    
C39   H18   S    
C6    C49   T    
Cu2   O6    S    
C55   O18   S    
C29   C30   A    
C38   N7    S    
C52   O11   D    
C14   C15   A    
N3    H23   S    
C34   O7    A    
C3    C4    S    
