data_mof_unit_11270.cif
_audit_creation_date              2012-12-10T17:52:26-0500
_audit_creation_method            fapswitch 2.2
_symmetry_space_group_name_H-M    P1
_symmetry_Int_Tables_number       1
_space_group_crystal_system       triclinic
_cell_length_a                    19.0269
_cell_length_b                    10.67374
_cell_length_c                    9.905712
_cell_angle_alpha                 88.942283
_cell_angle_beta                  89.425172
_cell_angle_gamma                 92.383726
_cell_volume                      2009.53232958

loop_
_atom_site_label
_atom_site_type_symbol
_atom_type_description
_atom_site_fract_x
_atom_site_fract_y
_atom_site_fract_z
_atom_type_partial_charge
C1    C     C_R   0.501862 0.259131 0.502197 0.859804
C2    C     C_R   0.855456 0.588456 0.487022 -0.022112
C3    C     C_R   0.504160 0.100874 0.761225 -0.311081
C4    C     C_R   0.365247 0.504280 0.500660 0.900695
C5    C     C_R   0.482075 0.033708 0.878967 0.533829
C6    C     C_R   0.440701 0.922318 0.866321 -0.075228
C7    C     C_R   0.434696 0.868884 0.738639 -0.274927
C8    C     C_R   0.465360 0.929557 0.623220 0.069043
C9    C     C_R   0.489288 0.054283 0.631136 0.057346
C10   C     C_R   0.498306 0.124040 0.507538 -0.107421
C11   C     C_R   0.492860 0.064068 0.383396 -0.205180
C12   C     C_R   0.290202 0.529815 0.500181 -0.206976
C13   C     C_R   0.484614 0.936496 0.379845 -0.172023
C14   C     C_R   0.475440 0.868378 0.500037 -0.116966
C15   C     C_R   0.404378 0.340197 0.144133 -0.169341
C16   C     C_R   0.490348 0.737576 0.499541 0.850005
C17   C     C_R   0.358649 0.258632 0.076566 -0.257299
C18   C     C_R   0.358026 0.258088 0.934816 0.542218
C19   C     C_R   0.405066 0.339713 0.864487 -0.157086
C20   C     C_R   0.451706 0.423749 0.930122 0.003355
C21   C     C_R   0.451625 0.423813 0.074351 0.057633
C22   C     C_R   0.549861 0.566767 0.069867 0.456210
C23   C     C_R   0.932066 0.612699 0.487301 0.299376
C24   C     C_R   0.550371 0.565649 0.925477 0.470519
C25   C     C_R   0.634855 0.503331 0.499082 0.887705
C26   C     C_R   0.256087 0.574673 0.615792 0.530744
C27   C     C_R   0.186776 0.611769 0.605228 -0.342183
C28   C     C_R   0.150027 0.599410 0.484160 -0.094668
C29   C     C_R   0.184595 0.556841 0.368240 0.563581
C30   C     C_R   0.253809 0.520092 0.378174 -0.369030
C31   C     C_3   0.261312 0.516685 0.838678 -0.252929
C32   C     C_3   0.571804 0.096363 0.019553 -0.385565
C33   C     C_2   0.407981 0.855772 0.985550 0.903741
C34   C     C_R   0.074260 0.618789 0.485645 0.335881
C35   C     C_3   0.599355 0.749505 0.152471 -0.228330
C36   C     C_3   0.254995 0.130710 0.925242 -0.310870
C37   C     C_3   0.606977 0.740558 0.828309 -0.212201
C38   C     C_3   0.171271 0.638407 0.157496 -0.295669
C39   C     C_3   0.858225 0.476744 0.177404 -0.278615
C40   C     C_R   0.819758 0.570624 0.611344 -0.242505
C41   C     C_R   0.748472 0.537961 0.615581 -0.188171
C42   C     C_R   0.711161 0.524010 0.495588 -0.129154
C43   C     C_R   0.746180 0.541654 0.371167 -0.281071
C44   C     C_R   0.818230 0.571609 0.365431 0.541108
H1    H     H_    0.535654 0.185650 0.774734 0.187163
H2    H     H_    0.722495 0.525750 0.712948 0.212185
H3    H     H_    0.717688 0.534276 0.277434 0.217737
H4    H     H_    0.496960 0.115176 0.288202 0.218508
H5    H     H_    0.253319 0.417558 0.807068 0.165127
H6    H     H_    0.210778 0.553870 0.873362 0.144953
H7    H     H_    0.296937 0.517409 0.926553 0.198494
H8    H     H_    0.589008 0.191469 0.981797 0.182715
H9    H     H_    0.601963 0.023201 0.968175 0.137499
H10   H     H_    0.585314 0.090785 0.127934 0.189170
H11   H     H_    0.368470 0.692714 0.067247 0.329052
H12   H     H_    0.405867 0.779923 0.729000 0.245649
H13   H     H_    0.548617 0.785830 0.116162 0.120031
H14   H     H_    0.643281 0.801437 0.099315 0.154952
H15   H     H_    0.605294 0.772058 0.260576 0.189096
H16   H     H_    0.226647 0.208194 0.972501 0.149436
H17   H     H_    0.266565 0.056090 0.000497 0.195991
H18   H     H_    0.219301 0.087738 0.849589 0.199700
H19   H     H_    0.611463 0.757559 0.717845 0.190522
H20   H     H_    0.558949 0.784782 0.866452 0.115201
H21   H     H_    0.653794 0.788953 0.872134 0.151076
H22   H     H_    0.227182 0.630112 0.126324 0.154262
H23   H     H_    0.487767 0.891348 0.283454 0.201642
H24   H     H_    0.163343 0.732295 0.201161 0.168598
H25   H     H_    0.138727 0.631544 0.065465 0.194396
H26   H     H_    0.886333 0.409517 0.242733 0.159113
H27   H     H_    0.890265 0.493151 0.084093 0.204159
H28   H     H_    0.806359 0.435095 0.147064 0.154946
H29   H     H_    0.402930 0.331177 0.251256 0.219099
H30   H     H_    0.325474 0.194105 0.136722 0.164767
H31   H     H_    0.404910 0.332024 0.757555 0.217679
H32   H     H_    0.161329 0.650291 0.692507 0.180605
H33   H     H_    0.279094 0.484215 0.289176 0.187853
H34   H     H_    0.846906 0.581359 0.706259 0.180799
N1    N     N_R   0.038619 0.635139 0.369432 -0.113992
N2    N     N_R   0.968820 0.632274 0.370347 -0.101914
N3    N     N_R   0.967904 0.602292 0.604251 -0.189272
N4    N     N_R   0.037649 0.605253 0.603442 -0.185949
N5    N     N_R   0.499340 0.498800 0.142780 -0.169750
N6    N     N_R   0.499320 0.498720 0.857170 -0.158482
O1    O     O_R   0.500000 0.316780 0.614690 -0.652109
O2    O     O_3   0.498192 0.077710 0.006473 -0.585287
O3    O     O_2   0.395802 0.912765 0.088549 -0.613027
O4    O     O_R   0.389879 0.727664 0.979538 -0.828025
O5    O     O_3   0.606831 0.619427 0.136892 -0.581847
O6    O     O_3   0.317240 0.174759 0.858347 -0.615786
O7    O     O_3   0.609761 0.610615 0.855679 -0.589341
O8    O     O_3   0.149285 0.540677 0.248096 -0.599345
O9    O     O_3   0.850854 0.592698 0.241107 -0.596493
O10   O     O_R   0.499990 0.316750 0.385360 -0.636060
O11   O     O_R   0.398140 0.500000 0.614700 -0.582992
O12   O     O_R   0.398130 0.499970 0.385370 -0.650638
O13   O     O_R   0.500010 0.683250 0.614640 -0.615971
O14   O     O_R   0.500000 0.683220 0.385310 -0.614932
O15   O     O_R   0.601870 0.500030 0.614630 -0.573774
O16   O     O_R   0.601860 0.500000 0.385300 -0.570179
O17   O     O_3   0.292518 0.593046 0.734787 -0.580437
Zn1   Zn    Zn3+2 0.500000 0.500020 0.653130 0.982303
Zn2   Zn    Zn3+2 0.500000 0.499980 0.346870 0.964928

loop_
_geom_bond_atom_site_label_1
_geom_bond_atom_site_label_2
_ccdc_geom_bond_type
N6    Zn1   S    
C41   C42   A    
C19   C20   A    
N3    N4    A    
C7    C8    A    
C26   C27   A    
N5    Zn2   S    
C35   H14   S    
C31   O17   S    
C28   C29   A    
C33   O4    S    
C26   O17   S    
C39   H26   S    
C5    C6    A    
C16   O13   A    
O14   Zn2   S    
C38   O8    S    
C35   H15   S    
C18   C19   A    
H11   O4    S    
C39   O9    S    
C44   O9    S    
C4    O12   A    
C30   H33   S    
C25   O15   A    
C32   H8    S    
C38   H22   S    
C2    C44   A    
C8    C9    A    
C37   H21   S    
C41   H2    S    
C23   N2    A    
C4    C12   S    
C9    C10   A    
O13   Zn1   S    
O11   Zn1   S    
C38   H25   S    
C28   C34   S    
C13   C14   A    
C11   H4    S    
C7    H12   S    
C31   H5    S    
C36   H18   S    
C32   H10   S    
C37   H19   S    
C1    O1    A    
C37   O7    S    
C18   O6    S    
C21   N5    A    
C1    O10   A    
C36   H16   S    
C3    H1    S    
O16   Zn2   S    
C12   C26   A    
C43   C44   A    
C29   C30   A    
C3    C9    A    
C34   N1    A    
C4    O11   A    
C25   O16   A    
C39   H28   S    
C32   O2    S    
C17   C18   A    
C5    O2    S    
C35   O5    S    
C40   H34   S    
C40   C41   A    
C15   H29   S    
C38   H24   S    
O10   Zn2   S    
C20   N6    A    
C17   H30   S    
C14   C16   S    
C42   C43   A    
C31   H6    S    
C27   H32   S    
C24   O7    S    
C32   H9    S    
C2    C23   S    
C37   H20   S    
C13   H23   S    
C36   O6    S    
C15   C17   A    
C8    C14   A    
C23   N3    A    
C12   C30   A    
C1    C10   S    
C31   H7    S    
C3    C5    A    
C25   C42   S    
C6    C7    A    
C6    C33   S    
C35   H13   S    
C22   N5    A    
C19   H31   S    
C24   N6    A    
C11   C13   A    
C16   O14   A    
C22   O5    S    
C22   C24   A    
C33   O3    D    
C10   C11   A    
N1    N2    A    
C2    C40   A    
C15   C21   A    
O15   Zn1   S    
C20   C21   A    
O12   Zn2   S    
C27   C28   A    
C39   H27   S    
C34   N4    A    
C43   H3    S    
C29   O8    S    
O1    Zn1   S    
C36   H17   S    
