data_mof_unit_48651.cif
_audit_creation_date              2012-12-10T17:40:27-0500
_audit_creation_method            fapswitch 2.2
_symmetry_space_group_name_H-M    P1
_symmetry_Int_Tables_number       1
_space_group_crystal_system       triclinic
_cell_length_a                    13.727303
_cell_length_b                    15.115513
_cell_length_c                    15.80387
_cell_angle_alpha                 90.245118
_cell_angle_beta                  69.078051
_cell_angle_gamma                 89.463035
_cell_volume                      3062.78415743

loop_
_atom_site_label
_atom_site_type_symbol
_atom_type_description
_atom_site_fract_x
_atom_site_fract_y
_atom_site_fract_z
_atom_type_partial_charge
C1    C     C_R   0.499991 0.671049 0.499558 0.854051
C2    C     C_R   0.500013 0.328950 0.500433 0.853898
C3    C     C_R   0.376854 0.500120 0.098876 -0.165229
C4    C     C_R   0.623146 0.499877 0.901123 -0.165242
C5    C     C_R   0.303789 0.512937 0.058019 -0.138400
C6    C     C_R   0.696210 0.487060 0.941980 -0.138399
C7    C     C_R   0.438265 0.187336 0.578963 -0.076384
C8    C     C_R   0.561708 0.812657 0.420996 -0.076479
C9    C     C_R   0.499384 0.232404 0.500426 -0.174034
C10   C     C_R   0.500627 0.767596 0.499556 -0.174029
C11   C     C_R   0.559433 0.185829 0.421600 0.100385
C12   C     C_R   0.440626 0.814172 0.578397 0.100279
C13   C     C_R   0.549777 0.092977 0.417651 0.004084
C14   C     C_R   0.450268 0.907028 0.582333 0.004080
C15   C     C_R   0.498684 0.046863 0.499490 0.042335
C16   C     C_R   0.501344 0.953137 0.500486 0.042346
C17   C     C_R   0.443874 0.094210 0.580256 0.028102
C18   C     C_R   0.556135 0.905790 0.419714 0.028139
C19   C     C_R   0.591978 0.043944 0.335705 -0.034102
C20   C     C_R   0.408073 0.956070 0.664276 -0.034005
C21   C     C_R   0.601645 0.952407 0.338761 -0.201128
C22   C     C_R   0.398394 0.047604 0.661216 -0.201125
C23   C     C_R   0.435766 0.496333 0.673248 0.862718
C24   C     C_R   0.564235 0.503665 0.326752 0.862784
C25   C     C_R   0.220115 0.570273 0.464741 0.047388
C26   C     C_R   0.779885 0.429727 0.535259 0.047389
C27   C     C_R   0.192059 0.430401 0.536357 0.067113
C28   C     C_R   0.807941 0.569599 0.463642 0.067105
C29   C     C_R   0.088848 0.428698 0.537241 -0.023555
C30   C     C_R   0.911152 0.571302 0.462758 -0.023571
C31   C     C_R   0.051673 0.500086 0.500126 0.085352
C32   C     C_R   0.948327 0.499914 0.499873 0.085365
C33   C     C_R   0.117749 0.571708 0.463403 -0.014783
C34   C     C_R   0.882251 0.428292 0.536596 -0.014784
C35   C     C_R   0.022238 0.357457 0.574113 -0.152247
C36   C     C_R   0.977762 0.642543 0.425886 -0.152294
C37   C     C_R   0.919945 0.357217 0.573713 -0.168140
C38   C     C_R   0.080055 0.642783 0.426286 -0.168115
C39   C     C_R   0.394594 0.494033 0.774194 -0.195691
C40   C     C_R   0.605407 0.505965 0.225806 -0.195632
C41   C     C_R   0.260797 0.530467 0.921498 0.117799
C42   C     C_R   0.739204 0.469531 0.078501 0.117779
C43   C     C_R   0.289891 0.518349 0.827064 -0.092201
C44   C     C_R   0.710110 0.481651 0.172935 -0.092164
C45   C     C_R   0.464209 0.472390 0.818421 0.088814
C46   C     C_R   0.535791 0.527607 0.181579 0.088691
C47   C     C_R   0.439731 0.495868 0.910286 0.024060
C48   C     C_R   0.560268 0.504130 0.089714 0.024085
C49   C     C_R   0.334444 0.515447 0.963383 0.052921
C50   C     C_R   0.665556 0.484551 0.036617 0.052917
C51   C     C_R   0.515959 0.497612 0.952143 0.099560
C52   C     C_R   0.484040 0.502385 0.047856 0.099574
Cu1   Cu    Cu3+1 0.402580 0.500010 0.499990 1.021347
Cu2   Cu    Cu3+1 0.597420 0.499990 0.500010 1.021412
H1    H     H_    0.222814 0.516352 0.101780 0.182541
H2    H     H_    0.777185 0.483646 0.898219 0.182545
H3    H     H_    0.270930 0.625441 0.437502 0.164920
H4    H     H_    0.729070 0.374559 0.562498 0.164931
H5    H     H_    0.220861 0.375965 0.564974 0.197876
H6    H     H_    0.779139 0.624036 0.435024 0.197836
H7    H     H_    0.049280 0.301863 0.603149 0.173234
H8    H     H_    0.950720 0.698137 0.396850 0.173148
H9    H     H_    0.870310 0.301483 0.602510 0.168026
H10   H     H_    0.129690 0.698517 0.397489 0.168019
H11   H     H_    0.348301 0.489340 0.171129 0.177197
H12   H     H_    0.651699 0.510658 0.828870 0.177188
H13   H     H_    0.638901 0.917541 0.275378 0.214515
H14   H     H_    0.361172 0.082487 0.724598 0.214369
N1    N     N_R   0.256170 0.500070 0.500040 -0.196478
N2    N     N_R   0.743830 0.499930 0.499960 -0.196467
O1    O     O_R   0.417730 0.629750 0.499970 -0.576796
O2    O     O_R   0.582270 0.370250 0.500030 -0.576747
O3    O     O_R   0.582270 0.629730 0.499980 -0.571106
O4    O     O_R   0.417730 0.370270 0.500020 -0.571234
O5    O     O_R   0.371590 0.500020 0.629830 -0.554151
O6    O     O_R   0.628410 0.499980 0.370170 -0.554055
O7    O     O_R   0.536130 0.499990 0.629840 -0.560734
O8    O     O_R   0.463870 0.500010 0.370160 -0.560758
I1    I     I_    0.423524 0.632325 0.240048 -0.336459
I2    I     I_    0.576478 0.367672 0.759952 -0.336342
C53   C     C_2   0.793089 0.480180 0.212548 0.945750
O9    O     O_2   0.813115 0.548000 0.245229 -0.556015
O10   O     O_R   0.850510 0.402813 0.210108 -0.701885
H15   H     H_    0.905102 0.410931 0.238885 0.341440
C54   C     C_2   0.206916 0.519835 0.787448 0.945734
O11   O     O_2   0.186878 0.452021 0.754766 -0.556154
O12   O     O_R   0.149515 0.597212 0.789882 -0.701868
H16   H     H_    0.094931 0.589109 0.761096 0.341444
I3    I     I_    0.107502 0.579285 0.000256 -0.210517
I4    I     I_    0.892500 0.420716 0.999741 -0.210488
C55   C     C_2   0.372268 0.238134 0.660344 0.830260
O13   O     O_2   0.295221 0.278288 0.659014 -0.567874
O14   O     O_R   0.397345 0.238800 0.738547 -0.733742
H17   H     H_    0.346020 0.275231 0.789309 0.358208
C56   C     C_2   0.627603 0.761838 0.339577 0.830124
O15   O     O_2   0.704487 0.721431 0.340921 -0.567825
O16   O     O_R   0.602590 0.761399 0.261339 -0.733700
H18   H     H_    0.653834 0.724927 0.210560 0.358226
I5    I     I_    0.679628 0.256428 0.319020 -0.234895
I6    I     I_    0.320516 0.743548 0.681033 -0.234884
C57   C     C_2   0.610151 0.082154 0.245186 0.909438
O17   O     O_2   0.547958 0.135896 0.235269 -0.556850
O18   O     O_R   0.695632 0.053565 0.170413 -0.724995
H19   H     H_    0.698823 0.083639 0.112273 0.359158
C58   C     C_2   0.389899 0.917874 0.754796 0.909385
O19   O     O_2   0.452143 0.864201 0.764741 -0.556840
O20   O     O_R   0.304344 0.946392 0.829539 -0.724947
H20   H     H_    0.301150 0.916328 0.887685 0.359152

loop_
_geom_bond_atom_site_label_1
_geom_bond_atom_site_label_2
_ccdc_geom_bond_type
C41   I3    S    
O12   H16   S    
O14   H17   S    
C27   C29   A    
C18   C21   A    
C11   C13   A    
Cu1   O4    S    
Cu1   N1    S    
C53   O9    D    
C47   C49   A    
C3    H11   S    
C54   O11   D    
C40   C46   A    
C58   O20   S    
C1    O1    A    
C25   H3    S    
C35   C37   A    
C46   I1    S    
C2    O2    A    
C15   C16   A    
C34   C37   A    
C11   I5    S    
C37   H9    S    
C26   C34   A    
O10   H15   S    
C7    C17   A    
O20   H20   S    
C31   C33   A    
C27   N1    A    
C39   C45   A    
Cu2   O7    S    
C48   C50   A    
C57   O18   S    
C21   H13   S    
C41   C43   A    
C5    C49   A    
Cu1   O5    S    
C8    C56   S    
C42   C44   A    
C36   H8    S    
C41   C49   A    
C53   O10   S    
O16   H18   S    
C38   H10   S    
C45   C47   A    
C46   C48   A    
C13   C19   A    
C54   O12   S    
C51   C52   A    
C43   C54   S    
C57   O17   D    
C14   C20   A    
C4    C6    A    
C44   C53   S    
C6    H2    S    
C55   O13   D    
C24   O6    A    
C39   C43   A    
C4    C51   A    
Cu1   Cu2   S    
C8    C18   A    
C42   I4    S    
C32   C34   A    
C55   O14   S    
Cu2   O3    S    
C26   H4    S    
C31   C32   A    
Cu2   N2    S    
C40   C44   A    
C7    C55   S    
C35   H7    S    
C16   C18   A    
C23   O7    A    
C9    C11   A    
C22   H14   S    
C28   H6    S    
C10   C12   A    
C42   C50   A    
Cu2   O6    S    
C24   O8    A    
C20   C22   A    
C13   C15   A    
C26   N2    A    
C14   C16   A    
C25   N1    A    
Cu1   O1    S    
O18   H19   S    
C23   O5    A    
C20   C58   S    
C15   C17   A    
C6    C50   A    
C19   C21   A    
C5    H1    S    
C28   N2    A    
C1    C10   S    
C33   C38   A    
C12   C14   A    
C3    C5    A    
C2    O4    A    
C47   C51   A    
C3    C52   A    
C56   O16   S    
C58   O19   D    
C29   C35   A    
C17   C22   A    
C30   C36   A    
C1    O3    A    
C36   C38   A    
Cu1   O8    S    
C29   C31   A    
C27   H5    S    
C30   C32   A    
C19   C57   S    
C23   C39   S    
C28   C30   A    
C24   C40   S    
C45   I2    S    
C12   I6    S    
C7    C9    A    
C48   C52   A    
Cu2   O2    S    
C4    H12   S    
C8    C10   A    
C56   O15   D    
C2    C9    S    
C25   C33   A    
