data_mof_unit_31771.cif
_audit_creation_date              2012-12-11T15:21:33-0500
_audit_creation_method            fapswitch 2.2
_symmetry_space_group_name_H-M    P1
_symmetry_Int_Tables_number       1
_space_group_crystal_system       triclinic
_cell_length_a                    19.100703
_cell_length_b                    7.142529
_cell_length_c                    17.746186
_cell_angle_alpha                 90.002511
_cell_angle_beta                  108.898712
_cell_angle_gamma                 89.998877
_cell_volume                      2290.55147927

loop_
_atom_site_label
_atom_site_type_symbol
_atom_type_description
_atom_site_fract_x
_atom_site_fract_y
_atom_site_fract_z
_atom_type_partial_charge
O1    O     O_R   0.562310 0.505770 0.439670 -0.541477
O2    O     O_R   0.437690 0.005770 0.560330 -0.541474
O3    O     O_R   0.411650 0.169150 0.405330 -0.532082
O4    O     O_R   0.588350 0.669150 0.594670 -0.532160
C1    C     C_R   0.385291 0.345905 0.382090 0.663608
C2    C     C_R   0.614708 0.845909 0.617910 0.663654
O5    O     O_R   0.560140 0.175610 0.430010 -0.533693
O6    O     O_R   0.439860 0.675610 0.569990 -0.533689
O7    O     O_R   0.587240 0.012100 0.585200 -0.523264
O8    O     O_R   0.412760 0.512100 0.414800 -0.523209
C3    C     C_R   0.580330 0.344681 0.414048 0.729733
C4    C     C_R   0.419669 0.844686 0.585950 0.729888
O9    O     O_3   0.508720 0.341420 0.550890 -0.363555
O10   O     O_3   0.491280 0.841420 0.449110 -0.363467
V1    V     V_3+5 0.498380 0.063930 0.490560 1.495115
V2    V     V_3+5 0.501620 0.563930 0.509440 1.495041
C5    C     C_R   0.178429 0.065868 0.864524 -0.212549
C6    C     C_R   0.821570 0.565877 0.135483 -0.212675
C7    C     C_R   0.130803 0.916102 0.865699 -0.092892
C8    C     C_R   0.869201 0.416115 0.134305 -0.092883
C9    C     C_R   0.132172 0.753818 0.821106 -0.201722
C10   C     C_R   0.867835 0.253835 0.178896 -0.201649
C11   C     C_R   0.179719 0.741022 0.775310 0.094832
C12   C     C_R   0.820285 0.241033 0.224688 0.094833
C13   C     C_R   0.227714 0.891021 0.775025 0.060559
C14   C     C_R   0.772286 0.391026 0.224975 0.060587
C15   C     C_R   0.227341 0.053563 0.820147 0.088501
C16   C     C_R   0.772658 0.553568 0.179859 0.088571
C17   C     C_R   0.180085 0.580765 0.729669 -0.188099
C18   C     C_R   0.819918 0.080772 0.270321 -0.188134
C19   C     C_R   0.228162 0.568114 0.684812 -0.166847
C20   C     C_R   0.771836 0.068112 0.315171 -0.166793
C21   C     C_R   0.276778 0.715402 0.684790 0.089123
C22   C     C_R   0.723217 0.215396 0.315196 0.089129
C23   C     C_R   0.276168 0.878374 0.729529 0.056890
C24   C     C_R   0.723829 0.378372 0.270467 0.056887
C25   C     C_R   0.323806 0.028818 0.728707 0.090537
C26   C     C_R   0.676189 0.528813 0.271292 0.090555
C27   C     C_R   0.323800 0.188551 0.774807 -0.178360
C28   C     C_R   0.676194 0.688547 0.225198 -0.178391
C29   C     C_R   0.276181 0.200543 0.820295 -0.164549
C30   C     C_R   0.723815 0.700543 0.179714 -0.164610
C31   C     C_R   0.325476 0.703087 0.640290 -0.179544
C32   C     C_R   0.674515 0.203072 0.359691 -0.179516
C33   C     C_R   0.371510 0.854696 0.636967 -0.069077
C34   C     C_R   0.628484 0.354683 0.363025 -0.069089
C35   C     C_R   0.370358 0.017123 0.681642 -0.192600
C36   C     C_R   0.629636 0.517113 0.318357 -0.192649
H1    H     H_    0.178442 0.190641 0.899336 0.139000
H2    H     H_    0.821554 0.690646 0.100671 0.138902
H3    H     H_    0.095626 0.637844 0.821377 0.129174
H4    H     H_    0.904385 0.137867 0.178625 0.129146
H5    H     H_    0.143410 0.464539 0.728968 0.136729
H6    H     H_    0.856596 0.964550 0.271020 0.136733
H7    H     H_    0.227384 0.442721 0.650174 0.147506
H8    H     H_    0.772613 0.942716 0.349804 0.147568
H9    H     H_    0.326250 0.576749 0.606765 0.151392
H10   H     H_    0.673736 0.076725 0.393204 0.151444
H11   H     H_    0.406228 0.133931 0.680403 0.130583
H12   H     H_    0.593766 0.633921 0.319600 0.130548
H13   H     H_    0.360331 0.304968 0.775304 0.138673
H14   H     H_    0.639660 0.804960 0.224705 0.138677
H15   H     H_    0.277159 0.325679 0.855147 0.152910
H16   H     H_    0.722836 0.825680 0.144866 0.152884
C37   C     C_3   0.768076 0.728587 0.822629 -0.316994
C38   C     C_3   0.231827 0.228335 0.177470 -0.316732
H17   H     H_    0.804838 0.604969 0.827843 0.165226
H18   H     H_    0.195016 0.104857 0.172352 0.164872
H19   H     H_    0.754429 0.731508 0.878847 0.201545
H20   H     H_    0.245440 0.230904 0.121230 0.201724
C39   C     C_3   0.697953 0.696249 0.748671 -0.171586
C40   C     C_3   0.301960 0.196041 0.251416 -0.171730
H21   H     H_    0.709234 0.571763 0.716476 0.117929
H22   H     H_    0.290658 0.071731 0.283690 0.118051
H23   H     H_    0.862746 0.768496 0.737403 0.141333
H24   H     H_    0.137209 0.269052 0.262704 0.141302
H25   H     H_    0.758526 0.747680 0.629149 0.126231
H26   H     H_    0.241440 0.248293 0.370951 0.126215
C41   C     C_3   0.827773 0.894390 0.735194 -0.360195
C42   C     C_3   0.172233 0.394807 0.264834 -0.360281
C43   C     C_3   0.757709 0.083769 0.806421 -0.135173
C44   C     C_3   0.242359 0.583560 0.193488 -0.135034
C45   C     C_3   0.810344 0.911952 0.814462 -0.021965
C46   C     C_3   0.189649 0.411939 0.185548 -0.021959
H27   H     H_    0.785260 0.206170 0.788959 0.123830
H28   H     H_    0.214876 0.706146 0.210914 0.123855
C47   C     C_3   0.685466 0.866592 0.690155 -0.035767
C48   C     C_3   0.314533 0.366581 0.309846 -0.035803
C49   C     C_3   0.755437 0.877879 0.662383 0.018788
C50   C     C_3   0.244576 0.378319 0.337636 0.018860
C51   C     C_3   0.683423 0.050516 0.737957 -0.297757
C52   C     C_3   0.316650 0.550269 0.261941 -0.297955
H29   H     H_    0.635625 0.047073 0.760504 0.193439
H30   H     H_    0.364428 0.546499 0.239368 0.193261
H31   H     H_    0.673357 0.174662 0.698122 0.188751
H32   H     H_    0.326792 0.674536 0.301716 0.189061
H33   H     H_    0.861156 0.016906 0.728485 0.172185
H34   H     H_    0.138903 0.517492 0.271485 0.172200
O11   O     O_R   0.087220 0.271820 0.085230 -0.540939
O12   O     O_R   0.912780 0.771820 0.914770 -0.540922
O13   O     O_R   0.939860 0.595540 0.069990 -0.542691
O14   O     O_R   0.060140 0.095540 0.930010 -0.542694
C53   C     C_R   0.918915 0.426566 0.085092 0.725038
C54   C     C_R   0.081087 0.926561 0.914911 0.725073
O15   O     O_R   0.088340 0.601930 0.094680 -0.533050
O16   O     O_R   0.911660 0.101930 0.905320 -0.532985
O17   O     O_R   0.062310 0.765410 0.939660 -0.533311
O18   O     O_R   0.937690 0.265410 0.060340 -0.533290
C55   C     C_R   0.117090 0.431874 0.116172 0.667383
C56   C     C_R   0.882905 0.931876 0.883836 0.667389
O19   O     O_3   0.991270 0.429630 0.949130 -0.374126
O20   O     O_3   0.008730 0.929630 0.050870 -0.374188
V3    V     V_3+5 0.001620 0.707150 0.009440 1.440981
V4    V     V_3+5 0.998380 0.207150 0.990560 1.441067
C57   C     C_2   0.631205 0.644919 0.772943 0.785548
O21   O     O_2   0.608506 0.750635 0.814019 -0.537926
O22   O     O_R   0.596158 0.472920 0.748829 -0.666601
H35   H     H_    0.552375 0.453005 0.768374 0.292430
C58   C     C_2   0.368666 0.144386 0.227120 0.785678
O23   O     O_2   0.391326 0.249779 0.185903 -0.537896
O24   O     O_R   0.403714 0.972451 0.251370 -0.666638
H36   H     H_    0.447459 0.952291 0.231782 0.292360
C59   C     C_2   0.744737 0.138788 0.883339 0.769097
O25   O     O_2   0.711952 0.034061 0.914960 -0.537559
O26   O     O_R   0.769732 0.312806 0.917553 -0.677544
H37   H     H_    0.757262 0.335888 0.968121 0.293620
C60   C     C_2   0.255316 0.638224 0.116528 0.769025
O27   O     O_2   0.287944 0.533125 0.084870 -0.537628
O28   O     O_R   0.230485 0.812340 0.082313 -0.677469
H38   H     H_    0.242911 0.835124 0.031699 0.293742
I1    I     I_    0.752267 0.102151 0.579473 -0.494968
I2    I     I_    0.247848 0.602986 0.420415 -0.494947

loop_
_geom_bond_atom_site_label_1
_geom_bond_atom_site_label_2
_ccdc_geom_bond_type
C38   H18   S    
O12   C56   A    
C47   C51   S    
O13   V3    S    
O1    C3    A    
C42   C46   S    
O2    C4    A    
O11   V4    S    
C28   H14   S    
C59   O25   D    
C27   C29   A    
C8    C53   S    
H26   C50   S    
O5    C3    A    
C18   H6    S    
H25   C49   S    
C43   C59   S    
C11   C17   A    
O15   V3    S    
C23   C25   A    
C12   C14   A    
C37   C45   S    
C37   H17   S    
C57   O21   D    
O11   C55   A    
C52   H32   S    
C44   C52   S    
C6    C8    A    
C33   C35   A    
O18   V4    S    
O17   V3    S    
C40   C48   S    
C1    C48   S    
C38   C40   S    
C48   C52   S    
C32   H10   S    
C41   C45   S    
C19   C21   A    
C53   O18   A    
C25   C35   A    
C26   C36   A    
C50   I2    S    
C28   C30   A    
O6    V2    S    
O16   V4    S    
C2    O7    A    
O20   V3    S    
C43   C45   S    
C32   C34   A    
C36   H12   S    
C58   O24   S    
C27   H13   S    
C34   C36   A    
C35   H11   S    
C21   C31   A    
C6    C16   A    
C40   H22   S    
C5    H1    S    
C39   H21   S    
C5    C7    A    
O5    V1    S    
C57   O22   S    
C37   C39   S    
C38   C46   S    
C2    C47   S    
C5    C15   A    
O4    V2    S    
C60   O28   S    
O14   V4    S    
C18   C20   A    
C51   H29   S    
C7    C54   S    
C15   C29   A    
O6    C4    A    
C52   H30   S    
C45   C56   S    
C39   C57   S    
O1    V2    S    
O14   C54   A    
O2    V1    S    
C31   C33   A    
O24   H36   S    
C13   C23   A    
C39   C47   S    
C14   C24   A    
C48   C50   S    
C44   C46   S    
C9    C11   A    
O26   H37   S    
C10   C12   A    
O4    C2    A    
C29   H15   S    
C60   O27   D    
C30   H16   S    
C9    H3    S    
O3    V1    S    
C6    H2    S    
C10   H4    S    
O28   H38   S    
O16   C56   A    
C22   C32   A    
O15   C55   A    
C42   H34   S    
C41   H33   S    
O12   V3    S    
H24   C42   S    
C8    C10   A    
C4    C33   S    
O3    C1    A    
C58   O23   D    
C13   C15   A    
C14   C16   A    
C46   C55   S    
C49   I1    S    
O13   C53   A    
C24   C26   A    
O7    V1    S    
C1    O8    A    
C17   C19   A    
C44   H28   S    
O22   H35   S    
C26   C28   A    
C38   H20   S    
C17   H5    S    
C37   H19   S    
C40   C58   S    
C16   C30   A    
C21   C23   A    
O19   V4    S    
C22   C24   A    
C11   C13   A    
C42   C50   S    
C12   C18   A    
C44   C60   S    
C41   C49   S    
C59   O26   S    
C31   H9    S    
C51   H31   S    
C43   C51   S    
C25   C27   A    
O9    V2    S    
C47   C49   S    
O10   V1    S    
C3    C34   S    
O8    V2    S    
C19   H7    S    
H23   C41   S    
C20   H8    S    
C54   O17   A    
C43   H27   S    
C20   C22   A    
C7    C9    A    
