data_mof_unit_8596.cif
_audit_creation_date              2012-12-10T17:18:15-0500
_audit_creation_method            fapswitch 2.2
_symmetry_space_group_name_H-M    P1
_symmetry_Int_Tables_number       1
_space_group_crystal_system       triclinic
_cell_length_a                    10.163612
_cell_length_b                    10.709887
_cell_length_c                    14.942367
_cell_angle_alpha                 89.678837
_cell_angle_beta                  82.43342
_cell_angle_gamma                 95.52221
_cell_volume                      1604.57272904

loop_
_atom_site_label
_atom_site_type_symbol
_atom_type_description
_atom_site_fract_x
_atom_site_fract_y
_atom_site_fract_z
_atom_type_partial_charge
C1    C     C_R   0.556521 0.733324 0.490505 0.857728
C2    C     C_R   0.443657 0.266140 0.504852 0.848743
C3    C     C_R   0.573877 0.730598 0.952033 -0.161691
C4    C     C_R   0.474683 0.273021 0.044846 -0.169798
C5    C     C_2   0.589850 0.867531 0.477327 0.264429
C6    C     C_2   0.411592 0.131375 0.496986 0.300538
C7    C     C_2   0.495758 0.932855 0.449872 -0.171847
C8    C     C_2   0.506381 0.067939 0.451673 -0.113401
C9    C     C_2   0.929229 0.473529 0.517937 0.350243
C10   C     C_2   0.070126 0.527831 0.482530 0.345554
C11   C     C_R   0.503565 0.507237 0.672302 0.958204
C12   C     C_R   0.496943 0.495214 0.327628 0.920960
C13   C     C_R   0.458844 0.382920 0.187932 0.327610
C14   C     C_R   0.521499 0.625921 0.813535 0.291060
C15   C     C_R   0.493092 0.494069 0.232504 -0.139462
C16   C     C_R   0.509394 0.511894 0.767410 -0.161785
C17   C     C_R   0.535269 0.606322 0.186065 -0.189980
C18   C     C_R   0.505204 0.397029 0.811383 -0.169228
C19   C     C_R   0.543287 0.612708 0.092592 0.006644
C20   C     C_R   0.502424 0.390670 0.904405 -0.008883
C21   C     C_R   0.516603 0.500390 0.045787 0.005316
C22   C     C_R   0.521030 0.503941 0.951648 0.010953
C23   C     C_R   0.482910 0.384467 0.093226 -0.064281
C24   C     C_R   0.539406 0.621194 0.905270 -0.049925
C25   C     C_R   0.578762 0.727517 0.044635 0.326873
C26   C     C_R   0.481686 0.274499 0.951470 0.319850
N1    N     N_2   0.842700 0.448880 0.462930 -0.197742
N2    N     N_2   0.157300 0.551120 0.537070 -0.193976
O1    O     O_R   0.431060 0.692470 0.507460 -0.581622
O2    O     O_R   0.568940 0.307530 0.492540 -0.618851
O3    O     O_R   0.651120 0.659650 0.483670 -0.556030
O4    O     O_R   0.348880 0.340350 0.516330 -0.531820
O5    O     O_R   0.389960 0.516440 0.644050 -0.592619
O6    O     O_R   0.610040 0.483560 0.355950 -0.626973
O7    O     O_R   0.610030 0.483620 0.620260 -0.536149
O8    O     O_R   0.389970 0.516380 0.379740 -0.529727
Zn1   Zn    Zn3+2 0.353060 0.521920 0.515880 1.149566
Zn2   Zn    Zn3+2 0.646940 0.478080 0.484120 1.119689
S1    S     S_3+6 0.379625 0.245775 0.248964 0.052797
O9    O     O_2   0.484468 0.160610 0.262825 -0.253994
O10   O     O_2   0.307684 0.277107 0.338930 -0.271646
O11   O     O_3   0.266925 0.168986 0.190820 -0.489114
H1    H     H_    0.203975 0.231230 0.180952 0.377551
S2    S     S_3+6 0.501235 0.772307 0.761842 0.087755
O12   O     O_2   0.634743 0.847265 0.741427 -0.179901
O13   O     O_2   0.438820 0.758340 0.676882 -0.279991
O14   O     O_3   0.400405 0.851172 0.834033 -0.422458
H2    H     H_    0.316066 0.795600 0.845956 0.362899
H3    H     H_    0.558912 0.688540 0.224810 0.215146
H4    H     H_    0.499001 0.312973 0.771766 0.229375
S3    S     S_3+6 0.627358 0.869491 0.097983 0.082534
O15   O     O_2   0.742974 0.850246 0.148038 -0.233162
O16   O     O_2   0.668775 0.974904 0.030246 -0.221289
O17   O     O_3   0.499477 0.908715 0.172256 -0.476559
H5    H     H_    0.424298 0.912109 0.136636 0.391554
S4    S     S_3+6 0.455727 0.128906 0.897626 0.104587
O18   O     O_2   0.582318 0.103834 0.839438 -0.153919
O19   O     O_2   0.417468 0.024441 0.966469 -0.259750
O20   O     O_3   0.333410 0.133210 0.832306 -0.478420
H6    H     H_    0.255718 0.157443 0.873371 0.358701
H7    H     H_    0.599530 0.819475 0.916706 0.268611
H8    H     H_    0.464454 0.183258 0.079361 0.266899
H9    H     H_    0.600629 0.115976 0.420841 0.215073
H10   H     H_    0.402059 0.885869 0.434292 0.230279
S5    S     S_3+6 0.255260 0.057488 0.547352 0.103356
O21   O     O_2   0.172048 0.019626 0.474145 -0.213344
O22   O     O_2   0.275635 0.942649 0.600147 -0.235562
O23   O     O_3   0.175282 0.155983 0.617299 -0.480352
H11   H     H_    0.089801 0.107692 0.641459 0.406944
S6    S     S_3+6 0.745061 0.938831 0.503739 0.123609
O24   O     O_2   0.825340 0.995140 0.418952 -0.226731
O25   O     O_2   0.720505 0.040775 0.570882 -0.212541
O26   O     O_3   0.831162 0.832600 0.547905 -0.476166
H12   H     H_    0.915489 0.880166 0.559618 0.409980
S7    S     S_3+6 0.108203 0.593169 0.371518 0.063389
O27   O     O_2   0.226250 0.690144 0.366435 -0.249798
O28   O     O_2   0.137932 0.490850 0.305640 -0.291853
O29   O     O_3   0.977697 0.663917 0.344153 -0.537256
H13   H     H_    0.004457 0.693499 0.280859 0.407717
S8    S     S_3+6 0.887651 0.416237 0.631169 0.062757
O30   O     O_2   0.850122 0.522605 0.691464 -0.292420
O31   O     O_2   0.773339 0.315183 0.636852 -0.212483
O32   O     O_3   0.017120 0.353530 0.667264 -0.553503
H14   H     H_    0.985941 0.327975 0.730932 0.398074
H15   H     H_    0.123807 0.545717 0.604867 0.225502
H16   H     H_    0.876869 0.455847 0.395162 0.218949

loop_
_geom_bond_atom_site_label_1
_geom_bond_atom_site_label_2
_ccdc_geom_bond_type
O26   H12   S    
C7    C8    S    
S1    O10   D    
C18   H4    S    
C1    C5    S    
O8    Zn1   S    
C19   C21   A    
N1    Zn2   S    
C4    H8    S    
C1    O3    A    
S4    O18   D    
C13   C23   A    
C2    O4    A    
C11   C16   S    
C14   C24   A    
C6    S5    S    
O32   H14   S    
O23   H11   S    
S5    O22   D    
S6    O24   D    
C12   O8    A    
C9    C10   S    
C18   C20   A    
S2    O14   S    
O20   H6    S    
C21   C22   A    
C3    C24   A    
C2    C6    S    
S8    O32   S    
S2    O13   D    
S1    O11   S    
C3    H7    S    
S3    O15   D    
C11   O5    A    
O7    Zn2   S    
S8    O31   D    
C17   H3    S    
S1    O9    D    
C5    C7    D    
C4    C23   A    
O29   H13   S    
C6    C8    D    
O5    Zn1   S    
S3    O16   D    
C9    S8    S    
N1    H16   S    
S7    O27   D    
C25   S3    S    
C5    S6    S    
C10   S7    S    
O14   H2    S    
C12   C15   S    
C3    C25   A    
S5    O23   S    
S6    O26   S    
C1    O1    A    
O4    Zn1   S    
S7    O28   D    
C20   C22   A    
C21   C23   A    
C14   C16   A    
O11   H1    S    
C12   O6    A    
S2    O12   D    
C9    N1    D    
C14   S2    S    
C10   N2    D    
C15   C17   A    
O17   H5    S    
O6    Zn2   S    
S8    O30   D    
C26   S4    S    
C4    C26   A    
S4    O20   S    
O3    Zn2   S    
C2    O2    A    
S3    O17   S    
C13   C15   A    
C20   C26   A    
N2    Zn1   S    
C11   O7    A    
C17   C19   A    
S4    O19   D    
C22   C24   A    
C19   C25   A    
S7    O29   S    
C7    H10   S    
C13   S1    S    
C8    H9    S    
C16   C18   A    
S5    O21   D    
O1    Zn1   S    
N2    H15   S    
S6    O25   D    
O2    Zn2   S    
