data_mof_unit_53011.cif
_audit_creation_date              2013-03-05T16:06:48-0500
_audit_creation_method            fapswitch 2.2
_symmetry_space_group_name_H-M    P1
_symmetry_Int_Tables_number       1
_space_group_crystal_system       triclinic
_cell_length_a                    6.948502
_cell_length_b                    14.511264
_cell_length_c                    16.233847
_cell_angle_alpha                 90.58546
_cell_angle_beta                  90.70076
_cell_angle_gamma                 89.633969
_cell_volume                      1636.64391882

loop_
_atom_site_label
_atom_site_type_symbol
_atom_site_description
_atom_site_fract_x
_atom_site_fract_y
_atom_site_fract_z
_atom_type_partial_charge
O1    O     O_R   0.505830 0.583360 0.413880 -0.599152
O2    O     O_R   0.175830 0.595460 0.585520 -0.597337
O3    O     O_R   0.005520 0.416640 0.586120 -0.574824
C1    C     C_R   0.344785 0.617320 0.614477 1.000449
O4    O     O_R   0.176120 0.594390 0.414490 -0.613538
O5    O     O_R   0.005810 0.415570 0.413870 -0.573347
C2    C     C_R   0.343838 0.616143 0.385786 0.919981
O6    O     O_R   0.505540 0.584430 0.586130 -0.603155
O7    O     O_3   0.339200 0.441330 0.500000 -0.232067
V1    V     V_3+5 0.064350 0.510880 0.500000 1.195352
O8    O     O_R   0.676100 0.404540 0.414480 -0.596430
C3    C     C_R   0.844742 0.382706 0.385530 0.960255
O9    O     O_R   0.675810 0.405610 0.585510 -0.555659
C4    C     C_R   0.847340 0.384753 0.613963 0.956088
V2    V     V_3+5 0.564340 0.489120 0.500000 1.220767
O10   O     O_3   0.839360 0.558670 0.500000 -0.298362
C5    C     C_2   0.843494 0.172707 0.754602 -0.386952
C6    C     C_2   0.863734 0.192708 0.835323 0.379112
H1    H     H_    0.859177 0.101534 0.734000 0.080673
C7    C     C_2   0.781939 0.241963 0.691270 0.489203
C8    C     C_2   0.877088 0.322959 0.684744 -0.004757
C9    C     C_R   0.734149 0.180171 0.242721 0.192034
C10   C     C_R   0.882418 0.182800 0.185350 -0.222570
C11   C     C_R   0.029377 0.247717 0.199345 -0.197013
H2    H     H_    0.148720 0.251683 0.157436 0.127978
C12   C     C_R   0.016846 0.312380 0.264572 -0.066694
H3    H     H_    0.127140 0.364371 0.270800 0.115757
C13   C     C_R   0.858378 0.313148 0.318300 -0.255352
C14   C     C_R   0.723863 0.242404 0.308256 0.092828
C15   C     C_3   0.509202 0.244982 0.303210 0.205135
C16   C     C_3   0.521368 0.177874 0.230437 -0.578991
H4    H     H_    0.450118 0.314082 0.287651 0.050889
H5    H     H_    0.476857 0.209030 0.170894 0.169415
H6    H     H_    0.460884 0.108455 0.241798 0.235045
C17   C     C_R   0.494959 0.753370 0.687966 0.151324
C18   C     C_R   0.352065 0.685998 0.682677 -0.265468
C19   C     C_R   0.209342 0.687885 0.743650 -0.288076
H7    H     H_    0.092704 0.638804 0.740662 0.178004
C20   C     C_R   0.223139 0.748262 0.812630 0.540006
C21   C     C_R   0.376254 0.812135 0.819422 -0.377369
C22   C     C_R   0.505275 0.815417 0.753855 0.083401
C23   C     C_3   0.719529 0.812542 0.755039 -0.404903
C24   C     C_3   0.708315 0.744765 0.683093 -0.443618
H8    H     H_    0.775243 0.781518 0.812646 0.251840
H9    H     H_    0.783416 0.879861 0.738657 0.176447
H10   H     H_    0.760794 0.674502 0.698750 0.204894
H11   H     H_    0.764804 0.773120 0.624882 0.183465
C25   C     C_R   0.490964 0.754140 0.318178 0.109205
C26   C     C_R   0.350082 0.685770 0.319440 -0.180564
C27   C     C_R   0.209563 0.688578 0.255976 -0.211594
H12   H     H_    0.092259 0.639808 0.255220 0.123992
C28   C     C_R   0.225015 0.751502 0.190218 -0.165203
H13   H     H_    0.117559 0.749792 0.141521 0.137979
C29   C     C_R   0.380206 0.814057 0.186272 -0.277103
C30   C     C_R   0.504743 0.817227 0.255001 0.127769
C31   C     C_3   0.718564 0.824720 0.266365 0.417287
C32   C     C_3   0.701053 0.753808 0.335767 -0.646623
H14   H     H_    0.799309 0.800636 0.211301 0.038403
H15   H     H_    0.732579 0.780603 0.398785 0.203736
H16   H     H_    0.769793 0.686498 0.320563 0.185280
O11   O     O_R   0.229930 0.912420 0.917160 -0.555200
O12   O     O_R   0.559420 0.902500 0.088780 -0.597954
O13   O     O_R   0.729660 0.081330 0.089380 -0.582680
C33   C     C_R   0.391580 0.880782 0.117598 0.952070
O14   O     O_R   0.559650 0.901420 0.917750 -0.597293
O15   O     O_R   0.729880 0.080250 0.917130 -0.593979
C34   C     C_R   0.390133 0.878802 0.889320 0.980028
O16   O     O_R   0.229700 0.913500 0.089410 -0.592733
O17   O     O_3   0.396250 0.055540 0.003280 -0.280103
V3    V     V_3+5 0.671130 0.986010 0.003260 1.175139
O18   O     O_R   0.059600 0.091310 0.917720 -0.596011
C35   C     C_R   0.888159 0.114624 0.891903 0.780249
O19   O     O_R   0.059370 0.092380 0.088750 -0.609308
C36   C     C_R   0.890657 0.115714 0.116306 0.939696
V4    V     V_3+5 0.171120 0.007820 0.003230 1.172277
O20   O     O_3   0.896130 0.938240 0.003240 -0.257451
O21   O     O_3   0.085548 0.744400 0.873105 -0.638681
C37   C     C_3   0.135284 0.673991 0.928882 0.275805
H17   H     H_    0.263093 0.694751 0.966574 0.071660
H18   H     H_    0.166387 0.607352 0.896715 0.115843
C38   C     C_3   0.966984 0.658751 0.986123 -0.914486
H19   H     H_    0.840836 0.633011 0.950258 0.255515
H20   H     H_    0.007252 0.607179 0.033486 0.208221
H21   H     H_    0.926665 0.724508 0.017168 0.262120
O22   O     O_3   0.769499 0.914207 0.294373 -0.601138
C39   C     C_3   0.957781 0.913702 0.328969 0.263844
H22   H     H_    0.051533 0.858424 0.303477 0.104105
H23   H     H_    0.948876 0.904341 0.396651 0.113544
C40   C     C_3   0.055337 0.005146 0.313435 -0.806702
H24   H     H_    0.970030 0.062547 0.340551 0.274582
H25   H     H_    0.200977 0.004945 0.342316 0.240362
H26   H     H_    0.070854 0.015318 0.246273 0.234405
O23   O     O_3   0.812970 0.280865 0.863454 -0.607070
C41   C     C_3   0.877019 0.297782 0.945177 0.343870
H27   H     H_    0.033162 0.281388 0.952530 0.093469
H28   H     H_    0.791891 0.256733 0.989139 0.050636
C42   C     C_3   0.847662 0.399228 0.966312 -0.865764
H29   H     H_    0.693175 0.418141 0.959569 0.255330
H30   H     H_    0.894545 0.412777 0.030939 0.189537
H31   H     H_    0.933781 0.442566 0.924733 0.285093
O24   O     O_3   0.643186 0.219889 0.631336 -0.632744
C43   C     C_3   0.502897 0.159409 0.662367 0.270763
H32   H     H_    0.459938 0.179029 0.726135 0.145760
H33   H     H_    0.558869 0.087429 0.662109 0.079410
C44   C     C_3   0.323129 0.162696 0.608050 -0.662299
H34   H     H_    0.353015 0.130359 0.547496 0.279184
H35   H     H_    0.205406 0.123955 0.637431 0.169714
H36   H     H_    0.275575 0.235139 0.598940 0.277115
N1    N     N_R   0.034163 0.347075 0.739851 0.259156
O25   O     O_R   0.172587 0.288693 0.754937 -0.428057
O26   O     O_R   0.056474 0.432657 0.762532 -0.425144
N2    N     N_R   0.422500 0.203843 0.375607 0.258306
O27   O     O_R   0.482656 0.124480 0.402808 -0.418832
O28   O     O_R   0.286074 0.247408 0.414216 -0.400456

loop_
_geom_bond_atom_site_label_1
_geom_bond_atom_site_label_2
_geom_bond_distance
_ccdc_geom_bond_type
C25   C30   1.386292 A    
C15   H4    1.111389 S    
C30   C31   1.499406 S    
C1    C18   1.482659 S    
O23   C41   1.413750 S    
C9    C14   1.390647 A    
O19   C36   1.301424 A    
O2    C1    1.299252 A    
C17   C18   1.399162 A    
C1    O6    1.299435 A    
C42   H31   1.110198 S    
N2    O28   1.299962 A    
C42   H29   1.110672 S    
C25   C32   1.484023 S    
O21   C37   1.410667 S    
O11   V4    2.000749 S    
O16   V4    2.003599 S    
C44   H35   1.110659 S    
C12   H3    1.081986 S    
C19   H7    1.082663 S    
C3    C13   1.482495 S    
C20   O21   1.380488 S    
C4    C8    1.476485 S    
C13   C14   1.399715 A    
C11   C12   1.410755 A    
O17   V3    2.154418 S    
N1    O26   1.301408 A    
O5    C3    1.296689 A    
C15   C16   1.526113 S    
C39   H23   1.111005 S    
C32   H15   1.110519 S    
V2    O10   2.166812 S    
C5    C7    1.501609 S    
C31   C32   1.540030 S    
O12   V3    2.017733 S    
C43   C44   1.520937 S    
C22   C23   1.488957 S    
O12   C33   1.303590 A    
C42   H30   1.110740 S    
O8    V2    2.004064 S    
O15   C35   1.283862 A    
O14   C34   1.302574 A    
C21   C34   1.486235 S    
C27   C28   1.417333 A    
C10   C11   1.408553 A    
C16   H5    1.110959 S    
O1    V2    2.002022 S    
C40   H25   1.110095 S    
C17   C24   1.489957 S    
O7    V1    2.154367 S    
O1    C2    1.298582 A    
O9    C4    1.307791 A    
O19   V4    2.003861 S    
C43   H32   1.114562 S    
C23   H8    1.106627 S    
N2    O27   1.302217 A    
C38   H20   1.110570 S    
C28   C29   1.416446 A    
C5    C6    1.345156 D    
C6    C35   1.473556 S    
C44   H36   1.110723 S    
C9    C16   1.490018 S    
O24   C43   1.416403 S    
C11   H2    1.081232 S    
C2    C26   1.485510 S    
C20   C21   1.418029 A    
O4    C2    1.302262 A    
C37   H17   1.113644 S    
C32   H16   1.111353 S    
C7    O24   1.397651 S    
C41   C42   1.521167 S    
O22   C39   1.417415 S    
C38   H19   1.110896 S    
C15   N2    1.461807 S    
C23   H9    1.111678 S    
C41   H28   1.112457 S    
V4    O20   2.166836 S    
C14   C15   1.493072 S    
O11   C34   1.297014 A    
O13   V3    1.996748 S    
C27   H12   1.082746 S    
C16   H6    1.111991 S    
C40   H26   1.108386 S    
C43   H33   1.112237 S    
O3    C4    1.284287 A    
C21   C22   1.401377 A    
O6    V2    2.000514 S    
O9    V2    1.997882 S    
V3    O20   1.706152 S    
C23   C24   1.520791 S    
C10   C36   1.478465 S    
O2    V1    1.996220 S    
C33   O16   1.298101 A    
C38   H21   1.110505 S    
C28   H13   1.080952 S    
C29   C30   1.404164 A    
C18   C19   1.409647 A    
C39   H22   1.110049 S    
C39   C40   1.518698 S    
O5    V1    1.996776 S    
C8    N1    1.445193 S    
O8    C3    1.303868 A    
O13   C36   1.296999 A    
C44   H34   1.106343 S    
C12   C13   1.412956 A    
O7    V2    1.715255 S    
O4    V1    2.017785 S    
C19   C20   1.417473 A    
O3    V1    2.012966 S    
V1    O10   1.706201 S    
N1    O25   1.300354 A    
O18   V4    1.997836 S    
C37   C38   1.521207 S    
C31   O22   1.417095 S    
O15   V3    2.012962 S    
C29   C33   1.487227 S    
C25   C26   1.398701 A    
C5    H1    1.087572 S    
C31   H14   1.113257 S    
O17   V4    1.714762 S    
C37   H18   1.115469 S    
C41   H27   1.114501 S    
C17   C22   1.392554 A    
C24   H10   1.111504 S    
O18   C35   1.301822 A    
C7    C8    1.357929 D    
C26   C27   1.411452 A    
C6    O23   1.398477 S    
C9    C10   1.398202 A    
C40   H24   1.109756 S    
C24   H11   1.111519 S    
O14   V3    1.996200 S    
