data_mof_unit_41464.cif
_audit_creation_date              2013-03-05T15:40:42-0500
_audit_creation_method            fapswitch 2.2
_symmetry_space_group_name_H-M    P1
_symmetry_Int_Tables_number       1
_space_group_crystal_system       triclinic
_cell_length_a                    19.021441
_cell_length_b                    11.085426
_cell_length_c                    18.694531
_cell_angle_alpha                 90.090893
_cell_angle_beta                  89.736233
_cell_angle_gamma                 89.695644
_cell_volume                      3941.84082459

loop_
_atom_site_label
_atom_site_type_symbol
_atom_site_description
_atom_site_fract_x
_atom_site_fract_y
_atom_site_fract_z
_atom_type_partial_charge
O1    O     O_R   0.043230 0.549300 0.667990 -0.522165
O2    O     O_R   0.956770 0.549300 0.332010 -0.467986
O3    O     O_R   0.543230 0.049300 0.667990 -0.462747
O4    O     O_R   0.456770 0.049300 0.332010 -0.528020
O5    O     O_R   0.178620 0.457600 0.674100 -0.462684
O6    O     O_R   0.821380 0.457600 0.325900 -0.423495
O7    O     O_R   0.678620 0.957600 0.674100 -0.421803
O8    O     O_R   0.321380 0.957600 0.325900 -0.465642
C1    C     C_R   0.242094 0.462237 0.650385 0.589921
C2    C     C_R   0.760223 0.466564 0.353069 0.603789
C3    C     C_R   0.739911 0.966616 0.646972 0.606177
C4    C     C_R   0.258003 0.962015 0.349552 0.587099
O9    O     O_R   0.284680 0.542100 0.669460 -0.487142
O10   O     O_R   0.715320 0.542100 0.330540 -0.489166
O11   O     O_R   0.784680 0.042100 0.669460 -0.483997
O12   O     O_R   0.215320 0.042100 0.330540 -0.492084
O13   O     O_R   0.262860 0.790390 0.676650 -0.513497
O14   O     O_R   0.737140 0.790390 0.323350 -0.537352
O15   O     O_R   0.762860 0.290390 0.676650 -0.528750
O16   O     O_R   0.237140 0.290390 0.323350 -0.524396
C5    C     C_R   0.212437 0.835504 0.638898 0.542311
C6    C     C_R   0.772534 0.874640 0.351844 0.564562
C7    C     C_R   0.727449 0.374563 0.648108 0.572682
C8    C     C_R   0.287442 0.336045 0.360933 0.538840
O17   O     O_R   0.167460 0.907030 0.670940 -0.406452
O18   O     O_R   0.832540 0.907030 0.329060 -0.442478
O19   O     O_R   0.667460 0.407030 0.670940 -0.446367
O20   O     O_R   0.332540 0.407030 0.329060 -0.405300
O21   O     O_R   0.053950 0.750220 0.675100 -0.476453
O22   O     O_R   0.946050 0.750220 0.324900 -0.471784
O23   O     O_R   0.553950 0.250220 0.675100 -0.469850
O24   O     O_R   0.446050 0.250220 0.324900 -0.477265
C9    C     C_R   0.030263 0.654025 0.643851 0.577641
C10   C     C_R   0.974660 0.656411 0.352081 0.585925
C11   C     C_R   0.525392 0.156695 0.647847 0.593012
C12   C     C_R   0.469849 0.153898 0.356064 0.572093
O25   O     O_R   0.043300 0.547370 0.827390 -0.504914
O26   O     O_R   0.956700 0.547370 0.172610 -0.510401
O27   O     O_R   0.543300 0.047370 0.827390 -0.512229
O28   O     O_R   0.456700 0.047370 0.172610 -0.501366
O29   O     O_R   0.178690 0.455820 0.821860 -0.487498
O30   O     O_R   0.821310 0.455820 0.178140 -0.470595
O31   O     O_R   0.678690 0.955820 0.821860 -0.496885
O32   O     O_R   0.321310 0.955820 0.178140 -0.462624
C13   C     C_R   0.238054 0.470124 0.852607 0.563905
C14   C     C_R   0.760087 0.462309 0.151146 0.578202
C15   C     C_R   0.738002 0.970237 0.852642 0.558906
C16   C     C_R   0.260302 0.962833 0.150733 0.584511
O33   O     O_R   0.284750 0.540170 0.828860 -0.489911
O34   O     O_R   0.715250 0.540170 0.171140 -0.497435
O35   O     O_R   0.784750 0.040170 0.828860 -0.488133
O36   O     O_R   0.215250 0.040170 0.171140 -0.493813
O37   O     O_R   0.262920 0.788600 0.824420 -0.490474
O38   O     O_R   0.737080 0.788600 0.175580 -0.510439
O39   O     O_R   0.762920 0.288600 0.824420 -0.497368
O40   O     O_R   0.237080 0.288600 0.175580 -0.504815
C17   C     C_R   0.206567 0.823208 0.859671 0.558112
C18   C     C_R   0.770887 0.877020 0.149333 0.574354
C19   C     C_R   0.707264 0.324725 0.860007 0.548844
C20   C     C_R   0.270855 0.377155 0.149420 0.585415
O41   O     O_R   0.167530 0.905110 0.830340 -0.417415
O42   O     O_R   0.832470 0.905110 0.169660 -0.435671
O43   O     O_R   0.667530 0.405110 0.830340 -0.422892
O44   O     O_R   0.332470 0.405110 0.169660 -0.431063
O45   O     O_R   0.054010 0.748440 0.822860 -0.456201
O46   O     O_R   0.945990 0.748440 0.177140 -0.481665
O47   O     O_R   0.554010 0.248440 0.822860 -0.474618
O48   O     O_R   0.445990 0.248440 0.177140 -0.477234
C21   C     C_R   0.031733 0.651521 0.852464 0.564762
C22   C     C_R   0.972334 0.652600 0.150493 0.549208
C23   C     C_R   0.531909 0.151582 0.852554 0.546940
C24   C     C_R   0.472381 0.152498 0.150586 0.561718
Cr1   Cr    Cr6+3 0.113970 0.508630 0.747920 1.097377
Cr2   Cr    Cr6+3 0.886030 0.508630 0.252080 1.153039
Cr3   Cr    Cr6+3 0.613970 0.008630 0.747920 1.128317
Cr4   Cr    Cr6+3 0.386030 0.008630 0.252080 1.119899
Cr5   Cr    Cr6+3 0.269200 0.666740 0.749850 1.090953
Cr6   Cr    Cr6+3 0.730800 0.666740 0.250150 1.090212
Cr7   Cr    Cr6+3 0.769200 0.166740 0.749850 1.094298
Cr8   Cr    Cr6+3 0.230800 0.166740 0.250150 1.088695
Cr9   Cr    Cr6+3 0.112300 0.820070 0.749800 1.179658
Cr10  Cr    Cr6+3 0.887700 0.820070 0.250200 1.173343
Cr11  Cr    Cr6+3 0.612300 0.320070 0.749800 1.175578
Cr12  Cr    Cr6+3 0.387700 0.320070 0.250200 1.173596
O49   O     O_3   0.165160 0.665150 0.749190 -0.354167
O50   O     O_3   0.834840 0.665150 0.250810 -0.307373
O51   O     O_3   0.665160 0.165150 0.749190 -0.333901
O52   O     O_3   0.334840 0.165150 0.250810 -0.325234
C25   C     C_2   0.234536 0.869025 0.566342 0.161497
C26   C     C_2   0.749268 0.915846 0.421409 0.181671
C27   C     C_2   0.750715 0.415529 0.578652 0.181812
C28   C     C_2   0.265173 0.369611 0.433495 0.162748
C29   C     C_2   0.234880 0.888807 0.409524 -0.011137
C30   C     C_2   0.756117 0.898823 0.582022 0.007401
C31   C     C_2   0.744415 0.398987 0.417984 0.009785
C32   C     C_2   0.265500 0.389068 0.590272 -0.011792
C33   C     C_2   0.277570 0.812386 0.442895 0.212825
C34   C     C_2   0.704983 0.857771 0.539162 0.262755
C35   C     C_2   0.795805 0.358244 0.460916 0.262343
C36   C     C_2   0.223156 0.312710 0.556999 0.212679
C37   C     C_2   0.267167 0.789173 0.521549 -0.134198
C38   C     C_2   0.720844 0.832656 0.465043 -0.127969
C39   C     C_2   0.779995 0.332610 0.534952 -0.127735
C40   C     C_2   0.233336 0.289594 0.478277 -0.136664
C41   C     C_R   0.017590 0.672069 0.418269 0.034026
C42   C     C_R   0.004787 0.658667 0.568409 0.021494
C43   C     C_R   0.495527 0.158597 0.431403 0.022892
C44   C     C_R   0.482563 0.172759 0.581550 0.032510
C45   C     C_R   0.013902 0.896026 0.426571 0.226364
C46   C     C_R   0.967634 0.874568 0.569989 0.221198
C47   C     C_R   0.532492 0.373747 0.429874 0.224167
C48   C     C_R   0.486159 0.396714 0.573288 0.223517
C49   C     C_R   0.991259 0.997128 0.465370 -0.079318
C50   C     C_R   0.966692 0.986023 0.535103 -0.103125
C51   C     C_R   0.533312 0.485364 0.464733 -0.098963
C52   C     C_R   0.508694 0.497246 0.534454 -0.077075
C53   C     C_R   0.994520 0.771161 0.533494 -0.036630
C54   C     C_R   0.009618 0.779908 0.458787 -0.046955
C55   C     C_R   0.490511 0.280342 0.541075 -0.048238
C56   C     C_R   0.505641 0.271032 0.466359 -0.035142
C57   C     C_R   0.016463 0.553748 0.525792 0.032469
C58   C     C_R   0.036332 0.566071 0.453736 0.042267
C59   C     C_R   0.464040 0.066876 0.545941 0.040097
C60   C     C_R   0.484118 0.054089 0.473929 0.032939
C61   C     C_R   0.002682 0.435646 0.550666 0.001134
C62   C     C_R   0.061708 0.464953 0.415427 -0.021486
C63   C     C_R   0.438954 0.966038 0.584075 -0.021177
C64   C     C_R   0.498549 0.935915 0.448989 -0.000583
C65   C     C_R   0.017555 0.335666 0.507764 -0.002427
C66   C     C_R   0.052481 0.349666 0.442831 -0.045181
C67   C     C_R   0.449006 0.850598 0.556695 -0.042553
C68   C     C_R   0.484306 0.836252 0.491894 -0.001379
H1    H     H_    0.082575 0.474780 0.361720 0.141742
H2    H     H_    0.974871 0.419916 0.600360 0.155289
H3    H     H_    0.526500 0.919995 0.399302 0.152522
H4    H     H_    0.417861 0.976152 0.637714 0.146480
H5    H     H_    0.002574 0.246961 0.525664 0.145105
H6    H     H_    0.067382 0.271489 0.411373 0.143404
H7    H     H_    0.434490 0.772610 0.588116 0.144105
H8    H     H_    0.500132 0.747557 0.474116 0.144625
C69   C     C_2   0.212588 0.828741 0.937461 -0.120757
C70   C     C_2   0.743056 0.931256 0.084773 -0.088440
C71   C     C_2   0.715668 0.335380 0.937113 -0.117191
C72   C     C_2   0.243291 0.431223 0.084717 -0.089677
C73   C     C_2   0.246053 0.896255 0.085575 -0.088529
C74   C     C_2   0.744544 0.938527 0.927650 -0.135752
C75   C     C_2   0.745479 0.394340 0.086707 -0.093785
C76   C     C_2   0.244803 0.437649 0.927500 -0.138164
C77   C     C_2   0.181296 0.900176 0.057714 -0.137074
C78   C     C_2   0.773852 0.022038 0.970796 -0.150986
C79   C     C_2   0.680902 0.398959 0.058187 -0.136281
C80   C     C_2   0.276619 0.518740 0.970432 -0.152079
C81   C     C_2   0.168497 0.891595 0.980676 0.163511
C82   C     C_2   0.779375 0.014750 0.048654 0.171119
C83   C     C_2   0.668254 0.389051 0.981012 0.162510
C84   C     C_2   0.280396 0.513585 0.048488 0.168366
H9    H     H_    0.291293 0.864391 0.055450 0.144850
H10   H     H_    0.719401 0.857548 0.947305 0.120520
H11   H     H_    0.790905 0.360186 0.057991 0.148022
H12   H     H_    0.217005 0.359471 0.947376 0.125317
C85   C     C_2   0.012091 0.654353 0.927349 -0.065519
C86   C     C_2   0.011872 0.664775 0.084573 -0.103267
C87   C     C_2   0.512476 0.154787 0.927466 -0.067828
C88   C     C_2   0.512028 0.164279 0.084813 -0.104751
C89   C     C_2   0.029091 0.567050 0.046802 -0.157372
C90   C     C_2   0.044339 0.574728 0.970870 -0.157186
C91   C     C_2   0.528891 0.066606 0.046830 -0.159563
C92   C     C_2   0.544290 0.074542 0.970927 -0.155045
H13   H     H_    0.017770 0.754476 0.061944 0.143926
H14   H     H_    0.976012 0.722977 0.947141 0.146880
H15   H     H_    0.518235 0.253840 0.062546 0.164148
H16   H     H_    0.476739 0.223912 0.947232 0.152273
N1    N     N_R   0.322533 0.738447 0.398778 0.149012
O53   O     O_R   0.388192 0.723299 0.413990 -0.332850
O54   O     O_R   0.299085 0.694953 0.338718 -0.243000
N2    N     N_R   0.632833 0.872784 0.556630 0.078013
O55   O     O_R   0.601439 0.794843 0.597552 -0.299092
O56   O     O_R   0.606445 0.979922 0.549100 -0.339082
N3    N     N_R   0.867885 0.373422 0.443554 0.077350
O57   O     O_R   0.899972 0.295074 0.402926 -0.298758
O58   O     O_R   0.893637 0.480582 0.451217 -0.339763
N4    N     N_R   0.179827 0.237545 0.601417 0.151480
O59   O     O_R   0.113138 0.227927 0.589959 -0.332259
O60   O     O_R   0.205477 0.191772 0.659953 -0.256124
N5    N     N_R   0.112715 0.965768 0.953234 0.115424
O61   O     O_R   0.113572 0.081361 0.965312 -0.301418
O62   O     O_R   0.054849 0.916638 0.931347 -0.322529
N6    N     N_R   0.825900 0.097391 0.084525 0.093612
O63   O     O_R   0.808582 0.142427 0.146558 -0.308662
O64   O     O_R   0.880807 0.139705 0.051431 -0.311519
N7    N     N_R   0.608256 0.453307 0.953874 0.111036
O65   O     O_R   0.545745 0.423973 0.975822 -0.350740
O66   O     O_R   0.617380 0.560353 0.927010 -0.277162
N8    N     N_R   0.326386 0.596868 0.084607 0.093632
O67   O     O_R   0.308119 0.642926 0.146101 -0.294215
O68   O     O_R   0.382013 0.638205 0.052333 -0.308201
H17   H     H_    0.254698 0.776151 0.960339 0.071176
H18   H     H_    0.699407 0.884485 0.060199 0.075463
H19   H     H_    0.761287 0.290470 0.958567 0.075513
H20   H     H_    0.199797 0.384228 0.060079 0.078676
H21   H     H_    0.027089 0.477471 0.070213 0.184618
H22   H     H_    0.079949 0.506429 0.949521 0.163145
H23   H     H_    0.526475 0.976906 0.070033 0.183470
H24   H     H_    0.579538 0.005759 0.949505 0.163217
H25   H     H_    0.284176 0.703259 0.543097 0.187416
H26   H     H_    0.708643 0.742456 0.446117 0.166295
H27   H     H_    0.792960 0.242509 0.553732 0.164561
H28   H     H_    0.216830 0.203629 0.456645 0.186512
H29   H     H_    0.183754 0.909825 0.431683 0.158299
H30   H     H_    0.810182 0.897924 0.563036 0.118216
H31   H     H_    0.690300 0.397766 0.436798 0.119649
H32   H     H_    0.316502 0.409698 0.568094 0.158139
N9    N     N_R   0.224309 0.990874 0.545746 0.072753
O69   O     O_R   0.278779 0.056752 0.530805 -0.397271
O70   O     O_R   0.161020 0.029238 0.532475 -0.332140
N10   N     N_R   0.762411 0.037509 0.443970 0.042581
O71   O     O_R   0.712171 0.101284 0.472840 -0.345387
O72   O     O_R   0.821077 0.089647 0.426683 -0.309608
N11   N     N_R   0.736696 0.536895 0.556092 0.042800
O73   O     O_R   0.787154 0.602226 0.529807 -0.344682
O74   O     O_R   0.675963 0.586400 0.569493 -0.316892
N12   N     N_R   0.274952 0.491338 0.454303 0.070831
O75   O     O_R   0.220309 0.557999 0.469039 -0.399028
O76   O     O_R   0.338083 0.528708 0.468054 -0.331376
H33   H     H_    0.991948 0.085530 0.441076 0.179272
H34   H     H_    0.945740 0.064989 0.562024 0.160013
H35   H     H_    0.554270 0.563782 0.437809 0.160980
H36   H     H_    0.507951 0.585788 0.558737 0.178478
N13   N     N_R   0.044916 0.913937 0.356744 0.084863
O77   O     O_R   0.090881 0.837783 0.331091 -0.356019
O78   O     O_R   0.031486 0.011660 0.320672 -0.318019
N14   N     N_R   0.934422 0.866337 0.639169 0.074745
O79   O     O_R   0.894597 0.774856 0.654794 -0.331898
O80   O     O_R   0.937171 0.956715 0.683574 -0.305258
N15   N     N_R   0.565842 0.364490 0.360762 0.073498
O81   O     O_R   0.605861 0.272350 0.345336 -0.333948
O82   O     O_R   0.563149 0.454617 0.316308 -0.315767
N16   N     N_R   0.455196 0.415543 0.643140 0.086380
O83   O     O_R   0.409451 0.340120 0.668944 -0.348874
O84   O     O_R   0.468494 0.513360 0.679125 -0.312895
H37   H     H_    0.137787 0.935063 0.089675 0.191589
H38   H     H_    0.797763 0.101357 0.947561 0.185574
H39   H     H_    0.637467 0.434976 0.089799 0.197494
H40   H     H_    0.303323 0.595289 0.946991 0.191640

loop_
_geom_bond_atom_site_label_1
_geom_bond_atom_site_label_2
_geom_bond_distance
_ccdc_geom_bond_type
C61   H2    1.081787 S    
C18   O42   1.273229 A    
Cr11  O51   1.985421 S    
O4    C12   1.269262 A    
C72   C84   1.339733 D    
C89   C90   1.450253 S    
C32   H32   1.079040 S    
O25   C21   1.263241 A    
O20   Cr12  2.043053 S    
C13   C76   1.452264 S    
N15   O82   1.301515 A    
O29   C13   1.279928 A    
C84   N8    1.444165 S    
C36   C40   1.504853 S    
C75   H11   1.081548 S    
Cr7   O51   1.979258 S    
O1    C9    1.269591 A    
C59   C60   1.404408 A    
C5    C25   1.467174 S    
N1    O53   1.292310 A    
C48   N16   1.444449 S    
C51   H35   1.082208 S    
C23   C87   1.447091 S    
C52   H36   1.080765 S    
O24   C12   1.297593 A    
C25   N9    1.417813 S    
C39   H27   1.086730 S    
C80   H40   1.083439 S    
O39   C19   1.308401 A    
O35   Cr7   2.060100 S    
O30   C14   1.273051 A    
C31   C35   1.344386 D    
N5    O62   1.298224 A    
O46   Cr10  1.923170 S    
C30   C34   1.343814 D    
C51   C52   1.388763 A    
O21   C9    1.298826 A    
O8    Cr4   1.931573 S    
O23   Cr11  1.949764 S    
C42   C57   1.424596 A    
N6    O64   1.301435 A    
C76   H12   1.082955 S    
C78   H38   1.082740 S    
O47   Cr11  1.929815 S    
O32   Cr4   1.946711 S    
C77   H37   1.087575 S    
C1    O9    1.255550 A    
N4    O59   1.292377 A    
C26   C38   1.346022 D    
O7    C3    1.273713 A    
C77   C81   1.464748 S    
C11   C44   1.496646 S    
C57   C61   1.415434 A    
C74   C78   1.351174 D    
C3    O11   1.269585 A    
O11   Cr7   2.058966 S    
C4    O12   1.252851 A    
C62   H1    1.083788 S    
O28   Cr4   2.046548 S    
C47   N15   1.440006 S    
N15   O81   1.301802 A    
N2    O55   1.300675 A    
C40   H28   1.083223 S    
O27   Cr3   2.042557 S    
C79   H39   1.087431 S    
O3    Cr3   2.064181 S    
C46   C50   1.398077 A    
C78   C82   1.462113 S    
O47   C23   1.281513 A    
C85   C90   1.348495 D    
O2    Cr2   2.066264 S    
C27   N11   1.434596 S    
O48   C24   1.272770 A    
C60   C64   1.414890 A    
O2    C10   1.292473 A    
N1    O54   1.302785 A    
N8    O67   1.302137 A    
O42   Cr10  2.065891 S    
C15   C74   1.451897 S    
Cr5   O49   1.979258 S    
O18   Cr10  2.043053 S    
O27   C23   1.263922 A    
C12   C43   1.493766 S    
O17   Cr9   2.050504 S    
C70   H18   1.084685 S    
C44   C55   1.421777 A    
C69   H17   1.078604 S    
C43   C60   1.423125 A    
C19   C71   1.455708 S    
C64   C68   1.393312 A    
C46   C53   1.424476 A    
O13   Cr5   1.942095 S    
C65   H5    1.078544 S    
C45   C54   1.424574 A    
O6    Cr2   1.931573 S    
N4    O60   1.302708 A    
N9    O70   1.299725 A    
O31   Cr3   1.944095 S    
O24   Cr12  1.946837 S    
N16   O84   1.301732 A    
O30   Cr2   1.946711 S    
C33   N1    1.437850 S    
O22   C10   1.278275 A    
N7    O65   1.299213 A    
O48   Cr12  1.923170 S    
C80   C84   1.462504 S    
C63   H4    1.083755 S    
C35   C39   1.444017 S    
C2    O10   1.266843 A    
C64   H3    1.081933 S    
C27   C39   1.345547 D    
C91   C92   1.450470 S    
O16   Cr8   1.939936 S    
O15   C7    1.267784 A    
O7    Cr3   1.926461 S    
N9    O69   1.300333 A    
C82   N6    1.443703 S    
C91   H23   1.086599 S    
O13   C5    1.292422 A    
Cr4   O52   1.985348 S    
C92   H24   1.087390 S    
O43   Cr11  2.068803 S    
C47   C56   1.424088 A    
O12   Cr8   2.064261 S    
Cr12  O52   1.994671 S    
C35   N3    1.418435 S    
C58   C62   1.410992 A    
O37   Cr5   1.942493 S    
N7    O66   1.301438 A    
O5    C1    1.285587 A    
N13   O77   1.301576 A    
C34   C38   1.443092 S    
C50   H34   1.082332 S    
C86   C89   1.330838 D    
O39   Cr7   1.942493 S    
O3    C11   1.293279 A    
C18   C70   1.450234 S    
C29   C33   1.328639 D    
C59   C63   1.410862 A    
C14   C75   1.448641 S    
C72   H20   1.084125 S    
C13   O33   1.262434 A    
O8    C4    1.282812 A    
C33   C37   1.505508 S    
C16   C73   1.450607 S    
N14   O80   1.301516 A    
N8    O68   1.301447 A    
C6    C26   1.444461 S    
C45   N13   1.444454 S    
C26   N10   1.435994 S    
N10   O71   1.300463 A    
O15   Cr7   1.942095 S    
C87   H16   1.084930 S    
C38   H26   1.086726 S    
C1    C32   1.451769 S    
Cr1   O49   1.994303 S    
C57   C58   1.404456 A    
C37   H25   1.083113 S    
C46   N14   1.439950 S    
C3    C30   1.457841 S    
Cr3   O51   1.994303 S    
O26   C22   1.274456 A    
O21   Cr9   1.949764 S    
C30   H30   1.086363 S    
C7    O19   1.266658 A    
C24   C88   1.445922 S    
O9    Cr5   2.058966 S    
C29   H29   1.079448 S    
C8    C28   1.466090 S    
O23   C11   1.279215 A    
C4    C29   1.452975 S    
C85   H14   1.085273 S    
C44   C59   1.396096 A    
C67   C68   1.390845 A    
C66   H6    1.082348 S    
C49   H33   1.080868 S    
C43   C56   1.420792 A    
C48   C52   1.399133 A    
C36   N4    1.437457 S    
C8    O20   1.309223 A    
O14   Cr6   1.939936 S    
C49   C50   1.388691 A    
O26   Cr2   2.046548 S    
O25   Cr1   2.042557 S    
C42   C53   1.421436 A    
N11   O73   1.300509 A    
C5    O17   1.306135 A    
N16   O83   1.301542 A    
N12   O76   1.299042 A    
O37   C17   1.311023 A    
O22   Cr10  1.946837 S    
O28   C24   1.273069 A    
C22   C86   1.447599 S    
C25   C37   1.362739 D    
C34   N2    1.418127 S    
O14   C6    1.271879 A    
C10   C41   1.496040 S    
C19   O43   1.292726 A    
C88   C91   1.330866 D    
C9    C42   1.494271 S    
C76   C80   1.351465 D    
C89   H21   1.086615 S    
Cr2   O50   1.985348 S    
O6    C2    1.270533 A    
C48   C55   1.424652 A    
C15   O35   1.262589 A    
C55   C56   1.428268 A    
C17   O41   1.294026 A    
C74   H10   1.083310 S    
C45   C49   1.398974 A    
C68   H8    1.078296 S    
C71   H19   1.077463 S    
C73   H9    1.083569 S    
C14   O34   1.265022 A    
C83   N7    1.437026 S    
C79   C83   1.467810 S    
O40   Cr8   1.946444 S    
C17   C69   1.460493 S    
C71   C83   1.351595 D    
C20   O44   1.272939 A    
O1    Cr1   2.064181 S    
C63   C67   1.389471 A    
O19   Cr11  2.050504 S    
C87   C92   1.348600 D    
C65   C66   1.390410 A    
C31   H31   1.086390 S    
Cr8   O52   1.979069 S    
O32   C16   1.272743 A    
Cr10  O50   1.994671 S    
C53   C54   1.428085 A    
C20   C72   1.449836 S    
C47   C51   1.397720 A    
C69   C81   1.351788 D    
N5    O61   1.300992 A    
O46   C22   1.272160 A    
C86   H13   1.087386 S    
C81   N5    1.436031 S    
C2    C31   1.458174 S    
O45   C21   1.282456 A    
C75   C79   1.342068 D    
C32   C36   1.327528 D    
O34   Cr6   2.059046 S    
C28   N12   1.417205 S    
N14   O79   1.301797 A    
O33   Cr5   2.060100 S    
C41   C58   1.395576 A    
C7    C27   1.444581 S    
N11   O74   1.299472 A    
O10   Cr6   2.064261 S    
C90   H22   1.087398 S    
O5    Cr1   1.926461 S    
N12   O75   1.300311 A    
C41   C54   1.421254 A    
C73   C77   1.340088 D    
O4    Cr4   2.066264 S    
C67   H7    1.082285 S    
C28   C40   1.363013 D    
O29   Cr1   1.944095 S    
N3    O57   1.300668 A    
C21   C85   1.447539 S    
C61   C65   1.394064 A    
C16   O36   1.266109 A    
O40   C20   1.273161 A    
O44   Cr12  2.065891 S    
N13   O78   1.301732 A    
Cr6   O50   1.979069 S    
C6    O18   1.270230 A    
O38   C18   1.272932 A    
C62   C66   1.389322 A    
O45   Cr9   1.929815 S    
N6    O63   1.302111 A    
C88   H15   1.083987 S    
O41   Cr9   2.068803 S    
C70   C82   1.339529 D    
N3    O58   1.295341 A    
O36   Cr8   2.059046 S    
O31   C15   1.279510 A    
O16   C8    1.294417 A    
Cr9   O49   1.985421 S    
N10   O72   1.299183 A    
N2    O56   1.295057 A    
O38   Cr6   1.946444 S    
