data_mof_unit_38159.cif
_audit_creation_date              2012-10-26T20:58:14-0400
_audit_creation_method            fapswitch 2.2
_symmetry_space_group_name_H-M    P1
_symmetry_Int_Tables_number       1
_space_group_crystal_system       triclinic
_cell_length_a                    10.672916
_cell_length_b                    14.720006
_cell_length_c                    14.756565
_cell_angle_alpha                 65.010922
_cell_angle_beta                  103.708297
_cell_angle_gamma                 103.238964
_cell_volume                      2019.46508203

loop_
_atom_site_label
_atom_site_type_symbol
_atom_type_description
_atom_site_fract_x
_atom_site_fract_y
_atom_site_fract_z
_atom_type_partial_charge
C1    C     C_R   0.478975 0.119638 0.312371 0.555916
C2    C     C_R   0.529300 0.533843 0.950532 -0.031532
C3    C     C_R   0.521485 0.491930 0.878467 -0.083955
C4    C     C_R   0.554325 0.509894 0.127625 -0.084011
C5    C     C_R   0.504984 0.388033 0.905347 0.380383
C6    C     C_R   0.573464 0.613849 0.100913 0.386421
C7    C     C_R   0.721026 0.285372 0.667408 0.421091
C8    C     C_R   0.281686 0.715699 0.330832 0.415944
C9    C     C_R   0.685285 0.203875 0.637590 0.553067
C10   C     C_R   0.315544 0.796390 0.361825 0.554554
C11   C     C_R   0.519252 0.285222 0.509928 -0.046393
C12   C     C_R   0.522429 0.880326 0.687680 0.553673
C13   C     C_R   0.481458 0.715145 0.489754 -0.045369
C14   C     C_R   0.551557 0.372170 0.535185 -0.081229
C15   C     C_R   0.451437 0.629166 0.463045 -0.079792
C16   C     C_R   0.259912 0.000089 0.499712 0.595708
C17   C     C_R   0.740070 0.999937 0.500242 0.594791
C18   C     C_R   0.654086 0.370323 0.617262 0.042470
C19   C     C_R   0.349893 0.631409 0.380240 0.033491
C20   C     C_R   0.485103 0.459520 0.482666 0.037034
C21   C     C_R   0.519085 0.542378 0.514824 0.037319
C22   C     C_R   0.619592 0.535856 0.597858 -0.099360
C23   C     C_R   0.489422 0.291448 0.178656 -0.110865
C24   C     C_R   0.386587 0.466954 0.398282 -0.102737
C25   C     C_R   0.686915 0.452681 0.647782 0.158391
C26   C     C_R   0.319579 0.550264 0.348039 0.139956
C27   C     C_3   0.007668 0.924116 0.476205 0.070302
C28   C     C_3   0.992263 0.075941 0.523672 0.070564
C29   C     C_3   0.932028 0.012601 0.408650 0.052387
C30   C     C_3   0.067894 0.987457 0.591229 0.051862
C31   C     C_3   0.875934 0.000406 0.500648 0.002931
C32   C     C_3   0.124012 0.999649 0.499239 0.002614
C33   C     C_3   0.952269 0.911246 0.568893 0.337610
C34   C     C_R   0.524327 0.708459 0.821496 -0.111463
C35   C     C_3   0.047664 0.088811 0.430985 0.338236
C36   C     C_R   0.475873 0.187101 0.205254 0.011390
C37   C     C_R   0.538561 0.812861 0.795271 0.010071
C38   C     C_R   0.475991 0.216547 0.031307 -0.073041
C39   C     C_R   0.579982 0.784711 0.972704 -0.072753
C40   C     C_R   0.468037 0.149672 0.131010 -0.122698
C41   C     C_R   0.567886 0.850922 0.871364 -0.117594
C42   C     C_R   0.504728 0.360801 0.079944 -0.013540
C43   C     C_R   0.540647 0.640184 0.923077 -0.011761
C44   C     C_R   0.494859 0.321747 0.005083 0.071589
C45   C     C_R   0.565050 0.679651 0.999305 0.068021
C46   C     C_R   0.528350 0.467467 0.053749 -0.036096
Cu1   Cu    Cu3+1 0.465750 0.918270 0.475680 1.067952
Cu2   Cu    Cu3+1 0.534250 0.081730 0.524320 1.067741
F1    F     F_    0.249972 0.877045 0.313108 -0.545798
F2    F     F_    0.750124 0.122834 0.686700 -0.549798
F3    F     F_    0.820690 0.279737 0.745451 -0.545670
F4    F     F_    0.182567 0.721440 0.252400 -0.545509
F5    F     F_    0.903001 0.820353 0.639521 -0.629011
F6    F     F_    0.096910 0.179710 0.360356 -0.627874
F7    F     F_    0.498247 0.352368 0.832823 -0.635119
F8    F     F_    0.598273 0.649934 0.175291 -0.624849
H1    H     H_    0.558885 0.721351 0.549380 0.161459
H2    H     H_    0.600204 0.815937 0.030161 0.196864
H3    H     H_    0.532109 0.537536 0.800566 0.123689
H4    H     H_    0.564692 0.464965 0.207770 0.133585
H5    H     H_    0.920802 0.035301 0.261644 0.293423
H6    H     H_    0.816514 0.092191 0.281588 0.239322
H7    H     H_    0.079019 0.964933 0.738167 0.292885
H8    H     H_    0.183123 0.907770 0.718396 0.240257
H9    H     H_    0.920295 0.805450 0.436727 0.268655
H10   H     H_    0.065287 0.789280 0.511643 0.250679
H11   H     H_    0.079597 0.194630 0.563121 0.267114
H12   H     H_    0.440438 0.278531 0.451317 0.161948
H13   H     H_    0.934574 0.210751 0.488238 0.251155
H14   H     H_    0.858878 0.516329 0.704378 0.241372
H15   H     H_    0.749547 0.460087 0.785449 0.261148
H16   H     H_    0.150536 0.487871 0.286522 0.248545
H17   H     H_    0.263704 0.546256 0.208713 0.247899
H18   H     H_    0.649574 0.594655 0.626930 0.106642
H19   H     H_    0.358929 0.409208 0.367769 0.108795
H20   H     H_    0.496511 0.681915 0.760921 0.128598
H21   H     H_    0.486427 0.316541 0.236691 0.126403
H22   H     H_    0.579508 0.931580 0.852652 0.177235
H23   H     H_    0.457440 0.068999 0.150128 0.171051
H24   H     H_    0.469309 0.185724 0.975105 0.196451
N1    N     N_R   0.585750 0.204560 0.560800 -0.285249
N2    N     N_R   0.414250 0.795440 0.439200 -0.285957
N3    N     N_3   0.855816 0.024848 0.309370 -0.569354
N4    N     N_3   0.144031 0.975212 0.690525 -0.568601
N5    N     N_3   0.015353 0.841739 0.448624 -0.502649
N6    N     N_3   0.984551 0.158314 0.551249 -0.504582
N7    N     N_3   0.789025 0.452760 0.730847 -0.489182
N8    N     N_3   0.220803 0.551786 0.262642 -0.496627
O1    O     O_R   0.454850 0.022100 0.338110 -0.450975
O2    O     O_R   0.545150 0.977900 0.661890 -0.451879
O3    O     O_R   0.512700 0.160150 0.379180 -0.532914
O4    O     O_R   0.487300 0.839850 0.620820 -0.532867
O5    O     O_R   0.287930 0.931000 0.479440 -0.451950
O6    O     O_R   0.712070 0.069000 0.520560 -0.452499
O7    O     O_R   0.345780 0.069050 0.520520 -0.487311
O8    O     O_R   0.654220 0.930950 0.479480 -0.488242

loop_
_geom_bond_atom_site_label_1
_geom_bond_atom_site_label_2
_ccdc_geom_bond_type
C38   C40   A    
H6    N3    S    
Cu2   O7    S    
C27   C29   S    
C34   C37   A    
Cu1   O4    S    
C14   C18   A    
H10   N5    S    
C39   C41   A    
C4    C46   A    
C27   C33   S    
C15   C19   A    
C16   O5    A    
C23   C42   A    
Cu2   O6    S    
C12   O2    A    
C6    C45   A    
C24   C26   A    
C29   N3    S    
C11   C14   A    
C13   H1    S    
C25   N7    S    
Cu2   N1    S    
C22   C25   A    
C42   C46   A    
Cu1   N2    S    
C12   C37   S    
C27   N5    S    
C19   C26   A    
H8    N4    S    
C2    C46   A    
C20   C24   A    
C28   C35   S    
C16   O7    A    
Cu2   O3    S    
Cu1   O8    S    
C31   C33   S    
C8    F4    S    
C39   C45   A    
C1    O3    A    
Cu2   O2    S    
C21   C22   A    
C35   F6    S    
C37   C41   A    
Cu1   O1    S    
C18   C25   A    
C42   C44   A    
H14   N7    S    
H16   N8    S    
C5    F7    S    
C33   F5    S    
C8    C19   A    
C34   C43   A    
C32   C35   S    
C14   C20   A    
C36   C40   A    
C4    C6    A    
H5    N3    S    
C41   H22   S    
C39   H2    S    
C13   N2    A    
C10   N2    A    
C11   N1    A    
H17   N8    S    
C38   C44   A    
Cu1   Cu2   S    
C2    C43   A    
C7    C18   A    
C4    H4    S    
Cu1   O5    S    
C40   H23   S    
C17   O8    A    
C23   H21   S    
C43   C45   A    
H15   N7    S    
C26   N8    S    
C5    C44   A    
C13   C15   A    
C28   N6    S    
C17   C31   S    
C22   H18   S    
C11   H12   S    
C7    C9    A    
H11   N6    S    
C1    O1    A    
C30   C33   S    
C27   C32   S    
C12   O4    A    
C28   C31   S    
C9    F2    S    
C6    F8    S    
C3    C5    A    
C24   H19   S    
H9    N5    S    
C16   C32   S    
C29   C35   S    
H7    N4    S    
C28   C30   S    
C2    C3    A    
C7    F3    S    
C29   C31   S    
C30   C32   S    
C38   H24   S    
C30   N4    S    
C15   C21   A    
C20   C21   A    
C8    C10   A    
C23   C36   A    
C34   H20   S    
C17   O6    A    
C10   F1    S    
H13   N6    S    
C1    C36   S    
C9    N1    A    
C3    H3    S    
