data_mof_unit_19347.cif
_audit_creation_date              2013-03-05T16:43:53-0500
_audit_creation_method            fapswitch 2.2
_symmetry_space_group_name_H-M    P1
_symmetry_Int_Tables_number       1
_space_group_crystal_system       triclinic
_cell_length_a                    9.851318
_cell_length_b                    10.660296
_cell_length_c                    16.737844
_cell_angle_alpha                 90.836074
_cell_angle_beta                  85.791734
_cell_angle_gamma                 89.452068
_cell_volume                      1752.74889387

loop_
_atom_site_label
_atom_site_type_symbol
_atom_site_description
_atom_site_fract_x
_atom_site_fract_y
_atom_site_fract_z
_atom_type_partial_charge
O1    O     O_R   0.385310 0.683210 0.499990 -0.597544
O2    O     O_R   0.614650 0.683240 0.500000 -0.553513
C1    C     C_R   0.500125 0.739739 0.494609 0.979390
O3    O     O_R   0.371780 0.500000 0.615800 -0.630380
O4    O     O_R   0.601120 0.500040 0.615800 -0.618518
C2    C     C_R   0.482217 0.490918 0.652843 0.866848
Zn1   Zn    Zn3+2 0.346870 0.499980 0.499990 1.017891
Zn2   Zn    Zn3+2 0.653130 0.500020 0.500010 1.025098
O5    O     O_R   0.385350 0.316760 0.500000 -0.586720
O6    O     O_R   0.614690 0.316790 0.500010 -0.587808
O7    O     O_R   0.398880 0.499960 0.384200 -0.563655
O8    O     O_R   0.628220 0.500000 0.384200 -0.604502
C3    C     C_R   0.500968 0.259874 0.496357 0.918498
C4    C     C_R   0.518001 0.503538 0.346883 0.936920
C5    C     C_R   0.475536 0.449925 0.735790 -0.019627
C6    C     C_R   0.595085 0.406056 0.767371 -0.119414
C7    C     C_R   0.592111 0.365837 0.845552 -0.229674
C8    C     C_R   0.470021 0.370510 0.893430 0.028241
C9    C     C_R   0.348430 0.404747 0.860927 -0.111936
C10   C     C_R   0.350923 0.442817 0.781679 -0.221962
C11   C     C_R   0.437596 0.572038 0.135257 0.257371
C12   C     C_R   0.428158 0.573141 0.219482 0.405509
C13   C     C_R   0.635995 0.446135 0.217462 -0.270708
C14   C     C_R   0.640109 0.437965 0.134903 -0.163648
C15   C     C_R   0.539925 0.497680 0.094209 0.042708
C16   C     C_2   0.477163 0.374510 0.980409 0.518835
C17   C     C_2   0.539867 0.475010 0.008933 -0.219270
C18   C     C_R   0.527968 0.509078 0.260076 -0.154454
H1    H     H_    0.691718 0.404203 0.732268 0.149005
H2    H     H_    0.714061 0.398618 0.248208 0.166187
H3    H     H_    0.586655 0.544718 0.969150 0.145294
H4    H     H_    0.253811 0.409755 0.898198 0.168181
H5    H     H_    0.256576 0.469701 0.757364 0.137929
H6    H     H_    0.686577 0.340106 0.870719 0.136826
H7    H     H_    0.720022 0.382970 0.102614 0.162519
C19   C     C_R   0.378818 0.937525 0.494681 0.070755
C20   C     C_R   0.499208 0.870305 0.477241 -0.287834
C21   C     C_R   0.615529 0.932309 0.443045 0.219700
C22   C     C_R   0.615369 0.063918 0.444540 0.424258
C23   C     C_R   0.501222 0.128243 0.481575 -0.263721
C24   C     C_R   0.380270 0.064878 0.497337 0.072040
C25   C     C_3   0.279182 0.073520 0.568164 -0.460975
C26   C     C_3   0.276577 0.931582 0.565001 -0.325545
H8    H     H_    0.323353 0.112027 0.622562 0.196427
H9    H     H_    0.181712 0.117826 0.553535 0.220613
H10   H     H_    0.318331 0.887399 0.617894 0.214655
H11   H     H_    0.177770 0.894576 0.547489 0.270565
C27   C     C_R   0.922241 0.588629 0.542744 0.140668
N1    N     N_R   0.857140 0.500860 0.500530 -0.140642
C28   C     C_R   0.934386 0.420022 0.451670 -0.247449
H12   H     H_    0.882169 0.357371 0.413324 0.188653
C29   C     C_R   0.080329 0.417223 0.452473 0.516922
N2    N     N_R   0.142780 0.500820 0.500530 -0.168693
C30   C     C_R   0.064831 0.588835 0.542995 0.071987
C31   C     C_3   0.058835 0.610103 0.631822 0.235229
C32   C     C_3   0.903732 0.609996 0.630987 0.032531
H13   H     H_    0.102136 0.528969 0.663010 0.051350
H14   H     H_    0.856040 0.529934 0.663704 0.061190
N3    N     N_R   0.732223 0.864121 0.407971 0.238994
O9    O     O_R   0.716709 0.775242 0.355412 -0.396806
O10   O     O_R   0.854615 0.898960 0.421908 -0.326319
O11   O     O_3   0.727711 0.128210 0.413157 -0.571242
C33   C     C_3   0.709222 0.152086 0.332020 -0.260486
H15   H     H_    0.798763 0.203518 0.306089 0.162191
H16   H     H_    0.617434 0.211876 0.325766 0.137805
H17   H     H_    0.702320 0.063349 0.296724 0.193347
O12   O     O_3   0.164042 0.336464 0.404358 -0.597526
C34   C     C_3   0.101556 0.221567 0.387365 -0.272101
H18   H     H_    0.182374 0.152121 0.368026 0.208438
H19   H     H_    0.035813 0.232461 0.336780 0.164191
H20   H     H_    0.043569 0.182694 0.440870 0.189923
O13   O     O_3   0.326017 0.641005 0.262618 -0.574858
C35   C     C_3   0.202213 0.575411 0.260956 -0.133349
H21   H     H_    0.155613 0.589205 0.203301 0.188163
H22   H     H_    0.129914 0.613815 0.309349 0.192246
H23   H     H_    0.214587 0.473213 0.271810 0.161931
O14   O     O_3   0.112407 0.728290 0.650573 -0.568231
C36   C     C_3   0.127260 0.737813 0.733532 -0.222704
H24   H     H_    0.219692 0.685871 0.748803 0.156148
H25   H     H_    0.035919 0.704518 0.770062 0.170737
H26   H     H_    0.141397 0.837972 0.749441 0.192401
N4    N     N_R   0.836946 0.730736 0.651815 0.267524
O15   O     O_R   0.865602 0.830643 0.610248 -0.321591
O16   O     O_R   0.741372 0.736712 0.709661 -0.406701
N5    N     N_R   0.345105 0.646803 0.092587 0.202188
O17   O     O_R   0.286601 0.600263 0.031737 -0.413088
O18   O     O_R   0.314431 0.760830 0.116778 -0.352245
O19   O     O_3   0.406882 0.293451 0.033144 -0.598741
C37   C     C_3   0.386456 0.175617 0.996776 -0.252589
H27   H     H_    0.483227 0.135517 0.968152 0.160366
H28   H     H_    0.307753 0.182173 0.952701 0.161988
H29   H     H_    0.348564 0.109779 0.043841 0.217391

loop_
_geom_bond_atom_site_label_1
_geom_bond_atom_site_label_2
_geom_bond_distance
_ccdc_geom_bond_type
C31   C32   1.529077 S    
C33   H16   1.113400 S    
C35   H21   1.109737 S    
C9    C10   1.391357 A    
C8    C16   1.462697 S    
O14   C36   1.409190 S    
C27   C30   1.405035 A    
C16   C17   1.341025 D    
C20   C21   1.416638 A    
C19   C20   1.390009 A    
O4    C2    1.289691 A    
C31   O14   1.410627 S    
O7    C4    1.289446 A    
C36   H25   1.114099 S    
C5    C6    1.404695 A    
Zn1   O5    1.986068 S    
C8    C9    1.398949 A    
C24   C25   1.492446 S    
O5    C3    1.282298 A    
C3    C23   1.421262 S    
C2    C5    1.458650 S    
N2    C30   1.364504 A    
C34   H18   1.109332 S    
C28   C29   1.438808 A    
C13   C14   1.380934 A    
C37   H28   1.111160 S    
C33   H17   1.113237 S    
N3    O9    1.301218 A    
C12   C18   1.411950 A    
C11   C12   1.405854 A    
C35   H22   1.109527 S    
C19   C24   1.357941 A    
C25   H8    1.112448 S    
O3    Zn1   1.971661 S    
C9    H4    1.083332 S    
C12   O13   1.386125 S    
C28   H12   1.079420 S    
N5    O18   1.301344 A    
C5    C10   1.402778 A    
C11   N5    1.440056 S    
N3    O10   1.301326 A    
C14   H7    1.083979 S    
C17   H3    1.088118 S    
O12   C34   1.410669 S    
C13   H2    1.082179 S    
C14   C15   1.393746 A    
O3    C2    1.294674 A    
C22   C23   1.410494 A    
C36   H24   1.108929 S    
C6    C7    1.381328 A    
C6    H1    1.081222 S    
N5    O17   1.300975 A    
C33   H15   1.107738 S    
O1    C1    1.284633 A    
C25   H9    1.110962 S    
Zn1   O7    1.967969 S    
O11   C33   1.409882 S    
Zn2   O8    1.971661 S    
C7    C8    1.395532 A    
C13   C18   1.397311 A    
C37   H29   1.109276 S    
C29   O12   1.392321 S    
C10   H5    1.079566 S    
Zn2   O6    1.993208 S    
C23   C24   1.385680 A    
O8    C4    1.292272 A    
N1    C28   1.366046 A    
N4    O16   1.300472 A    
C31   H13   1.114143 S    
C35   H23   1.114119 S    
C7    H6    1.083867 S    
Zn1   N2    2.009846 S    
C29   N2    1.371820 A    
C27   C32   1.488798 S    
C22   O11   1.382090 S    
C11   C15   1.408466 A    
C30   C31   1.497469 S    
C27   N1    1.358183 A    
O1    Zn1   1.993207 S    
O2    Zn2   1.986067 S    
O13   C35   1.413496 S    
O6    C3    1.284110 A    
O4    Zn2   1.967969 S    
C32   N4    1.465653 S    
C15   C17   1.444217 S    
O2    C1    1.283476 A    
C36   H26   1.109197 S    
C21   C22   1.402836 A    
C34   H20   1.113716 S    
C32   H14   1.110238 S    
C26   H10   1.112085 S    
C21   N3    1.437741 S    
O19   C37   1.410470 S    
C1    C20   1.426137 S    
C16   O19   1.396128 S    
N4    O15   1.302539 A    
C25   C26   1.513779 S    
C34   H19   1.109836 S    
C19   C26   1.494401 S    
C4    C18   1.451174 S    
C37   H27   1.113684 S    
C26   H11   1.111236 S    
Zn2   N1    2.010530 S    
