data_mof_unit_48575.cif
_audit_creation_date              2012-12-10T16:54:07-0500
_audit_creation_method            fapswitch 2.2
_symmetry_space_group_name_H-M    P1
_symmetry_Int_Tables_number       1
_space_group_crystal_system       triclinic
_cell_length_a                    9.784732
_cell_length_b                    10.962623
_cell_length_c                    13.332159
_cell_angle_alpha                 90.247087
_cell_angle_beta                  73.959492
_cell_angle_gamma                 90.018023
_cell_volume                      1374.40002713

loop_
_atom_site_label
_atom_site_type_symbol
_atom_type_description
_atom_site_fract_x
_atom_site_fract_y
_atom_site_fract_z
_atom_type_partial_charge
C1    C     C_R   0.498417 0.733854 0.503641 0.873101
C2    C     C_R   0.447104 0.585236 0.974436 -0.035522
C3    C     C_R   0.490113 0.579760 0.864311 -0.011178
C4    C     C_R   0.550551 0.551571 0.027235 -0.005745
C5    C     C_R   0.693744 0.529346 0.968037 0.018141
C6    C     C_R   0.737666 0.571018 0.864183 0.016275
C7    C     C_R   0.633649 0.604828 0.814614 0.396678
C8    C     C_R   0.514477 0.528744 0.134651 -0.251284
C9    C     C_R   0.752429 0.457443 0.124087 0.130645
C10   C     C_R   0.387058 0.561733 0.808716 -0.121496
C11   C     C_2   0.611357 0.063608 0.495419 0.164401
C12   C     C_R   0.425696 0.518351 0.698245 0.835361
C13   C     C_2   0.506188 0.134733 0.481951 -0.318117
C14   C     C_2   0.605567 0.932332 0.478051 -0.256487
C15   C     C_2   0.490316 0.863938 0.521126 0.034030
C16   C     C_2   0.090546 0.585969 0.462751 0.594919
C17   C     C_2   0.929120 0.596778 0.492567 0.291934
C18   C     C_R   0.501461 0.265838 0.496751 0.851696
C19   C     C_R   0.575611 0.495864 0.299961 0.780497
C20   C     C_R   0.788042 0.468878 0.015602 0.228548
C21   C     C_R   0.616902 0.495185 0.184865 -0.146219
C22   C     C_R   0.245115 0.588080 0.859743 -0.238468
C23   C     C_R   0.205635 0.627412 0.963463 0.214931
C24   C     C_R   0.304665 0.625076 0.022786 0.140804
Cu1   Cu    Cu3+1 0.361370 0.499980 0.499980 1.013628
Cu2   Cu    Cu3+1 0.638630 0.500020 0.500020 1.015190
H1    H     H_    0.421329 0.095506 0.454457 0.131261
H2    H     H_    0.701991 0.889811 0.430444 0.146241
H3    H     H_    0.406062 0.534062 0.180880 0.192936
H4    H     H_    0.166135 0.586046 0.816803 0.192510
N1    N     N_2   0.152660 0.501340 0.501130 -0.010742
N2    N     N_2   0.846520 0.501370 0.501160 0.020033
O1    O     O_R   0.382960 0.678040 0.499980 -0.536131
O2    O     O_R   0.617100 0.678080 0.500020 -0.557636
O3    O     O_R   0.325800 0.499940 0.650950 -0.611035
O4    O     O_R   0.559930 0.499980 0.650990 -0.517372
O5    O     O_R   0.382900 0.321920 0.499980 -0.600908
O6    O     O_R   0.617040 0.321960 0.500020 -0.558164
O7    O     O_R   0.440070 0.500020 0.349010 -0.554591
O8    O     O_R   0.674200 0.500060 0.349050 -0.620006
N3    N     N_3   0.853376 0.400733 0.169432 -0.558451
H5    H     H_    0.891563 0.465636 0.212540 0.232270
H6    H     H_    0.803425 0.329950 0.218288 0.221549
N4    N     N_3   0.363657 0.910817 0.593927 -0.586225
H7    H     H_    0.300028 0.954302 0.553769 0.226644
H8    H     H_    0.390355 0.971018 0.646559 0.240390
O9    O     O_3   0.175458 0.669516 0.396853 -0.754693
H9    H     H_    0.114856 0.720452 0.365508 0.278658
O10   O     O_3   0.068624 0.436953 0.579914 -0.645201
H10   H     H_    0.133382 0.383398 0.604912 0.371930
N5    N     N_3   0.868831 0.716290 0.511234 -0.558054
H11   H     H_    0.889327 0.761349 0.439827 0.174108
H12   H     H_    0.921289 0.764115 0.557596 0.181081
O11   O     O_3   0.916787 0.401212 0.455428 -0.624961
H13   H     H_    0.852320 0.357937 0.422406 0.367397
N6    N     N_3   0.885908 0.583375 0.811387 -0.619890
H14   H     H_    0.905193 0.544967 0.736996 0.272877
H15   H     H_    0.912304 0.675923 0.804635 0.221240
N7    N     N_3   0.912116 0.405238 0.955589 -0.550122
H16   H     H_    0.887340 0.357060 0.895052 0.233404
H17   H     H_    0.992820 0.467243 0.924885 0.263324
N8    N     N_3   0.264024 0.685410 0.122487 -0.619879
H18   H     H_    0.210170 0.623980 0.179489 0.226579
H19   H     H_    0.351599 0.724491 0.140812 0.245397
N9    N     N_3   0.063955 0.671984 0.007359 -0.589849
H20   H     H_    0.070047 0.763027 0.029355 0.243675
H21   H     H_    0.017358 0.621857 0.074604 0.229755
O12   O     O_3   0.665729 0.673703 0.724626 -0.696982
H22   H     H_    0.758184 0.714370 0.715988 0.319403
N10   N     N_3   0.731838 0.112891 0.523297 -0.524414
H23   H     H_    0.737856 0.070204 0.591919 0.229444
H24   H     H_    0.823349 0.089489 0.464468 0.216938

loop_
_geom_bond_atom_site_label_1
_geom_bond_atom_site_label_2
_ccdc_geom_bond_type
Cu1   N1    S    
C24   N8    S    
C23   C24   A    
Cu2   N2    S    
C6    C7    A    
C1    C15   S    
C12   O4    A    
C11   C13   D    
N3    H5    S    
Cu1   O7    S    
C9    C20   A    
C9    N3    S    
O9    H9    S    
C14   C15   D    
N8    H19   S    
C4    C8    A    
Cu1   Cu2   S    
C9    C21   A    
C17   N5    S    
Cu1   O1    S    
C2    C3    A    
C18   O6    A    
C11   N10   S    
C1    O1    A    
N7    H16   S    
C3    C10   A    
C10   C22   A    
C16   N1    D    
N3    H6    S    
Cu2   O8    S    
N8    H18   S    
C19   O7    A    
C13   C18   S    
N1    O10   S    
C5    C6    A    
C8    H3    S    
C10   C12   S    
C16   O9    S    
N2    O11   S    
C19   C21   S    
C18   O5    A    
N6    H15   S    
C1    O2    A    
C8    C21   A    
C3    C7    A    
N9    H20   S    
C2    C24   A    
C23   N9    S    
C11   C14   S    
C12   O3    A    
N7    H17   S    
Cu2   O2    S    
Cu1   O3    S    
C19   O8    A    
N5    H12   S    
N5    H11   S    
C2    C4    A    
N10   H23   S    
N6    H14   S    
O10   H10   S    
Cu2   O4    S    
C5    C20   A    
C17   N2    D    
C15   N4    S    
C22   C23   A    
C13   H1    S    
N10   H24   S    
C22   H4    S    
C14   H2    S    
C7    O12   S    
O11   H13   S    
C20   N7    S    
O12   H22   S    
N4    H8    S    
Cu2   O6    S    
N4    H7    S    
C16   C17   S    
C6    N6    S    
C4    C5    A    
N9    H21   S    
Cu1   O5    S    
