data_mof_unit_62146.cif
_audit_creation_date              2012-12-10T19:00:41-0500
_audit_creation_method            fapswitch 2.2
_symmetry_space_group_name_H-M    P1
_symmetry_Int_Tables_number       1
_space_group_crystal_system       triclinic
_cell_length_a                    36.91285
_cell_length_b                    30.275797
_cell_length_c                    21.285439
_cell_angle_alpha                 89.993564
_cell_angle_beta                  55.105125
_cell_angle_gamma                 90.00389
_cell_volume                      19510.8929327

loop_
_atom_site_label
_atom_site_type_symbol
_atom_type_description
_atom_site_fract_x
_atom_site_fract_y
_atom_site_fract_z
_atom_type_partial_charge
C1    C     C_R   0.913844 0.499990 0.087070 0.909347
C2    C     C_3   0.962910 0.480041 0.766162 -0.220461
C3    C     C_R   0.510769 0.657603 0.434836 -0.193326
C4    C     C_R   0.987694 0.157331 0.566559 -0.192582
C5    C     C_R   0.012286 0.157338 0.433430 -0.192988
C6    C     C_R   0.499999 0.413683 0.500003 0.870089
C7    C     C_R   0.000001 0.913682 0.500002 0.870087
C8    C     C_R   0.038011 0.703077 0.480654 -0.180123
C9    C     C_R   0.962013 0.703073 0.519346 -0.180089
C10   C     C_R   0.538026 0.203081 0.480529 -0.180363
C11   C     C_R   0.461996 0.203074 0.519389 -0.180412
C12   C     C_R   0.038117 0.657279 0.480172 -0.195462
C13   C     C_3   0.537114 0.980085 0.233821 -0.220609
C14   C     C_R   0.961902 0.657276 0.519822 -0.195430
C15   C     C_R   0.538134 0.157284 0.480046 -0.195372
C16   C     C_R   0.461887 0.157277 0.519865 -0.196336
C17   C     C_R   0.000008 0.634220 0.499995 -0.026195
C18   C     C_R   0.500009 0.134222 0.499961 -0.024595
C19   C     C_R   0.488653 0.702963 0.566941 -0.179114
C20   C     C_R   0.511063 0.703402 0.435098 -0.178429
C21   C     C_R   0.987428 0.203125 0.566664 -0.178277
C22   C     C_R   0.012537 0.203132 0.433323 -0.178312
C23   C     C_R   0.000013 0.725987 0.500001 0.111683
C24   C     C_3   0.463238 0.020444 0.765988 -0.221702
C25   C     C_R   0.500011 0.225989 0.499965 0.111863
C26   C     C_R   0.487390 0.296849 0.458316 -0.178988
C27   C     C_R   0.512620 0.296838 0.541655 -0.179209
C28   C     C_R   0.987434 0.796842 0.458275 -0.178879
C29   C     C_R   0.012592 0.796842 0.541720 -0.178911
C30   C     C_R   0.487645 0.342647 0.457920 -0.193104
C31   C     C_R   0.512355 0.342636 0.542078 -0.193199
C32   C     C_R   0.987688 0.842640 0.457871 -0.192718
C33   C     C_R   0.012327 0.842640 0.542132 -0.193176
C34   C     C_R   0.499998 0.365706 0.500004 -0.030305
C35   C     C_3   0.035466 0.522161 0.194262 -0.126256
C36   C     C_R   0.000004 0.865705 0.500004 -0.030473
C37   C     C_R   0.499929 0.726098 0.501182 0.113915
C38   C     C_R   0.999979 0.226033 0.499993 0.112609
C39   C     C_R   0.037999 0.296875 0.443993 -0.179872
C40   C     C_R   0.961966 0.296864 0.555986 -0.179840
C41   C     C_R   0.537467 0.796910 0.443510 -0.179027
C42   C     C_R   0.462794 0.797014 0.559466 -0.187230
C43   C     C_3   0.962622 0.519465 0.266038 -0.256307
C44   C     C_3   0.037360 0.519521 0.733974 -0.256384
C45   C     C_3   0.462622 0.019456 0.266035 -0.256204
C46   C     C_3   0.964513 0.522128 0.805749 -0.126233
C47   C     C_3   0.537662 0.980494 0.733234 -0.249758
C48   C     C_3   0.998146 0.541576 0.272651 -0.206972
C49   C     C_3   0.001816 0.541586 0.727370 -0.206970
C50   C     C_3   0.498139 0.041573 0.272659 -0.206483
C51   C     C_3   0.536091 0.022712 0.693754 -0.218699
C52   C     C_3   0.999755 0.499474 0.311015 -0.035114
C53   C     C_3   0.000245 0.499480 0.688984 -0.035123
C54   C     C_3   0.499756 0.999471 0.311014 -0.034825
C55   C     C_3   0.500320 0.000861 0.688854 -0.035311
C56   C     C_3   0.965109 0.477545 0.304018 0.531644
C57   C     C_3   0.535465 0.022169 0.194265 -0.126331
C58   C     C_3   0.034911 0.477596 0.695972 0.531628
C59   C     C_3   0.465116 0.977535 0.304005 0.531160
C60   C     C_3   0.501584 0.959492 0.728035 0.538465
C61   C     C_3   0.902321 0.438187 0.342321 0.124794
C62   C     C_3   0.863488 0.412861 0.408296 -0.815866
C63   C     C_3   0.097739 0.438325 0.657657 0.124871
C64   C     C_3   0.136581 0.413021 0.591692 -0.815897
C65   C     C_3   0.402341 0.938163 0.342268 0.124543
C66   C     C_3   0.363510 0.912826 0.408224 -0.815744
C67   C     C_3   0.504169 0.884709 0.744721 0.099928
C68   C     C_3   0.499003 0.042330 0.772008 -0.135973
C69   C     C_3   0.505508 0.839396 0.712582 -0.818526
C70   C     C_3   0.860923 0.395110 0.189848 0.120917
C71   C     C_3   0.892334 0.364329 0.193204 -0.840056
C72   C     C_3   0.139065 0.395141 0.810147 0.120876
C73   C     C_3   0.107657 0.364357 0.806779 -0.839999
C74   C     C_3   0.360945 0.895071 0.189668 0.121046
C75   C     C_3   0.392369 0.864278 0.192966 -0.840878
C76   C     C_3   0.637611 0.900147 0.792232 0.124529
C77   C     C_3   0.604790 0.873806 0.785737 -0.839062
C78   C     C_3   0.000055 0.499782 0.189029 -0.036419
C79   C     C_3   0.999943 0.499794 0.810972 -0.036418
C80   C     C_3   0.500061 0.999783 0.189022 -0.036099
C81   C     C_R   0.086156 0.499996 0.912929 0.909337
C82   C     C_3   0.500266 0.000088 0.810526 -0.040214
C83   C     C_R   0.797412 0.532386 0.170225 -0.174786
C84   C     C_R   0.202593 0.532416 0.829756 -0.174786
C85   C     C_R   0.297407 0.032399 0.170279 -0.175075
C86   C     C_R   0.702631 0.028774 0.834890 -0.171467
C87   C     C_R   0.843142 0.532189 0.124884 -0.274253
C88   C     C_R   0.156863 0.532209 0.875100 -0.274258
C89   C     C_R   0.343137 0.032209 0.124942 -0.273242
C90   C     C_R   0.656894 0.029039 0.880156 -0.277579
C91   C     C_R   0.866037 0.499937 0.136177 -0.123849
C92   C     C_R   0.413844 0.999989 0.087068 0.910281
C93   C     C_R   0.133962 0.499958 0.863814 -0.123859
C94   C     C_R   0.366036 0.999933 0.136178 -0.125358
C95   C     C_R   0.633810 0.999923 0.864079 -0.118158
C96   C     C_R   0.843114 0.467694 0.193644 0.460280
C97   C     C_R   0.156881 0.467727 0.806346 0.460270
C98   C     C_R   0.343115 0.967659 0.193591 0.460177
C99   C     C_R   0.656347 0.970505 0.801975 0.465323
C100  C     C_R   0.797058 0.468946 0.240476 -0.289752
C101  C     C_R   0.202937 0.468989 0.759511 -0.289763
C102  C     C_R   0.297059 0.968902 0.240419 -0.289839
C103  C     C_R   0.586103 0.000011 0.913138 0.920630
C104  C     C_R   0.702441 0.971189 0.755529 -0.288927
C105  C     C_R   0.774303 0.500787 0.228038 0.052129
C106  C     C_R   0.225697 0.500827 0.771945 0.052120
C107  C     C_R   0.274301 0.000768 0.228034 0.052020
C108  C     C_R   0.725516 0.999827 0.772585 0.051566
C109  C     C_R   0.000154 0.499978 0.121482 0.894757
C110  C     C_R   0.999845 0.499982 0.878519 0.894749
C111  C     C_R   0.500157 0.999978 0.121478 0.894489
C112  C     C_R   0.500097 0.000020 0.878228 0.908149
C113  C     C_R   0.703202 0.498329 0.355314 -0.177110
C114  C     C_3   0.001900 0.457450 0.227088 -0.272023
C115  C     C_R   0.296800 0.498375 0.644674 -0.177111
C116  C     C_R   0.203202 0.998272 0.355308 -0.177092
C117  C     C_R   0.796662 0.000780 0.644996 -0.175668
C118  C     C_R   0.657428 0.498067 0.400544 -0.198216
C119  C     C_R   0.342573 0.498098 0.599450 -0.198170
C120  C     C_R   0.157428 0.998018 0.400539 -0.198104
C121  C     C_R   0.842454 0.000824 0.599632 -0.198105
C122  C     C_R   0.634408 0.500396 0.366292 -0.032982
C123  C     C_R   0.365592 0.500412 0.633705 -0.032889
C124  C     C_R   0.134408 0.000389 0.366291 -0.032950
C125  C     C_3   0.998137 0.457458 0.772891 -0.271967
C126  C     C_R   0.865545 0.999944 0.633837 -0.033599
C127  C     C_R   0.657628 0.503163 0.286393 -0.196387
C128  C     C_R   0.342371 0.503180 0.713602 -0.196468
C129  C     C_R   0.157626 0.003188 0.286396 -0.196466
C130  C     C_R   0.842363 0.999012 0.713851 -0.195845
C131  C     C_R   0.703412 0.503540 0.241229 -0.184288
C132  C     C_R   0.296587 0.503570 0.758761 -0.184311
C133  C     C_R   0.203410 0.003559 0.241231 -0.184298
C134  C     C_R   0.796572 0.998961 0.759154 -0.184611
C135  C     C_R   0.726277 0.501027 0.275588 0.143053
C136  C     C_3   0.501914 0.957450 0.227071 -0.272087
C137  C     C_R   0.273723 0.501070 0.724399 0.143073
C138  C     C_R   0.226276 0.001005 0.275585 0.143030
C139  C     C_R   0.773604 0.999842 0.724863 0.142958
C140  C     C_R   0.999990 0.365720 0.499997 -0.021494
C141  C     C_R   0.500066 0.865780 0.500899 -0.015336
C142  C     C_R   0.999980 0.273965 0.499989 0.111043
C143  C     C_R   0.500086 0.774045 0.501480 0.111716
C144  C     C_R   0.500008 0.273932 0.499977 0.111793
C145  C     C_R   0.000015 0.773930 0.499997 0.111678
C146  C     C_R   0.000003 0.586256 0.499997 0.850404
C147  C     C_3   0.464227 0.978218 0.805973 -0.269242
C148  C     C_R   0.500003 0.086257 0.499982 0.849808
C149  C     C_R   0.038112 0.342667 0.444257 -0.187834
C150  C     C_R   0.961862 0.342657 0.555731 -0.187810
C151  C     C_R   0.537577 0.842692 0.443474 -0.194704
C152  C     C_R   0.462668 0.842810 0.558931 -0.172298
C153  C     C_R   0.999887 0.499518 0.378437 0.893583
C154  C     C_R   0.000113 0.499520 0.621563 0.893545
C155  C     C_R   0.499887 0.999515 0.378437 0.893125
C156  C     C_R   0.500109 0.000391 0.621542 0.921482
C157  C     C_R   0.999997 0.413681 0.500001 0.870040
C158  C     C_3   0.037107 0.480078 0.233827 -0.220488
C159  C     C_R   0.500006 0.913702 0.500273 0.893671
C160  C     C_R   0.499805 0.634312 0.500449 -0.030525
C161  C     C_R   0.999994 0.134274 0.499995 -0.029971
C162  C     C_R   0.499939 0.586319 0.500089 0.870739
C163  C     C_R   0.999999 0.086305 0.499997 0.870607
C164  C     C_R   0.586358 0.500069 0.413817 0.871980
C165  C     C_R   0.413642 0.500071 0.586183 0.871725
C166  C     C_R   0.086358 0.000068 0.413817 0.871681
C167  C     C_R   0.913626 0.999985 0.586207 0.871585
C168  C     C_R   0.488817 0.657175 0.566475 -0.192243
H1    H     H_    0.996894 0.575675 0.292988 0.143290
H2    H     H_    0.359848 0.496025 0.537854 0.156912
H3    H     H_    0.475652 0.834494 0.712671 0.255845
H4    H     H_    0.869074 0.393702 0.130686 0.140735
H5    H     H_    0.826638 0.382964 0.231299 0.128379
H6    H     H_    0.883867 0.363328 0.252329 0.244467
H7    H     H_    0.889610 0.330442 0.176336 0.201088
H8    H     H_    0.926895 0.376045 0.153411 0.261880
H9    H     H_    0.130908 0.393722 0.869313 0.140739
H10   H     H_    0.173350 0.383006 0.768703 0.128397
H11   H     H_    0.116132 0.363366 0.747648 0.244486
H12   H     H_    0.110376 0.330468 0.823654 0.201116
H13   H     H_    0.140154 0.995915 0.462133 0.156971
H14   H     H_    0.073096 0.376064 0.846561 0.261876
H15   H     H_    0.369097 0.893705 0.130503 0.139153
H16   H     H_    0.326664 0.882905 0.231096 0.128480
H17   H     H_    0.383919 0.863259 0.252080 0.244730
H18   H     H_    0.389641 0.830398 0.176076 0.200682
H19   H     H_    0.426926 0.876000 0.153163 0.261830
H20   H     H_    0.630503 0.893676 0.849885 0.137266
H21   H     H_    0.671460 0.888360 0.747188 0.129909
H22   H     H_    0.611454 0.878814 0.728305 0.249443
H23   H     H_    0.607857 0.838101 0.793793 0.199878
H24   H     H_    0.859688 0.001678 0.537964 0.157196
H25   H     H_    0.570565 0.884741 0.830296 0.259337
H26   H     H_    0.721003 0.505223 0.179516 0.130370
H27   H     H_    0.278994 0.505251 0.820474 0.130329
H28   H     H_    0.221001 0.005271 0.179520 0.130548
H29   H     H_    0.779065 0.997782 0.820882 0.129963
H30   H     H_    0.067792 0.359979 0.400615 0.153295
H31   H     H_    0.932186 0.359962 0.599375 0.153327
H32   H     H_    0.566704 0.859983 0.398173 0.151786
H33   H     H_    0.003037 0.575686 0.707049 0.143278
H34   H     H_    0.433557 0.860206 0.604021 0.155889
H35   H     H_    0.480239 0.720362 0.618131 0.132160
H36   H     H_    0.519547 0.721159 0.384161 0.131863
H37   H     H_    0.977904 0.220711 0.618322 0.132139
H38   H     H_    0.022057 0.220724 0.381663 0.132069
H39   H     H_    0.480101 0.639723 0.617784 0.153378
H40   H     H_    0.519461 0.640481 0.383279 0.153169
H41   H     H_    0.977948 0.140019 0.618555 0.152958
H42   H     H_    0.022037 0.140032 0.381435 0.152758
H43   H     H_    0.067775 0.639963 0.465009 0.154394
H44   H     H_    0.496879 0.075672 0.293006 0.143282
H45   H     H_    0.932242 0.639958 0.534984 0.154429
H46   H     H_    0.567806 0.139971 0.464816 0.152847
H47   H     H_    0.432215 0.139958 0.535095 0.154199
H48   H     H_    0.932368 0.535343 0.277124 0.139067
H49   H     H_    0.067598 0.535437 0.722898 0.139056
H50   H     H_    0.432365 0.035328 0.277122 0.139007
H51   H     H_    0.567671 0.964055 0.722237 0.166653
H52   H     H_    0.067599 0.279291 0.400751 0.132761
H53   H     H_    0.932362 0.279272 0.599228 0.132854
H54   H     H_    0.566551 0.779299 0.398786 0.132824
H55   H     H_    0.565018 0.041070 0.646458 0.158831
H56   H     H_    0.433697 0.779481 0.604351 0.133028
H57   H     H_    0.477823 0.279268 0.425611 0.132208
H58   H     H_    0.522191 0.279247 0.574349 0.131923
H59   H     H_    0.977896 0.779256 0.425533 0.132298
H60   H     H_    0.022134 0.779256 0.574461 0.132217
H61   H     H_    0.477848 0.359959 0.425339 0.152959
H62   H     H_    0.522149 0.359941 0.574666 0.152863
H63   H     H_    0.977920 0.859947 0.425245 0.153218
H64   H     H_    0.022092 0.859949 0.574760 0.152987
H65   H     H_    0.003304 0.423185 0.207226 0.150882
H66   H     H_    0.779067 0.445084 0.286317 0.138502
H67   H     H_    0.996764 0.423191 0.792734 0.150917
H68   H     H_    0.503327 0.923186 0.207199 0.150911
H69   H     H_    0.435244 0.959942 0.853312 0.133544
H70   H     H_    0.067466 0.464274 0.222426 0.157638
H71   H     H_    0.932566 0.464199 0.777553 0.157645
H72   H     H_    0.567476 0.964287 0.222418 0.157584
H73   H     H_    0.433238 0.036997 0.777179 0.157983
H74   H     H_    0.064390 0.540483 0.146884 0.133674
H75   H     H_    0.935572 0.540415 0.853136 0.133656
H76   H     H_    0.564387 0.040496 0.146890 0.133123
H77   H     H_    0.220923 0.445135 0.713673 0.138511
H78   H     H_    0.497923 0.076524 0.791849 0.152850
H79   H     H_    0.780042 0.557465 0.160853 0.142753
H80   H     H_    0.219967 0.557493 0.839125 0.142761
H81   H     H_    0.280034 0.057498 0.160951 0.142889
H82   H     H_    0.720175 0.051512 0.847847 0.142355
H83   H     H_    0.860682 0.556872 0.080328 0.166449
H84   H     H_    0.139326 0.556883 0.919655 0.166453
H85   H     H_    0.360673 0.056918 0.080435 0.168065
H86   H     H_    0.639474 0.051569 0.928276 0.162021
H87   H     H_    0.720611 0.496784 0.382461 0.135129
H88   H     H_    0.279071 0.945016 0.286219 0.138559
H89   H     H_    0.279393 0.496840 0.617524 0.135135
H90   H     H_    0.220612 0.996696 0.382450 0.135185
H91   H     H_    0.779242 0.001972 0.617853 0.136046
H92   H     H_    0.640503 0.505002 0.258786 0.156177
H93   H     H_    0.359496 0.505008 0.741211 0.156113
H94   H     H_    0.140500 0.005060 0.258794 0.156217
H95   H     H_    0.859522 0.998204 0.741458 0.156390
H96   H     H_    0.067602 0.720664 0.465232 0.132770
H97   H     H_    0.932424 0.720657 0.534770 0.132865
H98   H     H_    0.567629 0.220670 0.465042 0.132433
H99   H     H_    0.720192 0.949566 0.706215 0.138207
H100  H     H_    0.432394 0.220656 0.534879 0.132729
H101  H     H_    0.921384 0.415237 0.292865 0.147683
H102  H     H_    0.888976 0.465744 0.326596 0.160940
H103  H     H_    0.843535 0.434933 0.458606 0.255849
H104  H     H_    0.842228 0.400221 0.390855 0.211852
H105  H     H_    0.875626 0.384499 0.424492 0.253482
H106  H     H_    0.078694 0.415373 0.707131 0.147774
H107  H     H_    0.111072 0.465909 0.673352 0.160877
H108  H     H_    0.156518 0.435096 0.541365 0.255823
H109  H     H_    0.157853 0.400417 0.609130 0.211921
H110  H     H_    0.640154 0.495993 0.462141 0.156884
H111  H     H_    0.124454 0.384636 0.575523 0.253469
H112  H     H_    0.421414 0.915219 0.292805 0.147715
H113  H     H_    0.388995 0.965719 0.326545 0.161035
H114  H     H_    0.343542 0.934892 0.458538 0.255959
H115  H     H_    0.342264 0.900179 0.390758 0.211936
H116  H     H_    0.375650 0.884468 0.424425 0.253377
H117  H     H_    0.474213 0.886411 0.804678 0.137435
H118  H     H_    0.534242 0.888375 0.744509 0.143133
H119  H     H_    0.535376 0.836451 0.652932 0.262372
H120  H     H_    0.506518 0.813324 0.748251 0.199533
O1    O     O_R   0.934530 0.463050 0.065470 -0.600031
O2    O     O_R   0.434520 0.499990 0.618000 -0.627000
O3    O     O_R   0.065480 0.999990 0.382000 -0.626995
O4    O     O_R   0.934520 0.999990 0.618000 -0.627029
O5    O     O_R   0.500000 0.434520 0.552520 -0.625398
O6    O     O_R   0.500000 0.434520 0.447480 -0.625362
O7    O     O_R   0.000000 0.934520 0.552520 -0.625657
O8    O     O_R   1.000000 0.934520 0.447480 -0.625094
O9    O     O_R   0.934550 0.536970 0.065450 -0.631984
O10   O     O_R   0.065450 0.536970 0.934550 -0.631985
O11   O     O_R   0.434550 0.036970 0.065450 -0.631323
O12   O     O_R   0.065470 0.463050 0.934530 -0.600038
O13   O     O_R   0.565450 0.036970 0.934550 -0.629149
O14   O     O_R   0.000010 0.463050 0.093020 -0.632478
O15   O     O_R   0.999990 0.463050 0.906980 -0.632465
O16   O     O_R   0.500010 0.963050 0.093020 -0.631923
O17   O     O_R   0.499990 0.963050 0.906980 -0.639832
O18   O     O_R   0.000020 0.536970 0.093000 -0.624277
O19   O     O_R   0.999980 0.536970 0.907000 -0.624292
O20   O     O_R   0.500020 0.036970 0.093000 -0.624809
O21   O     O_R   0.499980 0.036970 0.907000 -0.628470
O22   O     O_R   0.036960 0.565440 0.463030 -0.629512
O23   O     O_R   0.434530 0.963050 0.065470 -0.601622
O24   O     O_R   0.963040 0.565440 0.536970 -0.629502
O25   O     O_R   0.536960 0.065440 0.463030 -0.630247
O26   O     O_R   0.463040 0.065440 0.536970 -0.632223
O27   O     O_R   0.036960 0.499960 0.370010 -0.637792
O28   O     O_R   0.963040 0.499960 0.629990 -0.637762
O29   O     O_R   0.536960 0.999960 0.370010 -0.637253
O30   O     O_R   0.463040 0.999960 0.629990 -0.628345
O31   O     O_R   0.963040 0.499940 0.443930 -0.585759
O32   O     O_R   0.036960 0.499940 0.556070 -0.585731
O33   O     O_R   0.463040 0.999940 0.443930 -0.586722
O34   O     O_R   0.565470 0.963050 0.934530 -0.607012
O35   O     O_R   0.536960 0.999940 0.556070 -0.623342
O36   O     O_R   0.036980 0.434490 0.463020 -0.622761
O37   O     O_R   0.963020 0.434490 0.536980 -0.622734
O38   O     O_R   0.536980 0.934490 0.463020 -0.626434
O39   O     O_R   0.463020 0.934490 0.536980 -0.618159
O40   O     O_R   0.500030 0.565470 0.552480 -0.625913
O41   O     O_R   0.499970 0.565470 0.447520 -0.625527
O42   O     O_R   0.000030 0.065470 0.552480 -0.625164
O43   O     O_R   0.999970 0.065470 0.447520 -0.625688
O44   O     O_3   0.928815 0.454410 0.365439 -0.611155
O45   O     O_R   0.565480 0.500000 0.487030 -0.626924
O46   O     O_3   0.071227 0.454502 0.634545 -0.611150
O47   O     O_3   0.428824 0.954389 0.365410 -0.611584
O48   O     O_3   0.502881 0.917290 0.698767 -0.623237
O49   O     O_3   0.865943 0.438311 0.208839 -0.625351
O50   O     O_3   0.134048 0.438346 0.791155 -0.625371
O51   O     O_3   0.365946 0.938255 0.208747 -0.624895
O52   O     O_3   0.633038 0.945370 0.782013 -0.617766
O53   O     O_R   0.434520 0.500000 0.512970 -0.626953
O54   O     O_R   0.065480 0.000000 0.487030 -0.626858
O55   O     O_R   0.934520 1.000000 0.512970 -0.626722
O56   O     O_R   0.565480 0.499990 0.382000 -0.626842
Zn1   Zn    Zn3+2 0.000000 0.450650 0.000000 0.938239
Zn2   Zn    Zn3+2 0.499990 0.500000 0.429890 0.940121
Zn3   Zn    Zn3+2 0.000010 0.000000 0.570110 0.940252
Zn4   Zn    Zn3+2 0.999990 0.000000 0.429890 0.940405
Zn5   Zn    Zn3+2 0.500000 0.950650 0.000000 0.932385
Zn6   Zn    Zn3+2 1.000000 0.549370 0.000000 0.946177
Zn7   Zn    Zn3+2 0.500000 0.049370 0.000000 0.946190
Zn8   Zn    Zn3+2 0.049370 0.499970 0.450630 0.967459
Zn9   Zn    Zn3+2 0.950630 0.499970 0.549370 0.967515
Zn10  Zn    Zn3+2 0.549370 0.999970 0.450630 0.948621
Zn11  Zn    Zn3+2 0.450630 0.999970 0.549370 0.975322
Zn12  Zn    Zn3+2 0.500010 0.500000 0.570110 0.939761

loop_
_geom_bond_atom_site_label_1
_geom_bond_atom_site_label_2
_ccdc_geom_bond_type
C87   C91   A    
C150  H31   S    
C100  H66   S    
C57   C80   S    
C121  H24   S    
C82   C147  S    
C90   C95   A    
C5    H42   S    
C28   C145  A    
O36   Zn8   S    
C110  O19   A    
C77   H22   S    
C41   C143  A    
O54   Zn3   S    
C46   C79   S    
C117  H91   S    
C95   C99   A    
C146  O22   A    
C64   H111  S    
C22   C38   A    
C29   C33   A    
C8    C23   A    
O20   Zn7   S    
C89   C94   A    
C66   H114  S    
C77   H25   S    
C19   C37   A    
C91   C96   A    
C67   O48   S    
C51   H55   S    
O11   Zn7   S    
C8    H96   S    
C33   H64   S    
O22   Zn8   S    
C130  H95   S    
C76   H20   S    
C167  O55   A    
C164  O45   A    
O3    Zn4   S    
C1    C91   S    
C164  O56   A    
O15   Zn1   S    
C130  C134  A    
C46   H75   S    
C166  O54   A    
C161  C163  S    
C52   C158  S    
C58   O46   S    
C27   C31   A    
C28   C32   A    
C126  C167  S    
C86   C90   A    
C118  H110  S    
C68   H78   S    
C167  O4    A    
C98   C102  A    
C9    H97   S    
C159  O38   A    
C83   C105  A    
C14   H45   S    
C63   O46   S    
C5    C161  A    
C16   H47   S    
C125  H67   S    
C92   C94   S    
C1    O1    A    
C128  H93   S    
O8    Zn4   S    
C158  H70   S    
C129  C133  A    
C63   H107  S    
C129  H94   S    
C61   H102  S    
C13   C54   S    
O40   Zn12  S    
C70   O49   S    
C109  O14   A    
C45   C59   S    
C154  O32   A    
O10   Zn6   S    
C50   C57   S    
C44   C79   S    
C86   C108  A    
O26   Zn11  S    
C84   C88   A    
C72   C73   S    
C2    C53   S    
C53   C58   S    
C41   C151  A    
C119  C123  A    
C35   C78   S    
C40   H53   S    
C107  C138  S    
C17   C146  S    
C45   C50   S    
C133  H28   S    
C49   C53   S    
C45   C80   S    
C51   C55   S    
C64   H108  S    
C127  C131  A    
C148  O26   A    
C48   H1    S    
C48   C52   S    
C69   H120  S    
C113  C135  A    
C83   H79   S    
C42   C143  A    
C126  C130  A    
C4    C161  A    
C165  O2    A    
C15   C18   A    
C85   H81   S    
C112  O21   A    
C72   H10   S    
O23   Zn5   S    
C33   C36   A    
C87   H83   S    
C32   C36   A    
C57   H76   S    
C99   O52   S    
C2    H71   S    
C74   H16   S    
C11   C25   A    
C162  O41   A    
C59   C136  S    
C122  C164  S    
C71   H8    S    
C22   H38   S    
C118  C122  A    
C122  C127  A    
C141  C159  S    
C21   C38   A    
C115  C137  A    
C156  O30   A    
C11   H100  S    
C163  O42   A    
C41   H54   S    
C105  C135  S    
C160  C168  A    
C79   C125  S    
C50   H44   S    
C110  O15   A    
C45   H50   S    
C14   C17   A    
C42   H56   S    
C43   H48   S    
O7    Zn3   S    
C95   C103  S    
C54   C59   S    
C49   H33   S    
C30   C34   A    
C92   O11   A    
O33   Zn11  S    
C39   C149  A    
C115  H89   S    
C134  C139  A    
C9    C23   A    
C106  C137  S    
C52   C153  S    
O39   Zn11  S    
C4    H41   S    
C116  C120  A    
C160  C162  S    
C56   O44   S    
O2    Zn12  S    
O9    Zn6   S    
C8    C12   A    
C65   H112  S    
C159  O39   A    
C31   C34   A    
C102  C107  A    
O43   Zn4   S    
C10   C25   A    
C166  O3    A    
C26   C30   A    
C115  C119  A    
C25   C144  S    
C93   C97   A    
C101  C106  A    
C10   H98   S    
C151  H32   S    
C12   H43   S    
C24   C147  S    
C108  C139  S    
C7    O8    A    
C155  O33   A    
C149  H30   S    
C71   H6    S    
C88   H84   S    
C84   H80   S    
C68   C82   S    
C81   O10   A    
C20   C37   A    
C136  H68   S    
C78   C109  S    
C102  H88   S    
C66   H115  S    
O19   Zn6   S    
O30   Zn11  S    
C75   H18   S    
C2    C125  S    
C162  O40   A    
C29   H60   S    
O17   Zn5   S    
C140  C149  A    
O38   Zn10  S    
C141  C152  A    
C92   O23   A    
C134  H29   S    
C83   C87   A    
C103  O34   A    
O21   Zn7   S    
C7    C36   S    
C104  H99   S    
C101  H77   S    
C6    O5    A    
O14   Zn1   S    
C117  C139  A    
C43   C78   S    
C46   C49   S    
C50   C54   S    
C30   H61   S    
C1    O9    A    
O41   Zn2   S    
C67   H118  S    
C29   C145  A    
C94   C98   A    
C111  O16   A    
O45   Zn12  S    
C69   H3    S    
C61   H101  S    
C70   H4    S    
C114  C158  S    
C153  O27   A    
C73   H12   S    
C154  O28   A    
C44   C58   S    
C112  O17   A    
C12   C17   A    
C132  H27   S    
C84   C106  A    
C70   C71   S    
C62   H103  S    
C61   C62   S    
C99   C104  A    
C133  C138  A    
C55   C60   S    
C163  O43   A    
C78   C114  S    
O24   Zn9   S    
C35   C48   S    
C28   H59   S    
C165  O53   A    
C114  H65   S    
C147  H69   S    
C77   H23   S    
O32   Zn8   S    
C81   O12   A    
C54   C155  S    
C85   C89   A    
C47   C51   S    
C155  O29   A    
C72   O50   S    
C6    C34   S    
C82   C112  S    
C9    C14   A    
C98   O51   S    
C39   C142  A    
C74   O51   S    
C27   C144  A    
C168  H39   S    
C24   H73   S    
C20   H36   S    
O34   Zn5   S    
O4    Zn3   S    
C69   H119  S    
O28   Zn9   S    
C19   C168  A    
C104  C108  A    
C156  O35   A    
C116  H90   S    
O6    Zn2   S    
C37   C143  S    
C79   C110  S    
C75   H19   S    
C44   H49   S    
O53   Zn2   S    
C131  C135  A    
C80   C136  S    
C132  C137  A    
C35   C158  S    
O31   Zn9   S    
C73   H14   S    
C80   C111  S    
C71   H7    S    
C124  C129  A    
C61   O44   S    
C24   C68   S    
C13   C57   S    
C74   C75   S    
C65   H113  S    
C96   O49   S    
C26   H57   S    
O5    Zn12  S    
C44   C49   S    
C86   H82   S    
C113  H87   S    
C40   C142  A    
O29   Zn10  S    
C2    C46   S    
C24   C55   S    
C23   C145  S    
C100  C105  A    
C3    H40   S    
C18   C148  S    
C10   C15   A    
C31   H62   S    
C96   C100  A    
C11   C16   A    
C47   C82   S    
C21   H37   S    
C117  C121  A    
C60   O48   S    
C76   H21   S    
O35   Zn10  S    
C47   C60   S    
C5    C22   A    
C60   C147  S    
C42   C152  A    
C43   C48   S    
C148  O25   A    
C32   H63   S    
C53   C154  S    
C89   H85   S    
O55   Zn4   S    
C38   C142  S    
C75   H17   S    
C72   H9    S    
C15   H46   S    
C26   C144  A    
C128  C132  A    
C19   H35   S    
C13   H72   S    
C116  C138  A    
C111  O20   A    
O16   Zn5   S    
C40   C150  A    
C39   H52   S    
C3    C20   A    
C76   C77   S    
C153  O31   A    
C7    O7    A    
O18   Zn6   S    
C74   H15   S    
C47   H51   S    
C109  O18   A    
C63   C64   S    
C67   C69   S    
C62   H105  S    
C123  C165  S    
O42   Zn3   S    
C65   O47   S    
O1    Zn1   S    
C140  C157  S    
C81   C93   S    
C63   H106  S    
C146  O24   A    
C64   H109  S    
C76   O52   S    
C66   H116  S    
C58   C125  S    
C124  C166  S    
O56   Zn2   S    
C157  O37   A    
C3    C160  A    
C13   C136  S    
C131  H26   S    
O27   Zn8   S    
O13   Zn7   S    
C140  C150  A    
C141  C151  A    
C120  H13   S    
C88   C93   A    
C55   C156  S    
C152  H34   S    
C6    O6    A    
C27   H58   S    
C157  O36   A    
C121  C126  A    
C67   H117  S    
C4    C21   A    
C123  C128  A    
O25   Zn10  S    
C51   C68   S    
C90   H86   S    
C70   H5    S    
C119  H2    S    
C113  C118  A    
C73   H11   S    
C52   C56   S    
C43   C56   S    
C103  O13   A    
C35   H74   S    
C16   C18   A    
C65   C66   S    
C97   O50   S    
C59   O47   S    
C56   C114  S    
C127  H92   S    
C85   C107  A    
C97   C101  A    
O12   Zn1   S    
C120  C124  A    
C62   H104  S    
O37   Zn9   S    
