data_mof_unit_5911.cif
_audit_creation_date              2012-12-10T17:47:03-0500
_audit_creation_method            fapswitch 2.2
_symmetry_space_group_name_H-M    P1
_symmetry_Int_Tables_number       1
_space_group_crystal_system       triclinic
_cell_length_a                    9.937539
_cell_length_b                    10.631271
_cell_length_c                    13.61478
_cell_angle_alpha                 91.698067
_cell_angle_beta                  82.966704
_cell_angle_gamma                 89.96923
_cell_volume                      1426.92032407

loop_
_atom_site_label
_atom_site_type_symbol
_atom_type_description
_atom_site_fract_x
_atom_site_fract_y
_atom_site_fract_z
_atom_type_partial_charge
Br1   Br    Br    0.300729 0.830070 0.144732 -0.520509
C1    C     C_R   0.500319 0.739248 0.497816 0.853150
C2    C     C_R   0.555615 0.938329 0.566193 -0.187956
C3    C     C_R   0.555790 0.066865 0.565945 -0.188374
C4    C     C_R   0.475625 0.500663 0.685595 0.884498
C5    C     C_R   0.501961 0.127976 0.490609 -0.081568
C6    C     C_R   0.839608 0.667331 0.628318 -0.196317
C7    C     C_R   0.899195 0.748951 0.691865 -0.323686
C8    C     C_R   0.039387 0.747799 0.693145 0.475399
C9    C     C_R   0.118726 0.664434 0.629717 -0.151969
C10   C     C_R   0.061734 0.581501 0.563677 0.073509
C11   C     C_R   0.917465 0.582131 0.563298 0.179944
C12   C     C_1   0.457012 0.503881 0.789539 -0.158263
C13   C     C_R   0.938836 0.421611 0.439290 -0.097175
C14   C     C_R   0.081797 0.421770 0.439211 -0.073189
C15   C     C_R   0.500539 0.260589 0.497136 0.864023
C16   C     C_R   0.524344 0.499835 0.314414 0.862860
C17   C     C_1   0.542733 0.501944 0.210597 -0.156977
C18   C     C_2   0.558181 0.506218 0.018901 -0.156426
C19   C     C_2   0.441231 0.509612 0.981484 -0.113048
C20   C     C_1   0.445017 0.506905 0.877468 0.030306
C21   C     C_1   0.554452 0.504081 0.122793 0.046660
C22   C     C_R   0.406492 0.862149 0.331062 -0.215720
C23   C     C_R   0.360337 0.924536 0.252819 0.335414
C24   C     C_R   0.359756 0.055540 0.252910 -0.167192
C25   C     C_R   0.405699 0.124352 0.330943 -0.249343
C26   C     C_R   0.451810 0.062413 0.411218 0.099563
C27   C     C_R   0.451932 0.930559 0.411362 0.048341
C28   C     C_R   0.501742 0.871303 0.491034 -0.061064
H1    H     H_    0.344191 0.512326 0.028098 0.181975
H2    H     H_    0.406732 0.225744 0.326736 0.155506
H3    H     H_    0.595274 0.119094 0.625744 0.155354
H4    H     H_    0.893687 0.357453 0.389668 0.147979
H5    H     H_    0.032391 0.879722 0.795485 0.342227
H6    H     H_    0.732283 0.674063 0.632677 0.216079
H7    H     H_    0.835371 0.812951 0.740493 0.155777
H8    H     H_    0.224770 0.667038 0.634561 0.219834
H9    H     H_    0.143710 0.357694 0.389520 0.143817
H10   H     H_    0.655186 0.502911 0.972255 0.161721
H11   H     H_    0.594970 0.890865 0.626170 0.142185
H12   H     H_    0.408376 0.760522 0.327183 0.173292
H13   H     H_    0.325134 0.104295 0.191913 0.170552
N1    N     N_R   0.857120 0.501200 0.500900 -0.111896
N2    N     N_R   0.142720 0.501280 0.500940 -0.109323
O1    O     O_R   0.385310 0.683220 0.500000 -0.633111
O2    O     O_R   0.614640 0.683250 0.500010 -0.629189
O3    O     O_R   0.368830 0.499960 0.640340 -0.620791
O4    O     O_R   0.598160 0.499980 0.640350 -0.629075
O5    O     O_R   0.385360 0.316750 0.499990 -0.612094
O6    O     O_R   0.614690 0.316780 0.500000 -0.612110
O7    O     O_R   0.401840 0.500020 0.359650 -0.613963
O8    O     O_R   0.631170 0.500040 0.359660 -0.600487
O9    O     O_3   0.102229 0.826740 0.755526 -0.750497
Zn1   Zn    Zn3+2 0.346870 0.499980 0.499990 0.950630
Zn2   Zn    Zn3+2 0.653130 0.500020 0.500010 0.950713

loop_
_geom_bond_atom_site_label_1
_geom_bond_atom_site_label_2
_ccdc_geom_bond_type
C24   H13   S    
O2    Zn2   S    
O4    Zn2   S    
C10   C11   A    
C14   H9    S    
C9    H8    S    
C8    C9    A    
C4    C12   S    
C18   C19   D    
C22   H12   S    
O8    Zn2   S    
C22   C23   A    
O7    Zn1   S    
C16   O7    A    
C13   H4    S    
C16   C17   S    
C24   C25   A    
C23   C24   A    
C12   C20   T    
C25   H2    S    
C19   H1    S    
C22   C27   A    
C15   O5    A    
C4    O3    A    
C25   C26   A    
C3    H3    S    
C18   H10   S    
Br1   C23   S    
O3    Zn1   S    
O6    Zn2   S    
C16   O8    A    
N1    Zn2   S    
C27   C28   A    
C15   O6    A    
O1    Zn1   S    
C11   N1    A    
C1    C28   S    
C1    O1    A    
C6    C11   A    
C4    O4    A    
C10   N2    A    
C8    O9    S    
C9    C10   A    
C5    C15   S    
O5    Zn1   S    
N2    Zn1   S    
C6    C7    A    
C18   C21   S    
C19   C20   S    
H5    O9    S    
C3    C5    A    
C7    H7    S    
C26   C27   A    
C2    C28   A    
C14   N2    A    
C13   C14   A    
C7    C8    A    
C2    H11   S    
C17   C21   T    
C6    H6    S    
C1    O2    A    
C2    C3    A    
C5    C26   A    
C13   N1    A    
