data_mof_unit_28348.cif
_audit_creation_date              2012-12-11T14:05:39-0500
_audit_creation_method            fapswitch 2.2
_symmetry_space_group_name_H-M    P1
_symmetry_Int_Tables_number       1
_space_group_crystal_system       triclinic
_cell_length_a                    17.806153
_cell_length_b                    17.57773
_cell_length_c                    17.58698
_cell_angle_alpha                 89.924719
_cell_angle_beta                  90.650768
_cell_angle_gamma                 89.114694
_cell_volume                      5503.56143018

loop_
_atom_site_label
_atom_site_type_symbol
_atom_type_description
_atom_site_fract_x
_atom_site_fract_y
_atom_site_fract_z
_atom_type_partial_charge
C1    C     C_R   0.681857 0.776743 0.223131 -0.037784
C2    C     C_R   0.315787 0.779862 0.219687 -0.078567
C3    C     C_R   0.910037 0.817079 0.619622 -0.128721
C4    C     C_R   0.095695 0.385150 0.815133 -0.110290
C5    C     C_R   0.905547 0.616696 0.183805 -0.107013
C6    C     C_R   0.096986 0.815511 0.615887 -0.157447
C7    C     C_R   0.903013 0.184437 0.383989 -0.085232
C8    C     C_R   0.820949 0.903936 0.622012 -0.125789
C9    C     C_R   0.175263 0.089953 0.369592 -0.087560
C10   C     C_R   0.618228 0.904169 0.183491 -0.124872
C11   C     C_R   0.376893 0.096508 0.819642 -0.048157
C12   C     C_R   0.182162 0.904380 0.382307 -0.125019
C13   C     C_R   0.224122 0.329542 0.772736 0.211395
C14   C     C_R   0.839959 0.072586 0.648775 -0.154727
C15   C     C_R   0.372621 0.913237 0.820328 -0.072807
C16   C     C_R   0.627417 0.087346 0.179653 -0.027437
C17   C     C_R   0.180572 0.095799 0.621070 -0.148950
C18   C     C_R   0.817746 0.905295 0.380996 -0.054628
C19   C     C_R   0.371067 0.090735 0.176972 -0.095424
C20   C     C_R   0.626493 0.907207 0.821816 -0.030992
C21   C     C_R   0.816403 0.097032 0.383602 -0.154045
C22   C     C_R   0.183525 0.903079 0.616471 -0.076122
C23   C     C_R   0.624109 0.089212 0.820158 -0.047099
C24   C     C_R   0.779461 0.678469 0.223745 0.054398
C25   C     C_R   0.381942 0.904796 0.182590 -0.119045
C26   C     C_2   0.657424 0.653732 0.160291 0.526148
C27   C     C_2   0.352487 0.340453 0.830040 0.505845
C28   C     C_2   0.345639 0.654469 0.160996 0.475429
C29   C     C_2   0.687664 0.311197 0.800373 0.507683
C30   C     C_2   0.221429 0.171517 0.038756 0.543570
C31   C     C_2   0.779383 0.828826 0.956400 0.527749
C32   C     C_2   0.793578 0.209378 0.095898 0.522489
C33   C     C_2   0.202115 0.792983 0.902934 0.551704
C34   C     C_2   0.172735 0.645229 0.658266 0.525180
C35   C     C_R   0.289217 0.803846 0.790349 0.005097
C36   C     C_2   0.827921 0.356391 0.340719 0.520548
C37   C     C_2   0.168240 0.341984 0.642428 0.524873
C38   C     C_2   0.845002 0.654295 0.346425 0.539555
C39   C     C_2   0.041129 0.171487 0.213914 0.511108
C40   C     C_2   0.954935 0.827423 0.779420 0.498210
C41   C     C_2   0.173819 0.652750 0.348238 0.470317
C42   C     C_2   0.959712 0.215319 0.828140 0.527822
C43   C     C_2   0.784426 0.037159 0.823558 0.513063
C44   C     C_2   0.345711 0.829209 0.346625 0.477138
C45   C     C_2   0.649016 0.170189 0.338688 0.509874
C46   C     C_R   0.708988 0.198766 0.209715 -0.010670
C47   C     C_2   0.352271 0.830701 0.663589 0.503927
C48   C     C_2   0.310318 0.202229 0.313555 0.519703
C49   C     C_2   0.686273 0.795229 0.681956 0.515801
C50   C     C_2   0.203961 0.100345 0.793158 0.602649
C51   C     C_2   0.654178 0.836805 0.347943 0.507651
C52   C     C_R   0.852535 0.772575 0.852740 0.207266
C53   C     C_R   0.145209 0.225421 0.141670 0.223868
C54   C     C_R   0.198475 0.213530 0.704429 -0.066875
C55   C     C_R   0.779720 0.777064 0.320408 0.115006
C56   C     C_R   0.220708 0.779340 0.317444 -0.069528
C57   C     C_R   0.291153 0.213024 0.802035 0.008238
C58   C     C_R   0.855419 0.143026 0.772784 0.056542
C59   C     C_R   0.774741 0.226566 0.326467 0.042389
C60   C     C_R   0.225293 0.773715 0.673506 0.043518
C61   C     C_R   0.821262 0.807342 0.724996 -0.089478
C62   C     C_R   0.174697 0.189399 0.268960 -0.021979
C63   C     C_R   0.654200 0.836373 0.842148 0.171520
C64   C     C_R   0.343857 0.161914 0.156954 0.028966
C65   C     C_R   0.160990 0.647423 0.832898 0.117221
C66   C     C_R   0.838332 0.354509 0.168219 0.072111
C67   C     C_R   0.348745 0.167661 0.840328 0.084224
C68   C     C_R   0.220973 0.681773 0.220974 0.062372
C69   C     C_R   0.639971 0.829375 0.170491 0.055184
C70   C     C_R   0.846098 0.341384 0.839550 0.157271
C71   C     C_R   0.168581 0.641242 0.168867 0.113319
C72   C     C_R   0.654029 0.157927 0.164463 0.094339
C73   C     C_R   0.345107 0.843147 0.835634 0.077578
C74   C     C_R   0.126622 0.304632 0.124290 0.091232
C75   C     C_R   0.872177 0.694247 0.872911 0.102073
C76   C     C_R   0.358321 0.831147 0.168157 0.076330
C77   C     C_R   0.659663 0.153538 0.841445 0.045349
C78   C     C_R   0.830621 0.635969 0.171967 0.037994
C79   C     C_R   0.824790 0.269150 0.810569 -0.004643
C80   C     C_R   0.170644 0.366323 0.826861 0.125900
C81   C     C_R   0.873847 0.125458 0.694187 0.069469
C82   C     C_R   0.168787 0.830614 0.359440 0.113308
C83   C     C_R   0.831476 0.830167 0.360354 0.066344
C84   C     C_R   0.161619 0.168646 0.645962 0.051003
C85   C     C_R   0.153055 0.160085 0.341019 0.170943
C86   C     C_R   0.842231 0.833629 0.650579 0.042900
C87   C     C_R   0.171115 0.828068 0.636628 0.092773
C88   C     C_R   0.828832 0.171968 0.363275 0.096297
C89   C     C_R   0.710742 0.707574 0.194997 -0.057438
C90   C     C_R   0.270585 0.189871 0.176089 -0.077344
C91   C     C_R   0.288365 0.293678 0.804098 -0.180512
C92   C     C_R   0.289887 0.709005 0.193636 -0.120458
C93   C     C_R   0.748357 0.251569 0.805935 -0.107307
C94   C     C_R   0.214590 0.198829 0.118640 -0.184409
C95   C     C_R   0.784017 0.799860 0.876821 -0.205417
C96   C     C_R   0.766015 0.236882 0.171640 -0.115057
C97   C     C_R   0.232471 0.765375 0.828377 -0.124315
C98   C     C_R   0.196424 0.708624 0.708135 -0.129603
C99   C     C_R   0.803964 0.291838 0.292253 -0.132307
C100  C     C_R   0.194171 0.294291 0.707581 -0.162131
C101  C     C_R   0.726837 0.808025 0.820597 -0.011190
C102  C     C_R   0.808429 0.707880 0.292140 -0.148005
C103  C     C_R   0.120205 0.197952 0.210183 -0.214698
C104  C     C_R   0.876579 0.798944 0.783313 -0.150777
C105  C     C_R   0.193709 0.709870 0.290115 -0.105079
C106  C     C_R   0.880157 0.211419 0.800782 -0.145620
C107  C     C_R   0.787589 0.118243 0.799863 -0.091875
C108  C     C_R   0.288337 0.808154 0.289022 -0.053628
C109  C     C_R   0.711432 0.196176 0.290350 -0.112159
C110  C     C_R   0.288098 0.804986 0.709835 -0.123227
C111  C     C_R   0.251268 0.196018 0.252787 -0.075351
C112  C     C_R   0.801320 0.295613 0.211727 0.028234
C113  C     C_R   0.744862 0.801726 0.743087 -0.087595
C114  C     C_R   0.233502 0.174619 0.764674 -0.092726
C115  C     C_R   0.709071 0.803469 0.293581 -0.113004
C116  C     C_R   0.621406 0.817846 0.908977 -0.211205
C117  C     C_R   0.378626 0.181877 0.091859 -0.141555
C118  C     C_R   0.180049 0.620954 0.904949 -0.183743
C119  C     C_R   0.819529 0.380272 0.095834 -0.045488
C120  C     C_R   0.375431 0.181433 0.911119 -0.135724
C121  C     C_R   0.617687 0.816326 0.095857 -0.116615
C122  C     C_R   0.824761 0.369611 0.909451 -0.040328
C123  C     C_R   0.198881 0.705311 0.788878 0.018524
C124  C     C_R   0.181604 0.619504 0.094464 -0.077564
C125  C     C_R   0.623310 0.179528 0.094756 -0.168109
C126  C     C_R   0.374820 0.821363 0.905950 -0.023807
C127  C     C_R   0.159600 0.349645 0.070663 -0.080831
C128  C     C_R   0.839871 0.650085 0.928029 -0.074375
C129  C     C_R   0.380191 0.817778 0.093707 -0.091492
C130  C     C_R   0.631322 0.175251 0.911143 -0.110433
C131  C     C_R   0.816389 0.613343 0.097895 -0.081709
C132  C     C_R   0.184270 0.387453 0.901473 -0.077673
C133  C     C_R   0.926054 0.649274 0.839217 -0.086758
C134  C     C_R   0.731243 0.174510 0.812577 -0.018899
C135  C     C_R   0.073012 0.349455 0.158990 -0.060219
C136  C     C_R   0.927695 0.159225 0.650319 -0.029277
C137  C     C_R   0.095191 0.817169 0.380943 -0.122844
C138  C     C_R   0.908066 0.381364 0.183216 -0.076640
C139  C     C_R   0.091594 0.619894 0.817307 -0.009470
C140  C     C_R   0.905567 0.816675 0.382577 -0.134675
C141  C     C_R   0.091708 0.183350 0.618308 -0.077543
C142  C     C_R   0.095214 0.618984 0.182720 -0.136158
C143  C     C_R   0.910575 0.376089 0.819436 -0.191521
C144  C     C_R   0.088046 0.180474 0.375645 -0.188892
H1    H     H_    0.650496 0.649144 0.099319 -0.037281
H2    H     H_    0.839274 0.411443 0.315977 0.028986
H3    H     H_    0.157667 0.316847 0.587202 0.029861
H4    H     H_    0.905435 0.648525 0.350876 -0.004529
H5    H     H_    0.023503 0.132347 0.257510 0.032395
H6    H     H_    0.970435 0.869678 0.737893 0.051128
H7    H     H_    0.218628 0.624425 0.380204 0.057648
H8    H     H_    0.977394 0.258384 0.868141 0.058838
H9    H     H_    0.814511 0.993856 0.791559 0.001143
H10   H     H_    0.376499 0.784216 0.376303 0.063725
H11   H     H_    0.659575 0.157039 0.398195 0.020316
H12   H     H_    0.405938 0.314174 0.845456 0.010950
H13   H     H_    0.405178 0.845521 0.690237 0.036464
H14   H     H_    0.369331 0.196275 0.299810 0.055985
H15   H     H_    0.701417 0.799144 0.622549 0.063538
H16   H     H_    0.161367 0.069910 0.761719 0.040379
H17   H     H_    0.597416 0.851070 0.329452 0.030272
H18   H     H_    0.627912 0.765262 0.940310 0.107276
H19   H     H_    0.374723 0.236224 0.063556 0.102326
H20   H     H_    0.233933 0.625523 0.933310 0.106466
H21   H     H_    0.765366 0.376366 0.067921 0.069782
H22   H     H_    0.370236 0.233716 0.942399 0.073529
H23   H     H_    0.401214 0.673106 0.145811 0.035700
H24   H     H_    0.617062 0.762936 0.066644 0.073419
H25   H     H_    0.774757 0.356634 0.940783 0.082238
H26   H     H_    0.233685 0.622208 0.064096 0.120449
H27   H     H_    0.625426 0.235245 0.068934 0.097778
H28   H     H_    0.370472 0.766298 0.932756 0.072280
H29   H     H_    0.206852 0.334370 0.035956 0.110344
H30   H     H_    0.792369 0.665595 0.962315 0.110822
H31   H     H_    0.376583 0.765236 0.062584 0.066400
H32   H     H_    0.644414 0.225828 0.943055 0.075425
H33   H     H_    0.762568 0.608659 0.070383 0.065754
H34   H     H_    0.629257 0.296309 0.807197 0.012805
H35   H     H_    0.238985 0.391557 0.928127 0.119020
H36   H     H_    0.956699 0.663739 0.789239 0.104404
H37   H     H_    0.041531 0.333657 0.207993 0.107302
H38   H     H_    0.959637 0.207896 0.666579 0.102493
H39   H     H_    0.065836 0.764368 0.378304 0.159503
H40   H     H_    0.936631 0.381471 0.237594 0.059215
H41   H     H_    0.063653 0.619709 0.762610 0.098736
H42   H     H_    0.935843 0.763451 0.383025 0.091189
H43   H     H_    0.062539 0.237545 0.617389 0.067861
H44   H     H_    0.066132 0.620879 0.235735 0.164209
H45   H     H_    0.264612 0.130761 0.022967 0.075408
H46   H     H_    0.941598 0.369109 0.767440 0.107010
H47   H     H_    0.055965 0.232708 0.368683 0.103857
H48   H     H_    0.943012 0.765409 0.626601 0.100912
H49   H     H_    0.066854 0.386236 0.760861 0.124228
H50   H     H_    0.936831 0.618023 0.236230 0.083175
H51   H     H_    0.069861 0.761070 0.614558 0.083004
H52   H     H_    0.930165 0.238861 0.385236 0.118935
H53   H     H_    0.765664 0.929665 0.625665 0.087499
H54   H     H_    0.226047 0.058323 0.357014 0.107063
H55   H     H_    0.619198 0.933324 0.237138 0.071285
H56   H     H_    0.736842 0.870103 0.972652 0.074964
H57   H     H_    0.373132 0.071063 0.763919 0.068981
H58   H     H_    0.234667 0.933246 0.382759 0.166718
H59   H     H_    0.790683 0.041204 0.662328 0.084622
H60   H     H_    0.365912 0.945551 0.768521 0.063578
H61   H     H_    0.634175 0.055798 0.231873 0.096397
H62   H     H_    0.234440 0.067073 0.627148 0.096393
H63   H     H_    0.764930 0.936013 0.377948 0.113957
H64   H     H_    0.358379 0.058767 0.227524 0.100437
H65   H     H_    0.636455 0.936771 0.769259 0.074463
H66   H     H_    0.762866 0.069094 0.384094 0.079444
H67   H     H_    0.761042 0.170948 0.061202 0.030675
H68   H     H_    0.236951 0.931293 0.616296 0.118069
H69   H     H_    0.628669 0.059737 0.766643 0.067012
H70   H     H_    0.382190 0.933633 0.236187 0.159769
H71   H     H_    0.160836 0.760936 0.933634 0.041703
H72   H     H_    0.158449 0.656313 0.599085 0.019866
N1    N     N_R   0.584840 0.879720 0.932190 -0.049958
N2    N     N_R   0.415160 0.879720 0.932190 -0.045983
N3    N     N_R   0.120280 0.415160 0.067810 -0.054078
N4    N     N_R   0.879720 0.584840 0.932190 -0.056066
N5    N     N_R   0.415160 0.879720 0.067810 -0.040001
N6    N     N_R   0.584840 0.120280 0.932190 -0.040001
N7    N     N_R   0.879720 0.584840 0.067810 -0.045382
N8    N     N_R   0.120280 0.415160 0.932190 -0.050712
N9    N     N_R   0.932190 0.584840 0.879720 -0.054924
N10   N     N_R   0.067810 0.415160 0.120280 -0.057581
N11   N     N_R   0.932190 0.120280 0.584840 -0.056045
N12   N     N_R   0.415160 0.120280 0.067810 -0.044403
N13   N     N_R   0.067810 0.879720 0.415160 -0.050829
N14   N     N_R   0.932190 0.415160 0.120280 -0.042292
N15   N     N_R   0.067810 0.584840 0.879720 -0.054763
N16   N     N_R   0.932190 0.879720 0.415160 -0.043919
N17   N     N_R   0.067810 0.120280 0.584840 -0.043881
N18   N     N_R   0.067810 0.584840 0.120280 -0.051665
N19   N     N_R   0.932190 0.415160 0.879720 -0.051391
N20   N     N_R   0.067810 0.120280 0.415160 -0.052822
N21   N     N_R   0.932190 0.879720 0.584840 -0.048042
N22   N     N_R   0.067810 0.415160 0.879720 -0.053033
N23   N     N_R   0.120280 0.584840 0.932190 -0.045496
N24   N     N_R   0.932190 0.584840 0.120280 -0.044090
N25   N     N_R   0.067810 0.879720 0.584840 -0.046506
N26   N     N_R   0.932190 0.120280 0.415160 -0.056313
N27   N     N_R   0.879720 0.932190 0.584840 -0.039464
N28   N     N_R   0.120280 0.067810 0.415160 -0.052296
N29   N     N_R   0.584840 0.932190 0.120280 -0.043721
N30   N     N_R   0.415160 0.067810 0.879720 -0.044256
N31   N     N_R   0.120280 0.932190 0.415160 -0.053367
N32   N     N_R   0.879720 0.067810 0.584840 -0.042599
N33   N     N_R   0.415160 0.932190 0.879720 -0.044999
N34   N     N_R   0.879720 0.415160 0.067810 -0.045725
N35   N     N_R   0.584840 0.067810 0.120280 -0.049420
N36   N     N_R   0.120280 0.067810 0.584840 -0.041414
N37   N     N_R   0.879720 0.932190 0.415160 -0.050595
N38   N     N_R   0.415160 0.067810 0.120280 -0.040444
N39   N     N_R   0.584840 0.932190 0.879720 -0.048518
N40   N     N_R   0.879720 0.067810 0.415160 -0.043448
N41   N     N_R   0.120280 0.932190 0.584840 -0.052444
N42   N     N_R   0.584840 0.067810 0.879720 -0.038256
N43   N     N_R   0.415160 0.932190 0.120280 -0.049895
N44   N     N_R   0.415160 0.120280 0.932190 -0.046767
N45   N     N_R   0.584840 0.879720 0.067810 -0.045599
N46   N     N_R   0.879720 0.415160 0.932190 -0.053710
N47   N     N_R   0.120280 0.584840 0.067810 -0.052110
N48   N     N_R   0.584840 0.120280 0.067810 -0.039641
Ni1   Ni    Ni4+2 0.500000 0.880920 0.000000 0.224917
Ni2   Ni    Ni4+2 0.119080 1.000000 0.500000 0.243954
Ni3   Ni    Ni4+2 0.500000 0.000000 0.119080 0.247431
Ni4   Ni    Ni4+2 0.500000 1.000000 0.880920 0.228170
Ni5   Ni    Ni4+2 0.500000 0.119080 0.000000 0.227086
Ni6   Ni    Ni4+2 0.119080 0.500000 0.000000 0.255225
Ni7   Ni    Ni4+2 0.880920 0.500000 0.000000 0.233842
Ni8   Ni    Ni4+2 0.000000 0.500000 0.880920 0.254560
Ni9   Ni    Ni4+2 0.000000 0.500000 0.119080 0.232291
Ni10  Ni    Ni4+2 0.000000 0.119080 0.500000 0.234116
Ni11  Ni    Ni4+2 1.000000 0.880920 0.500000 0.227773
Ni12  Ni    Ni4+2 0.880920 1.000000 0.500000 0.236122
O1    O     O_2   0.620227 0.613008 0.201061 -0.539263
O2    O     O_2   0.831785 0.349852 0.409804 -0.557120
O3    O     O_2   0.161695 0.410923 0.648743 -0.521588
O4    O     O_2   0.806391 0.615330 0.387546 -0.519999
O5    O     O_2   0.994922 0.190714 0.165484 -0.519316
O6    O     O_2   0.002717 0.806653 0.825669 -0.580663
O7    O     O_2   0.108864 0.636994 0.361632 -0.622499
O8    O     O_2   0.006237 0.167499 0.808911 -0.572115
O9    O     O_2   0.753921 0.018704 0.882431 -0.580787
O10   O     O_2   0.359418 0.895256 0.361716 -0.605115
O11   O     O_2   0.584513 0.168323 0.314594 -0.573106
O12   O     O_2   0.347415 0.409819 0.831073 -0.555546
O13   O     O_2   0.347872 0.832285 0.594239 -0.562892
O14   O     O_2   0.294095 0.217397 0.379139 -0.562754
O15   O     O_2   0.620930 0.782071 0.696828 -0.564696
O16   O     O_2   0.222279 0.074950 0.855421 -0.531028
O17   O     O_2   0.669192 0.842342 0.415630 -0.574098
O18   O     O_2   0.332994 0.586471 0.157268 -0.571369
O19   O     O_2   0.701708 0.377091 0.784593 -0.554085
O20   O     O_2   0.176006 0.191626 0.989875 -0.542428
O21   O     O_2   0.826012 0.809541 0.004435 -0.568091
O22   O     O_2   0.856254 0.224650 0.073586 -0.515281
O23   O     O_2   0.218208 0.855319 0.928375 -0.536557
O24   O     O_2   0.174011 0.579515 0.680770 -0.515047

loop_
_geom_bond_atom_site_label_1
_geom_bond_atom_site_label_2
_ccdc_geom_bond_type
C118  N23   A    
C49   C113  S    
N48   Ni5   S    
C80   C132  A    
C135  N10   A    
C101  C113  A    
C52   C75   S    
C131  H33   S    
C120  H22   S    
C117  H19   S    
C118  H20   S    
C41   C105  S    
C20   N39   A    
C90   C111  A    
N33   Ni4   S    
C17   H62   S    
C133  N9    A    
C60   C98   A    
C45   C109  S    
N39   Ni4   S    
C73   C126  A    
C75   C128  A    
C30   H45   S    
N44   Ni5   S    
C31   O21   D    
C27   O12   D    
N31   Ni2   S    
N47   Ni6   S    
C52   C104  A    
C22   H68   S    
C65   C118  A    
C6    N25   A    
C141  H43   S    
C138  H40   S    
C67   C120  A    
C46   C72   S    
C13   C91   A    
N16   Ni11  S    
C85   C144  A    
C83   C140  A    
C22   N41   A    
C30   O20   D    
C126  H28   S    
C61   C104  A    
C119  N34   A    
C122  N46   A    
C15   N33   A    
C50   H16   S    
C120  N44   A    
C48   H14   S    
C50   C114  S    
N7    Ni7   S    
C7    C88   A    
C40   H6    S    
C22   C87   A    
C23   C77   A    
C42   C106  S    
C38   H4    S    
C15   C73   A    
N19   N46   A    
N14   Ni9   S    
C55   C83   S    
C47   O13   D    
N35   Ni3   S    
C44   O10   D    
C81   C136  A    
C23   H69   S    
C27   H12   S    
C121  H24   S    
C70   C79   S    
N16   N37   A    
C41   H7    S    
C144  H47   S    
C12   N31   A    
C17   N36   A    
C72   C125  A    
C25   C76   A    
C44   H10   S    
C30   C94   S    
C21   N40   A    
N17   Ni10  S    
C54   C114  A    
C125  N48   A    
C2    C108  A    
C59   C109  A    
C36   C99   S    
C8    C86   A    
C125  H27   S    
N5    Ni1   S    
C65   C139  A    
C10   C69   A    
C46   C96   A    
C141  N17   A    
N40   Ni12  S    
C139  N15   A    
C1    C115  A    
C14   C81   A    
C7    H52   S    
N8    N22   A    
C126  N2    A    
N17   N36   A    
C5    H50   S    
C5    N24   A    
C79   C93   A    
C28   O18   D    
N42   Ni4   S    
C10   H55   S    
C33   H71   S    
C40   O6    D    
C70   C143  A    
C4    C80   A    
C107  C134  A    
C35   C97   A    
C21   H66   S    
C58   C107  A    
C56   C108  A    
C9    C85   A    
C62   C111  A    
C27   C91   S    
N10   Ni9   S    
C12   H58   S    
C119  H21   S    
C24   C102  A    
N46   Ni7   S    
C21   C88   A    
N29   Ni3   S    
N34   Ni7   S    
N30   Ni4   S    
C138  N14   A    
C60   C110  A    
C16   H61   S    
C32   H67   S    
C32   O22   D    
C79   C106  A    
C18   H63   S    
C33   O23   D    
N22   Ni8   S    
N9    Ni8   S    
C70   C122  A    
C74   C127  A    
C66   C138  A    
N15   Ni8   S    
C34   O24   D    
C36   O2    D    
N36   Ni2   S    
C66   C119  A    
C19   H64   S    
C77   C134  S    
C135  H37   S    
C47   H13   S    
C53   C94   A    
C129  H31   S    
N37   Ni12  S    
C133  H36   S    
C56   C82   S    
C137  H39   S    
C39   H5    S    
C128  H30   S    
C17   C84   A    
C140  H42   S    
C20   C63   A    
C5    C78   A    
C97   C123  A    
C34   H72   S    
C3    H48   S    
N3    N10   A    
C48   O14   D    
N13   N31   A    
C68   C105  A    
C136  H38   S    
C4    N22   A    
C49   H15   S    
C131  N7    A    
C37   C100  S    
C95   C101  A    
C117  N12   A    
C53   C74   S    
C16   C72   A    
C64   C90   S    
C29   O19   D    
C54   C84   S    
C127  N3    A    
C55   C102  A    
N18   Ni9   S    
C59   C99   A    
C52   C95   A    
C31   H56   S    
N6    Ni5   S    
C23   N42   A    
C13   C80   S    
N29   N45   A    
C3    C86   A    
N21   Ni11  S    
C6    H51   S    
C16   N35   A    
C90   C94   A    
C4    H49   S    
N38   Ni3   S    
N21   N27   A    
C130  N6    A    
C137  N13   A    
C58   C81   S    
C144  N20   A    
N11   N32   A    
C8    N27   A    
N19   Ni8   S    
C51   C115  S    
C64   C117  A    
N45   Ni1   S    
C19   C64   A    
C122  H25   S    
C74   C135  A    
C18   C83   A    
C10   N29   A    
C43   C107  S    
C20   H65   S    
C35   C110  A    
C37   O3    D    
C63   C116  A    
C38   O4    D    
C136  N11   A    
C140  N16   A    
N1    Ni1   S    
C29   H34   S    
N2    N33   A    
C50   O16   D    
C2    C76   S    
N13   Ni11  S    
C57   C91   A    
N23   Ni6   S    
C132  N8    A    
C11   N30   A    
N41   Ni2   S    
C42   O8    D    
C75   C133  A    
C39   C103  S    
C142  H44   S    
C45   O11   D    
N12   Ni5   S    
N25   Ni11  S    
C29   C93   S    
C55   C115  A    
C84   C141  A    
C53   C103  A    
C68   C71   S    
C31   C95   S    
C7    N26   A    
C34   C98   S    
C51   H17   S    
N28   Ni2   S    
C77   C130  A    
C65   C123  S    
C1    C69   S    
C56   C105  A    
N43   Ni3   S    
C61   C86   S    
C46   C109  A    
C33   C97   S    
C116  N1    A    
C43   H9    S    
C26   O1    D    
C127  H29   S    
N26   N40   A    
C63   C101  S    
C24   C89   A    
C15   H60   S    
N24   Ni9   S    
C26   C89   S    
C96   C112  A    
N25   N41   A    
C116  H18   S    
C25   H70   S    
N11   Ni10  S    
N32   Ni12  S    
C82   C137  A    
N7    N24   A    
N1    N39   A    
N2    Ni1   S    
N15   N23   A    
C11   H57   S    
C143  N19   A    
N4    Ni7   S    
C59   C88   S    
C28   H23   S    
C121  N45   A    
C68   C92   A    
N5    N43   A    
C45   H11   S    
C42   H8    S    
N35   N48   A    
C54   C100  A    
C8    H53   S    
C57   C67   S    
C60   C87   S    
C11   C67   A    
C14   N32   A    
C44   C108  S    
C18   N37   A    
C98   C123  A    
C62   C85   S    
C71   C124  A    
N26   Ni10  S    
C129  N5    A    
C93   C134  A    
C130  H32   S    
C37   H3    S    
C6    C87   A    
C58   C106  A    
C25   N43   A    
C26   H1    S    
C78   C131  A    
C40   C104  S    
C76   C129  A    
C19   N38   A    
C69   C121  A    
C14   H59   S    
C12   C82   A    
C28   C92   S    
C2    C92   A    
N6    N42   A    
C3    N21   A    
C71   C142  A    
N12   N38   A    
C36   H2    S    
N18   N47   A    
C32   C96   S    
C61   C113  A    
C49   O15   D    
C9    H54   S    
C62   C103  A    
C24   C78   S    
C128  N4    A    
C35   C73   S    
C1    C89   A    
C41   O7    D    
C57   C114  A    
C47   C110  S    
N3    Ni6   S    
N20   N28   A    
C13   C100  A    
C38   C102  S    
C139  H41   S    
C39   O5    D    
C99   C112  A    
C143  H46   S    
N4    N9    A    
N20   Ni10  S    
C51   O17   D    
C124  N47   A    
C132  H35   S    
N8    Ni6   S    
C142  N18   A    
C48   C111  S    
C124  H26   S    
C66   C112  S    
N14   N34   A    
C9    N28   A    
N27   Ni12  S    
N30   N44   A    
C43   O9    D    
