data_mof_unit_65852.cif
_audit_creation_date              2012-12-10T16:58:59-0500
_audit_creation_method            fapswitch 2.2
_symmetry_space_group_name_H-M    P1
_symmetry_Int_Tables_number       1
_space_group_crystal_system       triclinic
_cell_length_a                    30.482424
_cell_length_b                    30.974691
_cell_length_c                    24.873994
_cell_angle_alpha                 89.894291
_cell_angle_beta                  128.72787
_cell_angle_gamma                 89.948487
_cell_volume                      18321.6514917

loop_
_atom_site_label
_atom_site_type_symbol
_atom_type_description
_atom_site_fract_x
_atom_site_fract_y
_atom_site_fract_z
_atom_type_partial_charge
Br1   Br    Br    0.825541 0.501637 0.412550 -0.533202
Br2   Br    Br    0.186307 0.470503 0.662262 -0.539671
Br3   Br    Br    0.325382 0.001513 0.411958 -0.530790
Br4   Br    Br    0.674612 0.001176 0.588136 -0.530759
C1    C     C_R   0.691763 0.190866 0.502724 0.788045
C2    C     C_R   0.534412 0.252224 0.069991 0.406889
C3    C     C_R   0.746449 0.932212 0.665742 -0.137313
C4    C     C_R   0.808484 0.441693 0.393901 0.253173
C5    C     C_R   0.177705 0.410389 0.637938 0.264335
C6    C     C_R   0.308474 0.941532 0.393583 0.253608
C7    C     C_R   0.691596 0.941124 0.606574 0.253546
C8    C     C_R   0.841660 0.408591 0.443445 0.040939
C9    C     C_R   0.150445 0.393621 0.569932 0.037958
C10   C     C_R   0.341662 0.908515 0.443308 0.040263
C11   C     C_R   0.658435 0.908280 0.556904 0.039753
C12   C     C_R   0.813261 0.370834 0.438999 0.065491
C13   C     C_R   0.964384 0.752182 0.929954 0.407726
C14   C     C_R   0.172953 0.354766 0.565546 0.061119
C15   C     C_R   0.313297 0.870748 0.438915 0.064899
C16   C     C_R   0.686830 0.870488 0.561286 0.064735
C17   C     C_R   0.840778 0.341907 0.495070 -0.068282
C18   C     C_R   0.157814 0.342118 0.501609 -0.059913
C19   C     C_R   0.340785 0.841907 0.495093 -0.068330
C20   C     C_R   0.659326 0.841855 0.505121 -0.067642
C21   C     C_R   0.897538 0.346830 0.550613 -0.200060
C22   C     C_R   0.116970 0.364542 0.441572 -0.204359
C23   C     C_R   0.397495 0.846927 0.550737 -0.200714
C24   C     C_R   0.034763 0.752202 0.069983 0.407428
C25   C     C_R   0.602599 0.847036 0.449555 -0.201023
C26   C     C_R   0.927537 0.380721 0.551553 -0.192952
C27   C     C_R   0.088329 0.398334 0.443425 -0.191889
C28   C     C_R   0.427480 0.880822 0.551662 -0.195593
C29   C     C_R   0.572601 0.880930 0.448656 -0.195457
C30   C     C_R   0.900841 0.411613 0.498507 -0.100213
C31   C     C_R   0.102723 0.412609 0.506155 -0.117904
C32   C     C_R   0.400813 0.911627 0.498486 -0.099254
C33   C     C_R   0.599277 0.911573 0.501769 -0.099364
C34   C     C_R   0.063057 0.442983 0.501497 0.802033
C35   C     C_R   0.668472 0.195388 0.600964 -0.163810
C36   C     C_R   0.937584 0.442943 0.499478 0.849727
C37   C     C_R   0.562476 0.942952 0.500622 0.849655
C38   C     C_R   0.437574 0.942949 0.499473 0.849319
C39   C     C_R   0.816362 0.249708 0.632580 0.769804
C40   C     C_R   0.183703 0.249768 0.367439 0.766014
C41   C     C_R   0.316454 0.749773 0.632609 0.772736
C42   C     C_R   0.683736 0.749745 0.367451 0.768345
C43   C     C_R   0.557680 0.061253 0.500194 0.804531
C44   C     C_R   0.442250 0.061253 0.499664 0.804476
C45   C     C_R   0.059612 0.559355 0.500132 0.760457
C46   C     C_R   0.330942 0.195616 0.398499 -0.163913
C47   C     C_R   0.942294 0.561353 0.499605 0.820179
C48   C     C_R   0.641423 0.214754 0.254702 -0.176980
C49   C     C_R   0.357173 0.215087 0.745443 -0.183902
C50   C     C_R   0.141782 0.714849 0.254745 -0.173868
C51   C     C_R   0.858031 0.714777 0.745487 -0.176550
C52   C     C_R   0.605039 0.215121 0.182759 -0.153580
C53   C     C_R   0.393105 0.215483 0.817373 -0.155353
C54   C     C_R   0.105507 0.715214 0.182810 -0.153693
C55   C     C_R   0.894108 0.715160 0.817423 -0.153154
C56   C     C_R   0.572848 0.252016 0.146152 0.056716
C57   C     C_R   0.244170 0.607102 0.577602 -0.158269
C58   C     C_R   0.425708 0.252096 0.853806 0.053304
C59   C     C_R   0.073100 0.752017 0.146145 0.056567
C60   C     C_R   0.926180 0.751982 0.853796 0.056751
C61   C     C_R   0.577580 0.288488 0.182984 -0.154002
C62   C     C_R   0.421783 0.288273 0.816815 -0.156762
C63   C     C_R   0.077510 0.788404 0.182921 -0.153924
C64   C     C_R   0.921631 0.788367 0.816737 -0.153563
C65   C     C_R   0.613232 0.287824 0.254997 -0.192670
C66   C     C_R   0.386567 0.287572 0.744829 -0.181102
C67   C     C_R   0.113070 0.787742 0.254935 -0.194588
C68   C     C_R   0.827299 0.694147 0.395521 -0.163447
C69   C     C_R   0.886286 0.787687 0.744748 -0.191952
C70   C     C_R   0.651948 0.200106 0.641732 -0.134829
C71   C     C_R   0.347203 0.200369 0.357447 -0.134771
C72   C     C_R   0.264949 0.565096 0.597930 -0.146059
C73   C     C_R   0.308196 0.190888 0.497227 0.789238
C74   C     C_R   0.841404 0.698152 0.352183 -0.130977
C75   C     C_R   0.612633 0.172105 0.633778 -0.121270
C76   C     C_R   0.386444 0.172270 0.365228 -0.121076
C77   C     C_R   0.228545 0.531141 0.580865 -0.086439
C78   C     C_R   0.880197 0.670032 0.358991 -0.130470
C79   C     C_R   0.591099 0.138273 0.586744 -0.166788
C80   C     C_R   0.408174 0.138321 0.412393 -0.167130
C81   C     C_R   0.171858 0.539434 0.547300 -0.120985
C82   C     C_R   0.903706 0.636848 0.407627 -0.169129
C83   C     C_R   0.608742 0.131885 0.546550 0.094874
C84   C     C_R   0.192688 0.690684 0.504348 0.792011
C85   C     C_R   0.390796 0.131909 0.452879 0.094572
C86   C     C_R   0.150582 0.581946 0.529158 0.085559
C87   C     C_R   0.888622 0.631179 0.450641 0.101931
C88   C     C_R   0.645640 0.162283 0.551048 0.103757
C89   C     C_R   0.353962 0.162372 0.448514 0.103599
C90   C     C_R   0.185958 0.615768 0.538755 0.095909
C91   C     C_R   0.852042 0.661629 0.446844 0.102170
C92   C     C_R   0.659299 0.158173 0.506272 -0.099525
C93   C     C_R   0.340572 0.158194 0.493553 -0.099445
C94   C     C_R   0.161846 0.657001 0.509670 -0.112941
C95   C     C_R   0.808308 0.690892 0.497502 0.788423
C96   C     C_R   0.840589 0.658206 0.493792 -0.097115
C97   C     C_R   0.639115 0.123341 0.460957 -0.190748
C98   C     C_R   0.360900 0.123256 0.538981 -0.191126
C99   C     C_R   0.105460 0.665003 0.479508 -0.186896
C100  C     C_R   0.862616 0.624077 0.540825 -0.188931
C101  C     C_R   0.683612 0.250274 0.367423 0.768574
C102  C     C_R   0.316259 0.250262 0.632563 0.772755
C103  C     C_R   0.183618 0.750277 0.367420 0.774121
C104  C     C_R   0.816305 0.750227 0.632558 0.767627
C105  C     C_R   0.604875 0.092749 0.458509 -0.150742
C106  C     C_R   0.645553 0.250972 0.291450 -0.026647
C107  C     C_R   0.395087 0.092625 0.541332 -0.150582
C108  C     C_R   0.072447 0.632670 0.476124 -0.206549
C109  C     C_R   0.896752 0.593506 0.542961 -0.150573
C110  C     C_R   0.589941 0.096383 0.501192 -0.082688
C111  C     C_R   0.409807 0.096332 0.498433 -0.082145
C112  C     C_R   0.094586 0.591377 0.500699 -0.074857
C113  C     C_R   0.909648 0.596430 0.498145 -0.082355
C114  C     C_R   0.909801 0.233827 0.745896 -0.177508
C115  C     C_R   0.090467 0.234001 0.254166 -0.177312
C116  C     C_R   0.409427 0.732526 0.745867 -0.185774
C117  C     C_R   0.353903 0.250982 0.708535 -0.034757
C118  C     C_R   0.590377 0.734448 0.254106 -0.177183
C119  C     C_R   0.945953 0.233631 0.817899 -0.151886
C120  C     C_R   0.054414 0.233784 0.182182 -0.152561
C121  C     C_R   0.445695 0.732335 0.817883 -0.152373
C122  C     C_R   0.554420 0.734207 0.182126 -0.151460
C123  C     C_R   0.926964 0.247721 0.853863 0.055547
C124  C     C_R   0.073402 0.247849 0.146179 0.055437
C125  C     C_R   0.427463 0.747937 0.853981 0.055609
C126  C     C_R   0.573750 0.747665 0.146249 0.055736
C127  C     C_R   0.871219 0.262259 0.816400 -0.150386
C128  C     C_R   0.145604 0.750977 0.291443 -0.028786
C129  C     C_R   0.129054 0.262400 0.183595 -0.150890
C130  C     C_R   0.372436 0.764068 0.816675 -0.151306
C131  C     C_R   0.629649 0.761619 0.183767 -0.150397
C132  C     C_R   0.835405 0.263211 0.744440 -0.183378
C133  C     C_R   0.164779 0.263371 0.255557 -0.185041
C134  C     C_R   0.336548 0.765008 0.744723 -0.175596
C135  C     C_R   0.665277 0.762651 0.255722 -0.184056
C136  C     C_R   0.854341 0.248906 0.708560 -0.023928
C137  C     C_R   0.145836 0.249070 0.291466 -0.024622
C138  C     C_R   0.354629 0.749095 0.708646 -0.029496
C139  C     C_R   0.854093 0.750905 0.708522 -0.026441
C140  C     C_R   0.645980 0.748972 0.291502 -0.023180
C141  C     C_R   0.035284 0.247530 0.070032 0.407996
C142  C     C_R   0.965130 0.247446 0.930014 0.408172
C143  C     C_R   0.535693 0.747405 0.070119 0.407730
C144  C     C_R   0.465614 0.747534 0.930115 0.407770
C145  C     C_R   0.757629 0.363042 0.379031 -0.163255
C146  C     C_R   0.211517 0.329897 0.625418 -0.183100
C147  C     C_R   0.257724 0.862859 0.378889 -0.163723
C148  C     C_R   0.742435 0.862370 0.621268 -0.163467
C149  C     C_R   0.809417 0.309053 0.499640 0.786555
C150  C     C_R   0.463895 0.252264 0.929961 0.407088
C151  C     C_R   0.189444 0.309082 0.497953 0.783528
C152  C     C_R   0.309425 0.809052 0.499657 0.787800
C153  C     C_R   0.690646 0.809037 0.500458 0.786303
C154  C     C_R   0.728971 0.393414 0.326331 -0.190718
C155  C     C_R   0.229977 0.343824 0.689411 -0.193324
C156  C     C_R   0.229081 0.893142 0.326053 -0.190930
C157  C     C_R   0.771071 0.892464 0.674076 -0.190970
C158  C     C_R   0.753601 0.433107 0.334759 -0.136192
C159  C     C_R   0.214403 0.384283 0.695843 -0.146876
C160  C     C_R   0.253655 0.932845 0.334384 -0.137247
Cu1   Cu    Cu3+1 0.719090 0.280910 0.500010 0.957516
Cu2   Cu    Cu3+1 0.034200 0.500000 0.568440 1.025935
Cu3   Cu    Cu3+1 0.465800 0.000000 0.431560 0.995300
Cu4   Cu    Cu3+1 0.534200 1.000000 0.568440 0.995202
Cu5   Cu    Cu3+1 0.280910 0.280910 0.499990 0.952738
Cu6   Cu    Cu3+1 0.219090 0.780910 0.500010 0.960460
Cu7   Cu    Cu3+1 0.780910 0.780910 0.499990 0.959717
Cu8   Cu    Cu3+1 0.780930 0.219110 0.499990 0.962694
Cu9   Cu    Cu3+1 0.219070 0.219110 0.500010 0.960448
Cu10  Cu    Cu3+1 0.280930 0.719110 0.499990 0.947072
Cu11  Cu    Cu3+1 0.719070 0.719110 0.500010 0.962010
Cu12  Cu    Cu3+1 0.965800 0.500000 0.431560 0.992625
H1    H     H_    0.665812 0.185900 0.281585 0.150823
H2    H     H_    0.074794 0.222889 0.280632 0.152159
H3    H     H_    0.424490 0.720172 0.719326 0.150653
H4    H     H_    0.574454 0.723818 0.280497 0.150302
H5    H     H_    0.988615 0.222061 0.845400 0.152175
H6    H     H_    0.011827 0.222205 0.154730 0.152612
H7    H     H_    0.487809 0.719543 0.845291 0.151503
H8    H     H_    0.511629 0.723092 0.154572 0.152651
H9    H     H_    0.855462 0.273435 0.842711 0.150405
H10   H     H_    0.144802 0.273558 0.157243 0.150381
H11   H     H_    0.357310 0.776476 0.843113 0.152732
H12   H     H_    0.332468 0.186446 0.718717 0.152745
H13   H     H_    0.645648 0.772300 0.157492 0.149988
H14   H     H_    0.792690 0.274711 0.716842 0.144057
H15   H     H_    0.207430 0.274861 0.283132 0.143946
H16   H     H_    0.294420 0.777782 0.717305 0.153711
H17   H     H_    0.708123 0.773696 0.283400 0.143218
H18   H     H_    0.918678 0.324332 0.593495 0.144509
H19   H     H_    0.106139 0.355013 0.392659 0.138208
H20   H     H_    0.418609 0.824498 0.593708 0.144419
H21   H     H_    0.581488 0.824744 0.406618 0.144328
H22   H     H_    0.736051 0.333357 0.372335 0.133548
H23   H     H_    0.166346 0.686064 0.281658 0.152775
H24   H     H_    0.227573 0.299349 0.623322 0.148222
H25   H     H_    0.236181 0.833166 0.372253 0.133400
H26   H     H_    0.763999 0.832640 0.627888 0.133298
H27   H     H_    0.686281 0.387162 0.280703 0.153885
H28   H     H_    0.259432 0.324376 0.734824 0.162805
H29   H     H_    0.186436 0.886814 0.280380 0.153960
H30   H     H_    0.813740 0.885961 0.719722 0.153895
H31   H     H_    0.728676 0.458197 0.296741 0.170756
H32   H     H_    0.234107 0.396570 0.747057 0.173348
H33   H     H_    0.228726 0.957869 0.296232 0.170702
H34   H     H_    0.833727 0.685982 0.718790 0.150875
H35   H     H_    0.771362 0.957100 0.703859 0.170677
H36   H     H_    0.602517 0.186615 0.155809 0.152133
H37   H     H_    0.394999 0.187213 0.844446 0.152647
H38   H     H_    0.103240 0.686775 0.155913 0.152530
H39   H     H_    0.896497 0.686718 0.844545 0.152100
H40   H     H_    0.972243 0.382476 0.593942 0.165704
H41   H     H_    0.054150 0.413109 0.394971 0.169358
H42   H     H_    0.472156 0.882646 0.594146 0.164388
H43   H     H_    0.527909 0.882888 0.406210 0.164847
H44   H     H_    0.553204 0.317346 0.156151 0.150934
H45   H     H_    0.590676 0.065613 0.423808 0.164446
H46   H     H_    0.446503 0.316906 0.843515 0.153591
H47   H     H_    0.052962 0.817192 0.156044 0.150650
H48   H     H_    0.945923 0.817168 0.843378 0.151006
H49   H     H_    0.616010 0.316305 0.282179 0.148658
H50   H     H_    0.384458 0.315813 0.717545 0.155125
H51   H     H_    0.115610 0.816157 0.282072 0.148695
H52   H     H_    0.883646 0.816106 0.717401 0.149247
H53   H     H_    0.649389 0.120079 0.426579 0.154815
H54   H     H_    0.350801 0.119951 0.573537 0.154959
H55   H     H_    0.086474 0.696268 0.457419 0.164239
H56   H     H_    0.409455 0.065418 0.576176 0.164571
H57   H     H_    0.853892 0.621389 0.576783 0.153440
H58   H     H_    0.699756 0.217548 0.609831 0.143045
H59   H     H_    0.299723 0.217863 0.389791 0.143338
H60   H     H_    0.274498 0.632419 0.594105 0.158020
H61   H     H_    0.796417 0.716415 0.387648 0.140899
H62   H     H_    0.669451 0.225801 0.679330 0.135545
H63   H     H_    0.329555 0.226165 0.319765 0.135468
H64   H     H_    0.309390 0.558848 0.626529 0.141257
H65   H     H_    0.822433 0.723383 0.313475 0.134882
H66   H     H_    0.599070 0.176402 0.664572 0.138768
H67   H     H_    0.029332 0.639854 0.453976 0.133574
H68   H     H_    0.399802 0.176588 0.334209 0.138793
H69   H     H_    0.244475 0.498403 0.595024 0.160506
H70   H     H_    0.891877 0.673756 0.326132 0.137126
H71   H     H_    0.560091 0.117734 0.581752 0.135413
H72   H     H_    0.439117 0.117711 0.417243 0.135651
H73   H     H_    0.144633 0.512387 0.534943 0.143438
H74   H     H_    0.934188 0.616279 0.411487 0.138412
H75   H     H_    0.912500 0.566943 0.579190 0.164458
H76   H     H_    0.925463 0.222717 0.719441 0.150502
N1    N     N_R   0.516635 0.289961 0.034151 -0.237377
N2    N     N_R   0.056174 0.247573 0.035233 -0.236641
N3    N     N_R   0.444708 0.748669 0.964870 -0.234987
N4    N     N_R   0.556618 0.746388 0.035373 -0.236901
N5    N     N_R   0.978626 0.247396 0.033434 -0.237251
N6    N     N_R   0.021791 0.247363 0.966609 -0.236910
N7    N     N_R   0.479046 0.748432 0.033482 -0.235878
N8    N     N_R   0.522261 0.746274 0.966744 -0.237211
N9    N     N_R   0.482238 0.289979 0.965499 -0.237465
N10   N     N_R   0.016601 0.789925 0.034097 -0.237810
N11   N     N_R   0.982268 0.789915 0.965446 -0.237944
N12   N     N_R   0.481498 0.214567 0.965829 -0.237519
N13   N     N_R   0.516197 0.214545 0.034423 -0.237901
N14   N     N_R   0.982385 0.714498 0.965869 -0.237055
N15   N     N_R   0.017014 0.714508 0.034460 -0.237300
N16   N     N_R   0.944246 0.247525 0.964816 -0.236884
O1    O     O_R   0.678820 0.231020 0.500020 -0.588858
O2    O     O_R   0.483800 0.045090 0.557810 -0.604863
O3    O     O_R   0.016200 0.545090 0.442190 -0.602176
O4    O     O_R   0.983800 0.545090 0.557810 -0.590396
O5    O     O_R   0.573990 0.045100 0.557780 -0.547864
O6    O     O_R   0.426010 0.045100 0.442220 -0.548062
O7    O     O_R   0.073990 0.545100 0.557780 -0.549108
O8    O     O_R   0.926010 0.545100 0.442220 -0.552101
O9    O     O_R   0.731040 0.178820 0.500000 -0.574200
O10   O     O_R   0.268960 0.178820 0.500000 -0.573329
O11   O     O_R   0.231040 0.678820 0.500000 -0.590653
O12   O     O_R   0.321180 0.231020 0.499980 -0.589005
O13   O     O_R   0.768960 0.678820 0.500000 -0.574108
O14   O     O_R   0.673970 0.276110 0.400150 -0.584493
O15   O     O_R   0.326030 0.276110 0.599850 -0.579286
O16   O     O_R   0.173970 0.776110 0.400150 -0.586318
O17   O     O_R   0.826030 0.776110 0.599850 -0.583753
O18   O     O_R   0.726190 0.223910 0.400130 -0.583946
O19   O     O_R   0.273810 0.223910 0.599870 -0.589488
O20   O     O_R   0.226190 0.723910 0.400130 -0.580482
O21   O     O_R   0.773810 0.723910 0.599870 -0.584513
O22   O     O_R   0.768980 0.321200 0.500000 -0.573994
O23   O     O_R   0.178820 0.731020 0.500020 -0.582540
O24   O     O_R   0.231020 0.321200 0.500000 -0.574616
O25   O     O_R   0.268980 0.821200 0.500000 -0.574173
O26   O     O_R   0.731020 0.821200 0.500000 -0.573751
O27   O     O_R   0.821200 0.269000 0.499980 -0.582376
O28   O     O_R   0.178800 0.269000 0.500020 -0.585285
O29   O     O_R   0.321200 0.769000 0.499980 -0.582192
O30   O     O_R   0.678800 0.769000 0.500020 -0.582975
O31   O     O_R   0.773830 0.276110 0.599860 -0.590788
O32   O     O_R   0.226170 0.276110 0.400140 -0.593901
O33   O     O_R   0.273830 0.776110 0.599860 -0.581966
O34   O     O_R   0.821180 0.731020 0.499980 -0.587347
O35   O     O_R   0.726170 0.776110 0.400140 -0.590417
O36   O     O_R   0.826050 0.223920 0.599850 -0.582912
O37   O     O_R   0.173950 0.223920 0.400150 -0.581006
O38   O     O_R   0.326050 0.723920 0.599850 -0.596261
O39   O     O_R   0.673950 0.723920 0.400150 -0.582620
O40   O     O_R   0.016230 0.454910 0.442200 -0.592989
O41   O     O_R   0.983770 0.454910 0.557800 -0.586146
O42   O     O_R   0.516230 0.954910 0.442200 -0.590950
O43   O     O_R   0.483770 0.954910 0.557800 -0.590827
O44   O     O_R   0.074030 0.454920 0.557790 -0.545873
O45   O     O_R   0.925970 0.454920 0.442210 -0.556536
O46   O     O_R   0.574030 0.954920 0.557790 -0.559263
O47   O     O_R   0.425970 0.954920 0.442210 -0.559230
O48   O     O_R   0.516200 0.045090 0.442190 -0.604840

loop_
_geom_bond_atom_site_label_1
_geom_bond_atom_site_label_2
_ccdc_geom_bond_type
C101  C106  S    
C129  C133  A    
C51   C55   A    
C158  H31   S    
C32   C38   S    
C62   H46   S    
C149  O27   A    
C131  C135  A    
Cu2   O41   S    
C9    C14   A    
C38   O43   A    
Cu7   O34   S    
C55   H39   S    
C124  C141  S    
C25   C29   A    
C96   C100  A    
C35   C70   A    
C5    C9    A    
C67   C128  A    
C133  H15   S    
C7    C11   A    
Cu8   O36   S    
C12   C145  A    
C86   C112  A    
C132  C136  A    
C118  C122  A    
C98   C107  A    
C144  N8    A    
C114  C136  A    
Cu1   O14   S    
C59   C63   A    
C11   C16   A    
Cu9   O28   S    
C146  C155  A    
C141  N5    A    
C102  O19   A    
Cu3   O42   S    
C34   O44   A    
Cu5   O24   S    
C58   C62   A    
C57   C90   A    
C99   C108  A    
C153  O26   A    
C15   C19   A    
C120  H6    S    
C2    C56   S    
C69   H52   S    
Cu8   O18   S    
C74   C78   A    
Cu9   O19   S    
C48   C106  A    
C149  O22   A    
Cu10  O20   S    
C1    O9    A    
C63   H47   S    
C45   O3    A    
C56   C61   A    
C70   C75   A    
C41   C138  S    
C115  C137  A    
C141  N2    A    
Cu4   O46   S    
C105  H45   S    
C47   O8    A    
Cu9   O10   S    
Cu6   Cu10  S    
N1    N9    A    
C10   C15   A    
C66   H50   S    
Cu6   O33   S    
C81   C86   A    
C50   C128  A    
C39   O36   A    
C151  O28   A    
Cu4   O43   S    
C119  H5    S    
C150  N9    A    
C4    C158  A    
C62   C66   A    
C84   O11   A    
C123  C127  A    
C24   C59   S    
C76   H68   S    
C19   C152  S    
C45   O7    A    
C79   H71   S    
C98   H54   S    
C122  C126  A    
C68   H61   S    
C23   H20   S    
C14   C146  A    
C28   H42   S    
C21   H18   S    
C135  H17   S    
Cu1   O22   S    
Cu8   O27   S    
C44   O6    A    
C43   C110  S    
C85   C111  A    
C81   H73   S    
C12   C17   A    
Br1   C4    S    
C103  O16   A    
C3    C157  A    
C152  O25   A    
Cu3   O48   S    
C60   C64   A    
C116  H3    S    
C9    C31   A    
C10   C32   A    
C24   N10   A    
C159  H32   S    
C88   C92   A    
Cu2   O44   S    
C104  O21   A    
C42   O35   A    
C11   C33   A    
C68   C74   A    
C36   O45   A    
Cu7   O35   S    
N12   N13   A    
C15   C147  A    
C40   O32   A    
C73   C93   S    
C41   O33   A    
C145  C154  A    
C148  C157  A    
Cu10  O11   S    
C44   O2    A    
Cu12  O45   S    
C47   O4    A    
C154  H27   S    
C64   H48   S    
C95   O13   A    
C18   C151  S    
C29   H43   S    
C57   C72   A    
C99   H55   S    
C74   H65   S    
C51   C139  A    
C26   C30   A    
C8    C12   A    
C152  O29   A    
C31   C34   S    
C127  C132  A    
C6    C10   A    
C20   C153  S    
C42   C140  S    
C50   H23   S    
C2    N1    A    
Cu5   O15   S    
C73   O10   A    
C70   H62   S    
Cu6   O16   S    
C13   N14   A    
C121  C125  A    
C65   C106  A    
C119  C123  A    
C4    C8    A    
C39   C136  S    
C105  C110  A    
C109  C113  A    
C127  H9    S    
C53   H37   S    
C142  N6    A    
C34   O40   A    
C89   C93   A    
C108  C112  A    
Cu7   O26   S    
C17   C21   A    
C17   C149  S    
C126  C143  S    
C14   C18   A    
C103  C128  S    
Cu1   O31   S    
C3    H35   S    
N10   N11   A    
C109  H75   S    
Cu9   O37   S    
C80   H72   S    
C155  H28   S    
N4    N8    A    
C47   C113  S    
C33   C37   S    
C150  N12   A    
C26   H40   S    
C100  C109  A    
Cu5   Cu9   S    
C83   C88   A    
Br2   C5    S    
C84   C94   S    
Cu12  O3    S    
C79   C83   A    
C82   H74   S    
C151  O24   A    
C71   H63   S    
C126  C131  A    
C76   C80   A    
C118  H4    S    
C24   N15   A    
Cu1   O1    S    
C156  C160  A    
C73   O12   A    
C49   H12   S    
C147  H25   S    
C82   C87   A    
C90   C94   A    
C97   C105  A    
C94   C99   A    
C5    C159  A    
C20   C25   A    
C87   C113  A    
C118  C140  A    
C93   C98   A    
Cu6   O25   S    
C145  H22   S    
C120  C124  A    
C43   O48   A    
C92   C97   A    
C148  H26   S    
C41   O38   A    
C22   H19   S    
Cu3   O6    S    
C146  H24   S    
C86   C90   A    
C37   O42   A    
Cu11  O21   S    
C36   O41   A    
C134  C138  A    
Cu3   Cu4   S    
C49   C53   A    
C91   C96   A    
C78   C82   A    
C29   C33   A    
C52   C56   A    
Cu4   O2    S    
C160  H33   S    
C101  O14   A    
Cu5   O12   S    
Br4   C7    S    
C142  N16   A    
C95   O34   A    
C27   C31   A    
C157  H30   S    
C8    C30   A    
C28   C32   A    
C35   C88   A    
C1    C92   S    
C69   C139  A    
C21   C26   A    
C133  C137  A    
Cu11  O39   S    
C23   C28   A    
Cu6   O23   S    
Cu2   O4    S    
C130  H11   S    
C134  H16   S    
Cu7   O17   S    
C65   H49   S    
C35   H58   S    
C1    O1    A    
C72   H64   S    
Cu3   O47   S    
C49   C117  A    
C46   C71   A    
C51   H34   S    
C75   C79   A    
C61   C65   A    
C116  C121  A    
C87   C91   A    
C63   C67   A    
C114  C119  A    
Cu5   O32   S    
Cu2   O7    S    
C123  C142  S    
C125  C130  A    
C16   C148  A    
C45   C112  S    
C18   C22   A    
C97   H53   S    
C104  C139  S    
C27   H41   S    
C40   O37   A    
C121  H7    S    
C84   O23   A    
Cu10  O38   S    
C122  H8    S    
Cu12  O40   S    
C53   C58   A    
C115  C120  A    
C3    C7    A    
C55   C60   A    
C143  N7    A    
C30   C36   S    
C52   H36   S    
C13   C60   S    
N2    N6    A    
C143  N4    A    
Cu11  O30   S    
C102  O15   A    
C75   H66   S    
C131  H13   S    
C83   C110  A    
C104  O17   A    
C156  H29   S    
C48   H1    S    
C68   C91   A    
C108  H67   S    
C16   C20   A    
C125  C144  S    
C38   O47   A    
C115  H2    S    
C19   C23   A    
C153  O30   A    
C71   C76   A    
Cu1   Cu8   S    
C22   C27   A    
C85   C89   A    
C107  H56   S    
N5    N16   A    
C129  H10   S    
Cu12  O8    S    
N3    N7    A    
C77   H69   S    
C78   H70   S    
C116  C138  A    
C40   C137  S    
C64   C69   A    
Cu7   Cu11  S    
C58   C150  S    
C132  H14   S    
C13   N11   A    
C135  C140  A    
C95   C96   S    
C2    N13   A    
Cu4   O5    S    
C44   C111  S    
C100  H57   S    
C37   O46   A    
C25   H21   S    
C155  C159  A    
C80   C85   A    
C54   H38   S    
C50   C54   A    
C54   C59   A    
C39   O31   A    
C6    C160  A    
C67   H51   S    
Cu8   O9    S    
C72   C77   A    
C130  C134  A    
C61   H44   S    
C43   O5    A    
C46   C89   A    
Cu2   Cu12  S    
C101  O18   A    
Cu10  O29   S    
C147  C156  A    
C103  O20   A    
Br3   C6    S    
C114  H76   S    
C124  C129  A    
C66   C117  A    
C102  C117  S    
C46   H59   S    
C77   C81   A    
N14   N15   A    
C154  C158  A    
C144  N3    A    
C57   H60   S    
C107  C111  A    
Cu11  O13   S    
C42   O39   A    
C48   C52   A    
