data_mof_unit_7581.cif
_audit_creation_date              2012-12-11T14:08:44-0500
_audit_creation_method            fapswitch 2.2
_symmetry_space_group_name_H-M    P1
_symmetry_Int_Tables_number       1
_space_group_crystal_system       triclinic
_cell_length_a                    28.143864
_cell_length_b                    7.185348
_cell_length_c                    17.179145
_cell_angle_alpha                 90.059211
_cell_angle_beta                  101.97677
_cell_angle_gamma                 90.302183
_cell_volume                      3398.34754466

loop_
_atom_site_label
_atom_site_type_symbol
_atom_type_description
_atom_site_fract_x
_atom_site_fract_y
_atom_site_fract_z
_atom_type_partial_charge
O1    O     O_R   0.000700 0.436510 0.857920 -0.523688
O2    O     O_R   0.999300 0.563490 0.142080 -0.523949
O3    O     O_R   0.999300 0.936510 0.642080 -0.520412
O4    O     O_R   0.000700 0.063490 0.357920 -0.524129
O5    O     O_R   0.930080 0.766380 0.721890 -0.529177
O6    O     O_R   0.069920 0.233620 0.278110 -0.527214
O7    O     O_R   0.069920 0.266380 0.778110 -0.528192
O8    O     O_R   0.930080 0.733620 0.221890 -0.527622
C1    C     C_R   0.910869 0.597501 0.706887 0.775129
C2    C     C_R   0.089405 0.402622 0.292525 0.757369
C3    C     C_R   0.089351 0.098477 0.793515 0.754083
C4    C     C_R   0.910560 0.901570 0.207580 0.754053
O9    O     O_R   0.996180 0.766230 0.862310 -0.548956
O10   O     O_R   0.003820 0.233770 0.137690 -0.548015
O11   O     O_R   0.003820 0.266230 0.637690 -0.545284
O12   O     O_R   0.996180 0.733770 0.362310 -0.546629
O13   O     O_R   0.065870 0.936460 0.783500 -0.546603
O14   O     O_R   0.934130 0.063540 0.216500 -0.546227
O15   O     O_R   0.934130 0.436460 0.716500 -0.543825
O16   O     O_R   0.065870 0.563540 0.283500 -0.546496
C5    C     C_R   0.998467 0.596507 0.894509 0.776468
C6    C     C_R   0.001523 0.403494 0.105488 0.778023
C7    C     C_R   0.001549 0.096425 0.605507 0.768920
C8    C     C_R   0.998550 0.903565 0.394517 0.776539
O17   O     O_3   0.022790 0.603020 0.723980 -0.380521
O18   O     O_3   0.977210 0.396980 0.276020 -0.382859
O19   O     O_3   0.977210 0.103020 0.776020 -0.383439
O20   O     O_3   0.022790 0.896980 0.223980 -0.383118
V1    V     V_3+5 0.995770 0.877900 0.754830 1.485907
V2    V     V_3+5 0.004230 0.122100 0.245170 1.481308
V3    V     V_3+5 0.004230 0.377900 0.745170 1.492995
V4    V     V_3+5 0.995770 0.622100 0.254830 1.483995
C9    C     C_2   0.001722 0.082773 0.519567 -0.283681
C10   C     C_2   0.998578 0.917215 0.480506 -0.267648
C11   C     C_2   0.998245 0.582724 0.980465 -0.275032
C12   C     C_2   0.001744 0.417278 0.019532 -0.274002
H1    H     H_    0.004217 0.211922 0.487812 0.158001
H2    H     H_    0.996197 0.788029 0.512279 0.171321
H3    H     H_    0.995339 0.711620 0.012193 0.153796
H4    H     H_    0.004654 0.288383 0.987804 0.155244
C13   C     C_R   0.684137 0.039748 0.043348 0.752652
C14   C     C_R   0.314794 0.962038 0.974291 0.762235
C15   C     C_R   0.315781 0.577707 0.453544 0.743197
C16   C     C_R   0.683986 0.404266 0.547092 0.729420
O21   O     O_2   0.715267 0.077897 0.995483 -0.436411
O22   O     O_2   0.283268 0.922751 0.021303 -0.428244
O23   O     O_2   0.284084 0.659708 0.491466 -0.426191
O24   O     O_2   0.714464 0.282614 0.523600 -0.429365
N1    N     N_R   0.702326 0.968614 0.117389 -0.559338
N2    N     N_R   0.296876 0.029989 0.899516 -0.563472
N3    N     N_R   0.297642 0.478651 0.385587 -0.564415
N4    N     N_R   0.703589 0.548996 0.595494 -0.560309
C17   C     C_R   0.672482 0.924364 0.168016 0.656578
C18   C     C_R   0.326981 0.072751 0.849175 0.655929
C19   C     C_R   0.327675 0.397313 0.342671 0.686706
C20   C     C_R   0.674773 0.680284 0.619578 0.707042
C21   C     C_R   0.782535 0.085011 0.184160 -0.107538
C22   C     C_R   0.217685 0.912605 0.828352 -0.104137
C23   C     C_R   0.217615 0.590852 0.316665 -0.093521
C24   C     C_R   0.779397 0.454533 0.685495 -0.103159
C25   C     C_R   0.832927 0.068860 0.204318 -0.220841
C26   C     C_R   0.167535 0.930311 0.803294 -0.216877
C27   C     C_R   0.167230 0.571874 0.295428 -0.220101
C28   C     C_R   0.829724 0.465950 0.711789 -0.212380
C29   C     C_R   0.827812 0.766592 0.138262 -0.125671
C30   C     C_R   0.170781 0.231846 0.869541 -0.126032
C31   C     C_R   0.171726 0.275266 0.365398 -0.125961
C32   C     C_R   0.834234 0.696137 0.609312 -0.127025
C33   C     C_R   0.776508 0.782134 0.120455 0.349265
C34   C     C_R   0.221942 0.214760 0.892402 0.350272
C35   C     C_R   0.222993 0.293819 0.384662 0.344571
C36   C     C_R   0.783125 0.683761 0.583367 0.364505
C37   C     C_R   0.754078 0.942911 0.142396 0.310105
C38   C     C_R   0.245147 0.053595 0.872745 0.306717
C39   C     C_R   0.245762 0.452768 0.360945 0.302258
C40   C     C_R   0.755733 0.563404 0.621771 0.284384
C41   C     C_R   0.601945 0.004941 0.065554 -0.099937
C42   C     C_R   0.397245 0.995615 0.952715 -0.105294
C43   C     C_R   0.398054 0.499572 0.441523 -0.101998
C44   C     C_R   0.602669 0.519474 0.546937 -0.098092
C45   C     C_R   0.633385 0.068681 0.016867 -0.154303
C46   C     C_R   0.365648 0.935742 0.001949 -0.123869
C47   C     C_R   0.366848 0.591148 0.483899 -0.115281
C48   C     C_R   0.632629 0.384274 0.521549 -0.116592
C49   C     C_R   0.613247 0.167528 0.946426 0.441829
C50   C     C_R   0.385879 0.842858 0.074051 0.364046
C51   C     C_R   0.387675 0.683819 0.556387 0.370770
C52   C     C_R   0.610106 0.232646 0.474078 0.343041
C53   C     C_R   0.621865 0.940404 0.142979 -0.023277
C54   C     C_R   0.377504 0.057462 0.874811 -0.015505
C55   C     C_R   0.378246 0.405831 0.369643 -0.021222
C56   C     C_R   0.624017 0.668500 0.595826 -0.006537
C57   C     C_R   0.856528 0.910989 0.182293 -0.109330
C58   C     C_R   0.143143 0.088809 0.822739 -0.111298
C59   C     C_R   0.143373 0.415053 0.318662 -0.110972
C60   C     C_R   0.857644 0.587552 0.675341 -0.111817
C61   C     C_R   0.479544 0.060622 0.931039 0.070079
C62   C     C_R   0.519726 0.938297 0.087147 0.109196
C63   C     C_R   0.521503 0.634121 0.554947 0.126020
C64   C     C_R   0.479465 0.393140 0.431452 0.102133
C65   C     C_R   0.468607 0.918996 0.056627 -0.022891
C66   C     C_R   0.530614 0.081188 0.961662 -0.086103
C67   C     C_R   0.529639 0.372447 0.467193 -0.028534
C68   C     C_R   0.469998 0.607769 0.538041 0.002414
C69   C     C_R   0.448598 0.993291 0.980697 0.082083
C70   C     C_R   0.550628 0.006893 0.037621 0.079557
C71   C     C_R   0.551261 0.507895 0.523185 0.040376
C72   C     C_R   0.449172 0.500562 0.470488 0.058278
C73   C     C_R   0.458536 0.091634 0.850070 -0.194516
C74   C     C_R   0.540826 0.904973 0.167941 -0.114782
C75   C     C_R   0.544021 0.788541 0.598515 -0.054934
C76   C     C_R   0.459124 0.317921 0.356053 -0.111666
C77   C     C_R   0.408542 0.096741 0.823152 -0.090549
C78   C     C_R   0.590899 0.899236 0.194621 -0.101084
C79   C     C_R   0.594313 0.804716 0.619051 -0.081931
C80   C     C_R   0.409323 0.322202 0.326098 -0.098276
O25   O     O_2   0.308050 0.132432 0.774788 -0.470241
O26   O     O_2   0.691700 0.862283 0.241892 -0.467838
O27   O     O_2   0.695272 0.821943 0.666667 -0.484105
O28   O     O_2   0.308539 0.305914 0.274617 -0.470004
C81   C     C_R   0.562148 0.183725 0.921725 -0.146697
C82   C     C_R   0.436759 0.819366 0.096904 -0.117442
C83   C     C_R   0.438662 0.684936 0.584963 -0.112268
C84   C     C_R   0.558890 0.223466 0.449240 -0.100526
H5    H     H_    0.147702 0.818812 0.768082 0.151819
H6    H     H_    0.853580 0.181122 0.237720 0.150056
H7    H     H_    0.846952 0.381089 0.761708 0.153594
H8    H     H_    0.146773 0.680820 0.260087 0.152670
H9    H     H_    0.235379 0.788199 0.813183 0.173322
H10   H     H_    0.765458 0.209636 0.200603 0.170204
H11   H     H_    0.758584 0.360765 0.714952 0.179576
H12   H     H_    0.234917 0.714014 0.298767 0.177942
H13   H     H_    0.394338 0.130244 0.761240 0.195133
H14   H     H_    0.605224 0.863460 0.256251 0.190597
H15   H     H_    0.609825 0.924998 0.653399 0.181961
H16   H     H_    0.395237 0.257453 0.268923 0.185948
H17   H     H_    0.480283 0.108025 0.805662 0.148616
H18   H     H_    0.519058 0.885401 0.212168 0.109158
H19   H     H_    0.523027 0.902182 0.614845 0.128682
H20   H     H_    0.481622 0.257218 0.318875 0.126594
C85   C     C_2   0.850018 0.604445 0.106069 0.456838
H21   H     H_    0.833589 0.467401 0.105722 0.094503
O29   O     O_2   0.885393 0.623896 0.075961 -0.531979
C86   C     C_2   0.147432 0.394191 0.899376 0.454893
H22   H     H_    0.164026 0.531174 0.900918 0.093179
O30   O     O_2   0.110863 0.374882 0.926369 -0.532951
C87   C     C_2   0.149092 0.115087 0.398758 0.455653
H23   H     H_    0.165813 0.978812 0.401853 0.100899
O31   O     O_2   0.112960 0.135601 0.426712 -0.532735
C88   C     C_2   0.862262 0.816133 0.564317 0.409107
H24   H     H_    0.846318 0.942357 0.535905 0.116121
O32   O     O_2   0.902671 0.771873 0.555749 -0.545936
Cl1   Cl    Cl    0.739535 0.605445 0.066750 -0.574326
Cl2   Cl    Cl    0.257631 0.390753 0.948962 -0.570039
Cl3   Cl    Cl    0.259427 0.124336 0.443089 -0.546938
Cl4   Cl    Cl    0.752986 0.808623 0.499143 -0.485817
Cl5   Cl    Cl    0.651244 0.296808 0.895175 -0.431907
Cl6   Cl    Cl    0.348506 0.733073 0.132376 -0.520016
Cl7   Cl    Cl    0.351111 0.792820 0.615977 -0.508689
Cl8   Cl    Cl    0.644429 0.044533 0.448017 -0.526226
C89   C     C_2   0.542277 0.333838 0.864669 0.516351
H25   H     H_    0.512890 0.419809 0.876262 0.066454
O33   O     O_2   0.556572 0.356880 0.802929 -0.458961
C90   C     C_2   0.454641 0.664790 0.152868 0.412440
H26   H     H_    0.439386 0.640940 0.205057 0.100999
O34   O     O_2   0.485763 0.558590 0.139519 -0.521522
C91   C     C_2   0.457468 0.742007 0.669084 0.425191
H27   H     H_    0.442664 0.862116 0.693766 0.089053
O35   O     O_2   0.488817 0.651270 0.712344 -0.499397
C92   C     C_2   0.536629 0.045243 0.414428 0.375556
H28   H     H_    0.553361 0.964993 0.373947 0.096606
O36   O     O_2   0.499886 0.983607 0.432547 -0.533665

loop_
_geom_bond_atom_site_label_1
_geom_bond_atom_site_label_2
_ccdc_geom_bond_type
O17   V3    S    
C35   C39   A    
N1    C17   A    
C22   C26   A    
C62   C74   A    
O19   V1    S    
O13   V1    S    
C76   H20   S    
O3    C7    A    
C87   H23   S    
C14   C46   A    
C76   C80   A    
C52   C84   A    
N1    C37   S    
O15   V3    S    
C89   H25   S    
C75   H19   S    
C91   O35   D    
C68   C83   A    
C42   C54   A    
O1    C5    A    
C44   C71   A    
C41   C53   A    
C32   C60   A    
C79   H15   S    
C42   C69   A    
C36   Cl4   S    
O2    V4    S    
C41   C70   A    
C87   O31   D    
N3    C39   S    
C18   C54   A    
C85   O29   D    
C11   H3    S    
O4    C8    A    
C25   C57   A    
C31   C35   A    
C30   C86   S    
C92   H28   S    
C22   H9    S    
C27   C59   A    
C15   C47   A    
O1    V3    S    
C82   C90   S    
C55   C80   A    
C73   H17   S    
C14   O22   S    
C54   C77   A    
C21   C37   A    
O3    V1    S    
C34   C38   A    
C12   H4    S    
C19   C55   A    
C1    O15   A    
C3    O13   A    
C11   C12   D    
C2    O16   A    
C7    C9    S    
O2    C6    A    
C61   C66   A    
C33   C37   A    
C25   H6    S    
O14   V2    S    
C66   C81   A    
C74   C78   A    
C43   C55   A    
C27   H8    S    
C73   C77   A    
C30   C58   A    
C83   C91   S    
C16   N4    A    
O11   C7    A    
C63   C68   A    
C13   C45   A    
O12   C8    A    
C77   H13   S    
C31   C59   A    
C49   Cl5   S    
O10   V2    S    
C67   C84   A    
C24   H11   S    
C13   N1    A    
C89   O33   D    
O5    V1    S    
C19   O28   S    
C65   C69   A    
C23   H12   S    
C64   C72   A    
O4    V2    S    
O7    V3    S    
C44   C48   A    
O8    V4    S    
C21   H10   S    
C74   H18   S    
C28   C60   A    
C86   O30   D    
C91   H27   S    
O18   V4    S    
N4    C40   S    
C46   C50   A    
C24   C40   A    
C64   C67   A    
C8    C10   S    
C32   C36   A    
C10   H2    S    
C44   C56   A    
O7    C3    A    
O5    C1    A    
C29   C85   S    
C42   C46   A    
C1    C60   S    
C41   C45   A    
O8    C4    A    
C28   H7    S    
C35   Cl3   S    
C9    C10   D    
C78   H14   S    
O9    C5    A    
C36   C40   A    
N2    C18   A    
O11   V3    S    
C50   Cl6   S    
N2    C38   S    
C14   N2    A    
C5    C11   S    
C3    C58   S    
C17   O26   S    
O6    V2    S    
C64   C76   A    
C26   C58   A    
C17   C53   A    
C20   O27   S    
C88   O32   D    
C4    C57   S    
C18   O25   S    
C23   C39   A    
C68   C72   A    
C63   C71   A    
C22   C38   A    
C9    H1    S    
O16   V4    S    
O9    V1    S    
C53   C78   A    
C90   H26   S    
C34   Cl2   S    
C48   C52   A    
C86   H22   S    
C16   C48   A    
C47   C51   A    
O6    C2    A    
C26   H5    S    
C75   C79   A    
C21   C25   A    
C80   H16   S    
O12   V4    S    
C62   C65   A    
C6    C12   S    
C63   C75   A    
C23   C27   A    
C65   C82   A    
C62   C70   A    
C24   C28   A    
C49   C81   A    
O10   C6    A    
C90   O34   D    
C61   C73   A    
C61   C69   A    
C85   H21   S    
C51   C83   A    
C15   N3    A    
C30   C34   A    
C92   O36   D    
C2    C59   S    
C29   C33   A    
O20   V2    S    
C29   C57   A    
C51   Cl7   S    
C43   C72   A    
C66   C70   A    
N3    C19   A    
C52   Cl8   S    
C50   C82   A    
C56   C79   A    
C33   Cl1   S    
C32   C88   S    
C43   C47   A    
N4    C20   A    
C20   C56   A    
C84   C92   S    
C31   C87   S    
C4    O14   A    
C13   O21   S    
C88   H24   S    
C67   C71   A    
C15   O23   S    
C45   C49   A    
C81   C89   S    
C16   O24   S    
