data_mof_unit_33362.cif
_audit_creation_date              2013-03-05T15:48:16-0500
_audit_creation_method            fapswitch 2.2
_symmetry_space_group_name_H-M    P1
_symmetry_Int_Tables_number       1
_space_group_crystal_system       triclinic
_cell_length_a                    11.774281
_cell_length_b                    12.990115
_cell_length_c                    15.855137
_cell_angle_alpha                 94.464018
_cell_angle_beta                  74.118543
_cell_angle_gamma                 99.654818
_cell_volume                      2298.12607306

loop_
_atom_site_label
_atom_site_type_symbol
_atom_site_description
_atom_site_fract_x
_atom_site_fract_y
_atom_site_fract_z
_atom_type_partial_charge
O1    O     O_R   0.419950 0.645670 0.495380 -0.568413
O2    O     O_R   0.580050 0.354330 0.504620 -0.568774
O3    O     O_R   0.611110 0.658410 0.506370 -0.544806
O4    O     O_R   0.388890 0.341590 0.493630 -0.545329
C1    C     C_R   0.521159 0.700565 0.500175 0.835616
C2    C     C_R   0.478812 0.299436 0.499904 0.833346
O5    O     O_R   0.350820 0.490050 0.621260 -0.506165
O6    O     O_R   0.649180 0.509950 0.378740 -0.503920
O7    O     O_R   0.541970 0.502800 0.632250 -0.577701
O8    O     O_R   0.458030 0.497200 0.367750 -0.583215
C3    C     C_R   0.426671 0.490811 0.667946 0.871758
C4    C     C_R   0.573401 0.510048 0.332294 0.869729
Cu1   Cu    Cu3+1 0.386820 0.492450 0.493500 1.084877
Cu2   Cu    Cu3+1 0.613180 0.507550 0.506500 1.088419
C5    C     C_R   0.382159 0.480387 0.764435 -0.208389
C6    C     C_R   0.618311 0.529955 0.237265 -0.206733
C7    C     C_R   0.223894 0.446924 0.899784 0.257202
C8    C     C_R   0.772052 0.596770 0.107688 0.258684
C9    C     C_R   0.260172 0.450984 0.807572 0.262735
C10   C     C_R   0.736833 0.575883 0.197887 0.264478
C11   C     C_R   0.465986 0.498698 0.813704 -0.234422
C12   C     C_R   0.536312 0.509648 0.186828 -0.251997
C13   C     C_R   0.432540 0.499729 0.905718 0.049498
C14   C     C_R   0.566975 0.533375 0.097986 0.046882
C15   C     C_R   0.309390 0.473638 0.948865 -0.024119
C16   C     C_R   0.687958 0.572056 0.057178 -0.016384
C17   C     C_R   0.518555 0.524804 0.955790 0.098562
C18   C     C_R   0.480396 0.516865 0.048480 0.098274
C19   C     C_R   0.356506 0.496115 0.089223 -0.174507
C20   C     C_R   0.641089 0.559440 0.916725 -0.182008
C21   C     C_R   0.273361 0.475276 0.040537 -0.064424
C22   C     C_R   0.723008 0.583839 0.966402 -0.068261
H1    H     H_    0.179795 0.461125 0.075926 0.221754
H2    H     H_    0.815308 0.609608 0.932131 0.219801
H3    H     H_    0.448197 0.472656 0.218176 0.224886
H4    H     H_    0.558273 0.509514 0.778188 0.211847
H5    H     H_    0.319981 0.499219 0.159403 0.174672
H6    H     H_    0.677494 0.571663 0.847705 0.190110
C23   C     C_R   0.465766 0.186178 0.503082 -0.060002
C24   C     C_R   0.534173 0.813828 0.497153 -0.063009
C25   C     C_R   0.659590 0.981973 0.469453 -0.156455
C26   C     C_R   0.340346 0.018048 0.530949 -0.157099
C27   C     C_R   0.647991 0.874075 0.473554 -0.087030
C28   C     C_R   0.351942 0.125953 0.526876 -0.093109
C29   C     C_R   0.431848 0.861981 0.515762 -0.205867
C30   C     C_R   0.568089 0.138019 0.484466 -0.204690
C31   C     C_R   0.442570 0.969769 0.511797 0.142977
C32   C     C_R   0.557365 0.030242 0.488517 0.141705
H7    H     H_    0.656196 0.184129 0.466606 0.202054
H8    H     H_    0.343744 0.815861 0.533544 0.202368
H9    H     H_    0.272033 0.162327 0.543792 0.211844
H10   H     H_    0.727891 0.837719 0.456771 0.218286
H11   H     H_    0.748119 0.027463 0.450964 0.173155
H12   H     H_    0.251819 0.972562 0.549501 0.172276
N1    N     N_R   0.216750 0.481110 0.483710 -0.274768
N2    N     N_R   0.783250 0.518890 0.516290 -0.273210
C33   C     C_R   0.942114 0.602945 0.578639 -0.250510
C34   C     C_R   0.058190 0.398231 0.420534 -0.247992
C35   C     C_R   0.825126 0.594018 0.570871 0.460055
C36   C     C_R   0.175325 0.407357 0.427894 0.458517
C37   C     C_R   0.859564 0.455244 0.464900 0.534280
C38   C     C_R   0.140303 0.544592 0.535330 0.534254
C39   C     C_R   0.979193 0.463003 0.470906 -0.107811
C40   C     C_R   0.020725 0.537183 0.529148 -0.103061
H13   H     H_    0.970535 0.663623 0.622493 0.230260
H14   H     H_    0.030195 0.338448 0.375841 0.233403
N3    N     N_R   0.247666 0.333956 0.378802 0.150040
O9    O     O_R   0.288702 0.344283 0.294616 -0.378135
O10   O     O_R   0.230426 0.240709 0.408871 -0.346512
N4    N     N_R   0.754371 0.670457 0.616200 0.151151
O11   O     O_R   0.694997 0.656289 0.697511 -0.384361
O12   O     O_R   0.782960 0.765480 0.588720 -0.350118
N5    N     N_R   0.818922 0.609698 0.250091 0.168878
O13   O     O_R   0.808834 0.694119 0.299625 -0.350624
O14   O     O_R   0.900652 0.554028 0.250952 -0.258913
N6    N     N_R   0.174951 0.414255 0.758245 0.168734
O15   O     O_R   0.183168 0.328004 0.710942 -0.344352
O16   O     O_R   0.088398 0.465951 0.761121 -0.254351
N7    N     N_R   0.101632 0.408241 0.942794 0.147782
O17   O     O_R   0.016333 0.457808 0.938336 -0.258644
O18   O     O_R   0.075284 0.322206 0.985622 -0.297494
N8    N     N_R   0.890411 0.650080 0.069381 0.149767
O19   O     O_R   0.983619 0.615751 0.078916 -0.252981
O20   O     O_R   0.904632 0.738707 0.031919 -0.304062
Cl1   Cl    Cl    0.188804 0.633383 0.612857 -0.561691
Cl2   Cl    Cl    0.811205 0.366750 0.387103 -0.558496

loop_
_geom_bond_atom_site_label_1
_geom_bond_atom_site_label_2
_geom_bond_distance
_ccdc_geom_bond_type
C15   C21   1.397761 A    
Cu2   N2    2.030570 S    
C16   C22   1.397589 A    
C25   C27   1.390145 A    
N5    O13   1.300804 A    
C8    C16   1.418494 A    
C11   H4    1.069474 S    
O5    C3    1.305115 A    
C12   H3    1.068678 S    
C30   H7    1.082755 S    
O1    C1    1.300182 A    
C18   C19   1.413257 A    
N6    O16   1.300357 A    
C27   H10   1.082285 S    
C33   C35   1.401087 A    
C34   C36   1.400314 A    
N1    C38   1.378700 A    
C7    N7    1.436402 S    
C20   H6    1.074231 S    
O4    Cu1   1.964091 S    
C37   C39   1.423905 A    
C38   C40   1.424701 A    
C7    C9    1.409045 A    
C3    C5    1.484273 S    
C34   H14   1.081748 S    
C24   C27   1.402780 A    
C4    C6    1.481674 S    
C36   N3    1.426362 S    
C6    C12   1.394817 A    
C21   H1    1.082652 S    
N4    O11   1.298140 A    
C13   C17   1.432203 A    
C6    C10   1.412469 A    
Cu1   Cu2   2.702481 S    
C17   C20   1.415681 A    
N5    O14   1.300524 A    
O2    C2    1.300121 A    
C26   C28   1.390188 A    
C29   C31   1.389406 A    
C24   C29   1.399771 A    
C38   Cl1   1.763499 S    
C30   C32   1.389399 A    
N3    O9    1.298568 A    
N6    O15   1.301163 A    
O4    C2    1.300505 A    
C33   H13   1.081785 S    
N7    O18   1.301133 A    
N7    O17   1.300427 A    
N3    O10   1.300063 A    
C22   H2    1.082345 S    
C5    C9    1.412679 A    
O7    Cu2   1.941357 S    
C31   C32   1.412862 A    
O5    Cu1   1.954324 S    
O6    C4    1.303283 A    
O7    C3    1.307613 A    
C25   H11   1.083875 S    
O3    Cu2   1.964092 S    
O8    C4    1.307583 A    
C23   C30   1.399797 A    
C28   H9    1.082458 S    
N8    O20   1.301405 A    
C11   C13   1.402825 A    
C12   C14   1.400521 A    
O1    Cu1   1.962456 S    
C33   C40   1.401988 A    
C34   C39   1.400816 A    
C9    N6    1.434227 S    
O6    Cu2   1.954325 S    
N2    C37   1.377843 A    
C14   C18   1.428167 A    
C14   C16   1.416467 A    
O3    C1    1.300406 A    
O8    Cu1   1.941357 S    
C23   C28   1.402874 A    
N2    C35   1.372988 A    
C7    C15   1.417354 A    
C19   C21   1.385537 A    
C26   H12   1.083879 S    
C20   C22   1.387646 A    
C29   H8    1.082724 S    
C8    N8    1.438422 S    
C25   C32   1.399196 A    
C10   N5    1.432151 S    
C8    C10   1.410290 A    
C26   C31   1.399201 A    
C13   C15   1.419065 A    
O2    Cu2   1.962455 S    
C37   Cl2   1.763879 S    
C35   N4    1.426610 S    
C39   C40   1.403911 A    
C5    C11   1.398323 A    
N8    O19   1.300610 A    
C1    C24   1.456646 S    
C19   H5    1.077786 S    
C17   C18   1.420892 A    
C2    C23   1.456767 S    
N4    O12   1.300330 A    
N1    C36   1.373489 A    
Cu1   N1    2.030571 S    
