data_mof_unit_30003.cif
_audit_creation_date              2012-12-10T18:52:56-0500
_audit_creation_method            fapswitch 2.2
_symmetry_space_group_name_H-M    P1
_symmetry_Int_Tables_number       1
_space_group_crystal_system       triclinic
_cell_length_a                    9.916178
_cell_length_b                    10.734374
_cell_length_c                    17.009041
_cell_angle_alpha                 90.197247
_cell_angle_beta                  82.891516
_cell_angle_gamma                 88.589607
_cell_volume                      1796.01076691

loop_
_atom_site_label
_atom_site_type_symbol
_atom_type_description
_atom_site_fract_x
_atom_site_fract_y
_atom_site_fract_z
_atom_type_partial_charge
C1    C     C_R   0.499091 0.739321 0.498015 0.887071
C2    C     C_R   0.500688 0.260282 0.501500 0.929699
C3    C     C_R   0.584756 0.933873 0.438633 0.122386
C4    C     C_R   0.408691 0.064597 0.557418 0.127347
C5    C     C_R   0.587931 0.063296 0.443169 0.054837
C6    C     C_R   0.408293 0.935269 0.554189 0.054405
C7    C     C_R   0.501312 0.127261 0.502330 -0.105458
C8    C     C_R   0.496622 0.871666 0.495987 -0.103561
C9    C     C_R   0.944813 0.445989 0.439130 0.236586
C10   C     C_R   0.055436 0.553886 0.561091 0.230369
C11   C     C_R   0.087655 0.445999 0.439757 -0.108163
C12   C     C_R   0.912510 0.553434 0.560474 -0.098173
C13   C     C_R   0.479156 0.505688 0.652600 0.889876
C14   C     C_R   0.520555 0.506708 0.347499 0.882361
C15   C     C_R   0.467726 0.536174 0.737062 -0.092417
C16   C     C_R   0.535067 0.544481 0.264361 -0.099370
C17   C     C_R   0.543448 0.637271 0.760943 0.128058
C18   C     C_R   0.461947 0.652282 0.242144 0.115121
C19   C     C_R   0.576291 0.642553 0.838475 0.130095
C20   C     C_R   0.478595 0.690821 0.162790 0.125795
C21   C     C_R   0.520211 0.555170 0.894154 0.052680
C22   C     C_R   0.567619 0.623167 0.106690 0.060465
C23   C     C_R   0.432045 0.465466 0.872314 -0.194932
C24   C     C_R   0.646285 0.523412 0.130402 -0.195869
C25   C     C_R   0.407296 0.453023 0.793981 0.144775
C26   C     C_R   0.626309 0.479428 0.207443 0.151083
C27   C     C_2   0.558712 0.544979 0.973959 -0.214781
C28   C     C_2   0.561472 0.643229 0.022013 -0.228623
H1    H     H_    0.535162 0.735169 0.002111 0.149559
H2    H     H_    0.566077 0.451192 0.997268 0.157458
H3    H     H_    0.389736 0.398999 0.915961 0.148757
H4    H     H_    0.716991 0.473285 0.087014 0.157900
H5    H     H_    0.154824 0.403474 0.391570 0.154410
H6    H     H_    0.845561 0.595238 0.608816 0.152513
N1    N     N_R   0.142790 0.500030 0.500020 -0.100185
N2    N     N_R   0.857210 0.499970 0.499980 -0.097572
O1    O     O_R   0.385380 0.683250 0.500010 -0.611836
O2    O     O_R   0.614620 0.316750 0.499990 -0.606636
O3    O     O_R   0.614710 0.683220 0.500000 -0.616465
O4    O     O_R   0.385290 0.316780 0.500000 -0.614793
O5    O     O_R   0.371780 0.500040 0.615800 -0.625616
O6    O     O_R   0.628220 0.499960 0.384200 -0.620129
O7    O     O_R   0.601110 0.500010 0.615800 -0.613344
O8    O     O_R   0.398890 0.499990 0.384200 -0.622551
Zn1   Zn    Zn3+2 0.346870 0.500020 0.500000 0.936176
Zn2   Zn    Zn3+2 0.653130 0.499980 0.500000 0.946005
C29   C     C_3   0.594200 0.739429 0.704724 -0.843672
H7    H     H_    0.562946 0.831724 0.731618 0.230291
H8    H     H_    0.706696 0.734136 0.692798 0.243835
H9    H     H_    0.551008 0.734967 0.648258 0.236426
C30   C     C_3   0.363692 0.724778 0.301968 -0.813455
H10   H     H_    0.324877 0.813107 0.278614 0.247381
H11   H     H_    0.274118 0.667801 0.321831 0.251620
H12   H     H_    0.415183 0.751051 0.353157 0.229047
C31   C     C_3   0.694832 0.356858 0.223244 -0.949417
H13   H     H_    0.806849 0.365669 0.212630 0.251146
H14   H     H_    0.665325 0.323046 0.283930 0.254521
H15   H     H_    0.665006 0.284742 0.182160 0.238716
C32   C     C_3   0.330947 0.342107 0.771544 -0.939797
H16   H     H_    0.250243 0.371162 0.735307 0.255174
H17   H     H_    0.404797 0.276175 0.738326 0.238742
H18   H     H_    0.281434 0.292824 0.824335 0.242038
N3    N     N_3   0.399231 0.794797 0.139127 -0.473022
H19   H     H_    0.337475 0.764343 0.097713 0.190022
H20   H     H_    0.465127 0.861748 0.113120 0.172256
N4    N     N_3   0.675704 0.730023 0.856570 -0.463661
H21   H     H_    0.747693 0.685858 0.887665 0.201006
H22   H     H_    0.627425 0.804135 0.889522 0.173783
C33   C     C_3   0.672778 0.866089 0.371327 -0.892609
H23   H     H_    0.654781 0.765142 0.367881 0.250205
H24   H     H_    0.651236 0.904002 0.313455 0.232232
H25   H     H_    0.781837 0.877903 0.377552 0.245353
C34   C     C_3   0.309713 0.131031 0.619941 -0.910934
H26   H     H_    0.323475 0.232111 0.623385 0.262607
H27   H     H_    0.203905 0.116317 0.607615 0.248508
H28   H     H_    0.321949 0.094378 0.679580 0.229750
N5    N     N_3   0.674245 0.131838 0.385661 -0.476423
H29   H     H_    0.774963 0.101525 0.386813 0.202033
H30   H     H_    0.646269 0.114642 0.329480 0.187094
N6    N     N_3   0.320556 0.866444 0.611040 -0.470593
H31   H     H_    0.219669 0.894356 0.607812 0.203141
H32   H     H_    0.344801 0.884455 0.667953 0.188235
C35   C     C_3   0.892877 0.389314 0.369183 -0.865927
H33   H     H_    0.970724 0.327858 0.334749 0.199064
H34   H     H_    0.805181 0.331645 0.389104 0.290834
H35   H     H_    0.865372 0.465042 0.329578 0.260896
C36   C     C_3   0.107515 0.611919 0.631030 -0.845908
H36   H     H_    0.030929 0.677248 0.663105 0.198160
H37   H     H_    0.131391 0.538250 0.672989 0.244668
H38   H     H_    0.198061 0.665914 0.611441 0.291323

loop_
_geom_bond_atom_site_label_1
_geom_bond_atom_site_label_2
_ccdc_geom_bond_type
N4    H22   S    
C36   H36   S    
N3    H20   S    
C1    C8    S    
C34   H26   S    
C2    C7    S    
C31   H13   S    
C26   C31   S    
C13   O5    A    
C29   H8    S    
N5    H29   S    
C22   C24   A    
C28   H1    S    
C19   C21   A    
C24   C26   A    
C15   C25   A    
C19   N4    S    
O6    Zn2   S    
C33   H24   S    
C35   H33   S    
C9    N2    A    
N2    Zn2   S    
C10   N1    A    
C12   N2    A    
C1    O1    A    
C14   O6    A    
N4    H21   S    
C21   C27   S    
C32   H16   S    
C22   C28   S    
C27   H2    S    
C34   H27   S    
C4    C7    A    
C18   C30   S    
C29   H9    S    
N5    H30   S    
C16   C26   A    
O4    Zn1   S    
C10   C36   S    
C32   H17   S    
C30   H10   S    
C11   H5    S    
N6    H32   S    
C3    C8    A    
C5    C7    A    
C6    C8    A    
C30   H11   S    
C23   H3    S    
C33   H25   S    
C24   H4    S    
C2    O2    A    
C6    N6    S    
C29   H7    S    
C31   H14   S    
C12   H6    S    
C9    C11   A    
C4    C34   S    
C10   C12   A    
C9    C35   S    
O3    Zn2   S    
C4    C6    A    
C35   H34   S    
C20   C22   A    
C13   C15   S    
C34   H28   S    
C14   C16   S    
C31   H15   S    
O1    Zn1   S    
N1    Zn1   S    
C13   O7    A    
O8    Zn1   S    
C14   O8    A    
C15   C17   A    
C32   H18   S    
C3    C33   S    
C17   C29   S    
N6    H31   S    
C3    C5    A    
C30   H12   S    
C20   N3    S    
C21   C23   A    
C11   N1    A    
C17   C19   A    
C18   C20   A    
C23   C25   A    
C33   H23   S    
O7    Zn2   S    
O2    Zn2   S    
C1    O3    A    
N3    H19   S    
C2    O4    A    
C35   H35   S    
C16   C18   A    
C36   H38   S    
C27   C28   D    
C36   H37   S    
O5    Zn1   S    
C25   C32   S    
C5    N5    S    
