data_mof_unit_19157.cif
_audit_creation_date              2012-12-10T17:55:49-0500
_audit_creation_method            fapswitch 2.2
_symmetry_space_group_name_H-M    P1
_symmetry_Int_Tables_number       1
_space_group_crystal_system       triclinic
_cell_length_a                    11.05594
_cell_length_b                    10.829366
_cell_length_c                    9.527098
_cell_angle_alpha                 90.58235
_cell_angle_beta                  102.612229
_cell_angle_gamma                 89.887052
_cell_volume                      1113.08655771

loop_
_atom_site_label
_atom_site_type_symbol
_atom_type_description
_atom_site_fract_x
_atom_site_fract_y
_atom_site_fract_z
_atom_type_partial_charge
C1    C     C_R   0.498107 0.262359 0.498909 0.823983
C2    C     C_R   0.497607 0.738013 0.500635 0.839642
C3    C     C_R   0.262781 0.499405 0.441784 0.835500
C4    C     C_R   0.737232 0.499648 0.558185 0.870420
C5    C     C_R   0.416035 0.431048 0.052248 0.001495
C6    C     C_R   0.584394 0.568477 0.947816 -0.036709
C7    C     C_R   0.416040 0.431045 0.903528 -0.033533
C8    C     C_R   0.584128 0.568753 0.096492 -0.034955
C9    C     C_2   0.127967 0.497715 0.408823 -0.365670
C10   C     C_2   0.872086 0.498703 0.591016 -0.354109
C11   C     C_2   0.067295 0.496778 0.515576 -0.155986
C12   C     C_2   0.932740 0.496538 0.484203 -0.152147
C13   C     C_R   0.437474 0.061889 0.371782 0.490819
C14   C     C_R   0.524857 0.940213 0.632564 0.472112
C15   C     C_R   0.447049 0.933930 0.372972 -0.325365
C16   C     C_R   0.534911 0.067250 0.626644 -0.329080
C17   C     C_R   0.491352 0.872171 0.502522 -0.214186
C18   C     C_R   0.491467 0.128866 0.497453 -0.205193
Cu1   Cu    Cu3+1 0.500000 0.500020 0.640660 0.940360
Cu2   Cu    Cu3+1 0.500000 0.499980 0.359340 0.948414
H1    H     H_    0.883018 0.495293 0.372254 0.180327
H2    H     H_    0.117010 0.497044 0.627526 0.177524
H3    H     H_    0.348847 0.375779 0.090449 0.123309
H4    H     H_    0.651601 0.623902 0.909528 0.147301
H5    H     H_    0.922049 0.499898 0.702797 0.144602
H6    H     H_    0.078066 0.497385 0.297021 0.146688
H7    H     H_    0.348889 0.375512 0.829941 0.119079
H8    H     H_    0.651259 0.624286 0.170075 0.127793
H9    H     H_    0.412759 0.882763 0.274042 0.183665
H10   H     H_    0.571784 0.117944 0.725373 0.190421
N1    N     N_R   0.500030 0.500030 0.852080 -0.164250
N2    N     N_R   0.499970 0.499970 0.147920 -0.160686
O1    O     O_R   0.499990 0.319660 0.618740 -0.594575
O2    O     O_R   0.500010 0.680340 0.381260 -0.589830
O3    O     O_R   0.499990 0.319630 0.381170 -0.546519
O4    O     O_R   0.500010 0.680370 0.618830 -0.560708
O5    O     O_R   0.320690 0.500020 0.575130 -0.591113
O6    O     O_R   0.679310 0.499980 0.424870 -0.585040
O7    O     O_R   0.320680 0.499990 0.337560 -0.595848
O8    O     O_R   0.679320 0.500010 0.662440 -0.582157
O9    O     O_3   0.375216 0.118423 0.246929 -0.609483
C19   C     C_3   0.258494 0.163155 0.264681 0.067055
H11   H     H_    0.219506 0.221022 0.170010 0.153548
H12   H     H_    0.266996 0.224557 0.360576 0.123742
C20   C     C_3   0.166002 0.058630 0.271666 -0.405704
H13   H     H_    0.160091 0.994767 0.178630 0.230142
H14   H     H_    0.197484 0.005233 0.372007 0.211986
C21   C     C_3   0.037221 0.110200 0.270582 -0.886044
H15   H     H_    0.040689 0.173599 0.363832 0.259492
H16   H     H_    0.972815 0.033146 0.277815 0.260138
H17   H     H_    0.001077 0.161060 0.169395 0.253559
O10   O     O_3   0.550682 0.884817 0.766142 -0.605130
C22   C     C_3   0.438154 0.867262 0.812261 0.089933
H18   H     H_    0.453626 0.792592 0.893129 0.169372
H19   H     H_    0.360859 0.835183 0.723391 0.133122
C23   C     C_3   0.398967 0.983905 0.883728 -0.377871
H20   H     H_    0.473375 0.011383 0.977308 0.248995
H21   H     H_    0.382523 0.061129 0.806312 0.212869
C24   C     C_3   0.278931 0.962014 0.933639 -0.887964
H22   H     H_    0.204399 0.930965 0.842089 0.245199
H23   H     H_    0.248908 0.049733 0.976500 0.275438
H24   H     H_    0.293040 0.891101 0.019026 0.251810

loop_
_geom_bond_atom_site_label_1
_geom_bond_atom_site_label_2
_ccdc_geom_bond_type
C11   C12   S    
C6    H4    S    
C3    C9    S    
C2    O4    A    
Cu2   O6    S    
O9    C19   S    
C11   H2    S    
Cu1   Cu2   S    
C5    H3    S    
C23   C24   S    
C5    N2    A    
Cu1   N1    S    
C2    O2    A    
C13   O9    S    
C6    N1    A    
C3    O7    A    
C24   H22   S    
C22   H18   S    
C23   H20   S    
C2    C17   S    
C9    C11   D    
C14   C17   A    
C3    O5    A    
C1    C18   S    
C19   H12   S    
C13   C18   A    
C10   C12   D    
C10   H5    S    
C21   H16   S    
C21   H15   S    
C4    O6    A    
C9    H6    S    
C15   H9    S    
C5    C7    A    
Cu1   O4    S    
C13   C15   A    
Cu1   O1    S    
C8    H8    S    
C14   C16   A    
C24   H23   S    
C7    N1    A    
Cu1   O8    S    
C22   H19   S    
C1    O1    A    
Cu2   O2    S    
C8    N2    A    
C16   H10   S    
C7    H7    S    
O10   C22   S    
C1    O3    A    
C16   C18   A    
Cu2   N2    S    
C20   H14   S    
C22   C23   S    
C15   C17   A    
Cu2   O7    S    
C24   H24   S    
C6    C8    A    
Cu1   O5    S    
C20   H13   S    
Cu2   O3    S    
C4    C10   S    
C12   H1    S    
C21   H17   S    
C14   O10   S    
C4    O8    A    
C19   H11   S    
C23   H21   S    
C20   C21   S    
C19   C20   S    
