data_mof_unit_14805.cif
_audit_creation_date              2012-12-10T17:38:46-0500
_audit_creation_method            fapswitch 2.2
_symmetry_space_group_name_H-M    P1
_symmetry_Int_Tables_number       1
_space_group_crystal_system       triclinic
_cell_length_a                    12.46784
_cell_length_b                    13.213817
_cell_length_c                    23.453458
_cell_angle_alpha                 75.488774
_cell_angle_beta                  101.493813
_cell_angle_gamma                 117.183725
_cell_volume                      3311.30431636

loop_
_atom_site_label
_atom_site_type_symbol
_atom_type_description
_atom_site_fract_x
_atom_site_fract_y
_atom_site_fract_z
_atom_type_partial_charge
C1    C     C_R   0.854782 0.286007 0.507778 0.958809
C2    C     C_R   0.767066 0.386419 0.019398 0.587263
C3    C     C_R   0.768304 0.390112 0.959640 0.585175
C4    C     C_R   0.878615 0.442516 0.934021 -0.229804
C5    C     C_R   0.988706 0.491884 0.969419 -0.160290
C6    C     C_R   0.099803 0.544410 0.944215 -0.169014
C7    C     C_R   0.208970 0.593185 0.979827 0.580942
C8    C     C_R   0.208468 0.592672 0.039542 0.381777
C9    C     C_R   0.882390 0.446749 0.873892 0.731348
C10   C     C_R   0.098331 0.546291 0.883837 0.659431
C11   C     C_R   0.012069 0.599549 0.747402 0.569995
C12   C     C_R   0.999728 0.499281 0.608575 0.909608
C13   C     C_R   0.016875 0.601507 0.687964 0.341473
C14   C     C_R   0.999686 0.500222 0.670611 -0.251773
C15   C     C_R   0.977020 0.398230 0.712335 -0.351466
C16   C     C_R   0.976071 0.397110 0.771985 0.472004
C17   C     C_R   0.992753 0.498037 0.789429 0.042414
C18   C     C_R   0.011922 0.401565 0.255297 0.361499
C19   C     C_R   0.017856 0.408250 0.314613 0.379042
C20   C     C_R   0.991881 0.491312 0.329060 -0.440858
C21   C     C_R   0.956664 0.565526 0.283551 0.450956
C22   C     C_R   0.953311 0.560639 0.224552 0.562492
C23   C     C_R   0.145166 0.714240 0.491728 0.871081
C24   C     C_R   0.982624 0.480220 0.210211 -0.068319
C25   C     C_R   0.281505 0.034407 0.427687 0.597082
C26   C     C_R   0.227936 0.839001 0.483180 -0.361419
C27   C     C_R   0.799856 0.092056 0.570285 0.450251
C28   C     C_R   0.709062 0.003108 0.603727 0.306178
C29   C     C_R   0.587044 0.978397 0.584816 0.435663
C30   C     C_R   0.554389 0.029972 0.527043 -0.111696
C31   C     C_R   0.647306 0.125760 0.495833 -0.221533
C32   C     C_R   0.433120 0.991150 0.499388 -0.134788
C33   C     C_R   0.402778 0.066665 0.451404 -0.288345
C34   C     C_R   0.998252 0.498245 0.391311 0.948584
C35   C     C_R   0.495305 0.166703 0.423723 0.449326
C36   C     C_R   0.615678 0.184492 0.440612 0.428384
C37   C     C_R   0.344971 0.875826 0.513417 0.537767
C38   C     C_R   0.195913 0.919732 0.440786 0.279526
C39   C     C_R   0.769489 0.162642 0.520878 -0.239735
C40   C     C_R   0.339404 0.320826 0.593139 0.520976
C41   C     C_R   0.763494 0.651487 0.421904 0.688832
C42   C     C_R   0.683293 0.701092 0.412995 0.395925
C43   C     C_R   0.587979 0.654568 0.448387 0.356407
C44   C     C_R   0.560842 0.545912 0.486944 -0.229424
C45   C     C_R   0.093161 0.530690 0.126122 0.705613
C46   C     C_R   0.654014 0.505800 0.499611 -0.145775
C47   C     C_R   0.449694 0.479291 0.515826 -0.211239
C48   C     C_R   0.442848 0.385211 0.562460 -0.340921
C49   C     C_R   0.538621 0.354598 0.577948 0.623070
C50   C     C_R   0.639949 0.411261 0.547492 0.573100
C51   C     C_R   0.340412 0.494843 0.498369 0.632857
C52   C     C_R   0.246067 0.355385 0.581564 0.483785
C53   C     C_R   0.877077 0.432736 0.115565 0.698257
C54   C     C_R   0.876118 0.435034 0.055230 -0.221816
C55   C     C_R   0.987597 0.488099 0.030140 -0.145097
C56   C     C_R   0.097731 0.537403 0.065629 -0.176037
Cu1   Cu    Cu3+1 0.098270 0.475410 0.513370 1.093273
Cu2   Cu    Cu3+1 0.901730 0.524590 0.486630 1.109324
H1    H     H_    0.956612 0.318787 0.698371 0.184266
N1    N     N_R   0.984281 0.479964 0.149292 -0.418413
N2    N     N_R   0.990958 0.497543 0.850436 -0.442335
N3    N     N_R   0.246280 0.438190 0.533650 -0.300489
N4    N     N_R   0.754320 0.561190 0.466710 -0.277214
O1    O     O_R   0.972510 0.318130 0.516820 -0.505251
O2    O     O_2   0.772098 0.383796 0.140661 -0.432363
O3    O     O_2   0.778852 0.400778 0.838890 -0.401920
O4    O     O_2   0.203047 0.595719 0.858464 -0.444888
O5    O     O_R   0.806530 0.359650 0.494230 -0.524384
O6    O     O_R   0.082990 0.479200 0.593420 -0.589353
O7    O     O_R   0.917010 0.520720 0.570830 -0.489764
O8    O     O_R   0.193470 0.640350 0.505770 -0.510968
O9    O     O_R   0.027490 0.681870 0.483180 -0.518473
O10   O     O_R   0.082990 0.479280 0.429170 -0.544208
O11   O     O_R   0.917010 0.520800 0.406580 -0.493614
O12   O     O_2   0.196136 0.574798 0.161779 -0.462362
F1    F     F_    0.658061 0.334664 0.041762 -0.546449
F2    F     F_    0.043687 0.330327 0.357872 -0.630894
F3    F     F_    0.928006 0.644547 0.296001 -0.581861
F4    F     F_    0.923452 0.635629 0.180998 -0.569381
O13   O     O_3   0.083914 0.885555 0.408169 -0.497877
C57   C     C_3   0.096583 0.869533 0.352883 0.051045
H2    H     H_    0.011072 0.855533 0.323848 0.260992
H3    H     H_    0.114193 0.792129 0.358519 0.126685
H4    H     H_    0.169115 0.946640 0.329218 0.138369
O14   O     O_3   0.468302 0.233330 0.372420 -0.497900
C58   C     C_3   0.492621 0.340992 0.385138 -0.113709
H5    H     H_    0.591412 0.392711 0.395109 0.161843
H6    H     H_    0.442520 0.330151 0.422275 0.116186
H7    H     H_    0.461564 0.390674 0.345450 0.199436
F5    F     F_    0.246926 0.110353 0.387239 -0.584496
F6    F     F_    0.376634 0.794523 0.550247 -0.625836
F7    F     F_    0.917578 0.117359 0.590159 -0.583088
O15   O     O_3   0.503386 0.909663 0.625414 -0.508279
C59   C     C_3   0.464290 0.979533 0.644478 -0.152527
H8    H     H_    0.398491 0.001360 0.610437 0.175723
H9    H     H_    0.541069 0.060299 0.656228 0.195081
H10   H     H_    0.417705 0.930186 0.684981 0.187876
O16   O     O_3   0.738604 0.939227 0.655516 -0.506178
C60   C     C_3   0.779355 0.004490 0.701147 -0.077298
H11   H     H_    0.708556 0.026888 0.709136 0.138488
H12   H     H_    0.864211 0.084272 0.691931 0.170540
H13   H     H_    0.799646 0.951142 0.742675 0.200034
F8    F     F_    0.660486 0.341692 0.927228 -0.547324
O17   O     O_3   0.701499 0.259704 0.402025 -0.580357
C61   C     C_3   0.717796 0.194188 0.368224 -0.210480
H14   H     H_    0.630434 0.138015 0.345836 0.180615
H15   H     H_    0.764004 0.141225 0.396072 0.179504
H16   H     H_    0.776131 0.254392 0.332987 0.184485
O18   O     O_3   0.144700 0.294341 0.612370 -0.471774
C62   C     C_3   0.176414 0.307308 0.672279 -0.149681
H17   H     H_    0.094722 0.253390 0.696146 0.160070
H18   H     H_    0.208673 0.398851 0.676621 0.139591
H19   H     H_    0.245201 0.275702 0.695092 0.208387
F9    F     F_    0.536027 0.267688 0.624167 -0.588699
F10   F     F_    0.326132 0.221894 0.632575 -0.585230
O19   O     O_3   0.321652 0.558345 0.444051 -0.513535
C63   C     C_3   0.309444 0.499223 0.398807 -0.104395
H20   H     H_    0.266612 0.534829 0.357824 0.197568
H21   H     H_    0.251638 0.404519 0.409908 0.199040
H22   H     H_    0.398753 0.513661 0.388482 0.114024
F11   F     F_    0.856764 0.699502 0.388291 -0.563500
O20   O     O_3   0.527040 0.720187 0.446494 -0.496706
C64   C     C_3   0.587111 0.792449 0.488840 -0.101546
H23   H     H_    0.685709 0.843964 0.483765 0.144357
H24   H     H_    0.572991 0.741246 0.534472 0.188461
H25   H     H_    0.547982 0.855096 0.481824 0.192392
F12   F     F_    0.702611 0.799606 0.372418 -0.587137
F13   F     F_    0.722518 0.370350 0.570321 -0.635007
F14   F     F_    0.317636 0.641785 0.957324 -0.571958
O21   O     O_3   0.318093 0.641401 0.072774 -0.495427
C65   C     C_3   0.354106 0.761663 0.064211 -0.069953
H26   H     H_    0.284860 0.780943 0.076922 0.140736
H27   H     H_    0.373448 0.804103 0.017698 0.181285
H28   H     H_    0.438958 0.799978 0.093062 0.203695
F15   F     F_    0.025141 0.695972 0.764250 -0.596407
O22   O     O_3   0.030482 0.700175 0.646255 -0.529895
C66   C     C_3   0.155260 0.771871 0.643529 -0.180468
H29   H     H_    0.202383 0.727300 0.631383 0.160850
H30   H     H_    0.198401 0.802304 0.686097 0.200511
H31   H     H_    0.166545 0.849241 0.608611 0.190707
O23   O     O_3   0.949170 0.295085 0.812584 -0.546517
C67   C     C_3   0.056975 0.281620 0.832832 -0.233292
H32   H     H_    0.125212 0.354039 0.854975 0.187426
H33   H     H_    0.095714 0.273839 0.796229 0.141668
H34   H     H_    0.035809 0.200503 0.866040 0.211066
O24   O     O_3   0.042006 0.322923 0.241169 -0.505460
C68   C     C_3   0.938375 0.216203 0.242722 -0.115840
H35   H     H_    0.862812 0.224469 0.210533 0.145430
H36   H     H_    0.908393 0.179572 0.288026 0.190521
H37   H     H_    0.961601 0.153785 0.229955 0.203263

loop_
_geom_bond_atom_site_label_1
_geom_bond_atom_site_label_2
_ccdc_geom_bond_type
C29   O15   S    
C55   C56   A    
C45   N1    A    
O15   C59   S    
C11   C13   A    
C41   C42   A    
C35   C36   A    
C12   O6    A    
C65   H28   S    
C8    C56   A    
C57   H2    S    
Cu1   N3    S    
C10   O4    S    
C66   H30   S    
C25   F5    S    
C18   C24   A    
C28   C29   A    
C68   H36   S    
C22   F4    S    
C63   H21   S    
O14   C58   S    
C5    C6    A    
C58   H6    S    
C64   H24   S    
C40   F10   S    
Cu1   O10   S    
C15   C16   A    
C1    O5    A    
O19   C63   S    
C18   C19   A    
C23   C26   S    
C41   F11   S    
C19   F2    S    
C62   H17   S    
C68   H35   S    
C17   N2    S    
C9    O3    S    
C47   C48   A    
C45   C56   A    
C27   C39   A    
C16   C17   A    
C21   F3    S    
C53   O2    S    
C31   C36   A    
C44   C47   A    
C20   C34   S    
C49   F9    S    
C13   C14   A    
C67   H34   S    
C51   N3    A    
O17   C61   S    
C57   H3    S    
C53   N1    A    
C44   C46   A    
C66   H31   S    
C32   C37   A    
C37   F6    S    
C23   O8    A    
C64   H23   S    
C68   H37   S    
C2    C54   A    
C63   H22   S    
C58   H5    S    
C26   C38   A    
C64   H25   S    
C47   C51   A    
C59   H10   S    
C65   H27   S    
C53   C54   A    
C43   C44   A    
C29   C30   A    
C11   F15   S    
C25   C38   A    
C61   H15   S    
O21   C65   S    
C60   H11   S    
C62   H19   S    
C24   N1    S    
C27   F7    S    
C61   H16   S    
Cu1   O8    S    
C59   H9    S    
C43   O20   S    
C42   F12   S    
C34   O11   A    
Cu2   O5    S    
C48   C49   A    
C60   H12   S    
C12   C14   S    
C49   C50   A    
C8    O21   S    
C13   O22   S    
C9    N2    A    
C10   N2    A    
C50   F13   S    
C42   C43   A    
C41   N4    A    
C65   H26   S    
C1    O1    A    
C57   H4    S    
C2    F1    S    
Cu2   O11   S    
Cu1   O1    S    
O24   C68   S    
C61   H14   S    
C3    F8    S    
Cu2   N4    S    
C40   C48   A    
C12   O7    A    
C54   C55   A    
C11   C17   A    
C67   H32   S    
C15   H1    S    
C23   O9    A    
C5    C55   A    
Cu2   O7    S    
O13   C57   S    
C18   O24   S    
C58   H7    S    
C6    C10   A    
C28   O16   S    
C26   C37   A    
C6    C7    A    
C66   H29   S    
C46   C50   A    
C63   H20   S    
C51   O19   S    
C45   O12   S    
C46   N4    A    
C36   O17   S    
C32   C33   A    
C19   C20   A    
C16   O23   S    
O20   C64   S    
C40   C52   A    
O23   C67   S    
C30   C32   A    
C35   O14   S    
Cu2   O9    S    
Cu1   Cu2   S    
C30   C31   A    
C38   O13   S    
C52   O18   S    
C33   C35   A    
C31   C39   A    
C2    C3    A    
C22   C24   A    
C59   H8    S    
C62   H18   S    
C7    F14   S    
C7    C8    A    
C1    C39   S    
C34   O10   A    
C4    C5    A    
C60   H13   S    
C20   C21   A    
O16   C60   S    
O18   C62   S    
C27   C28   A    
C14   C15   A    
O22   C66   S    
C52   N3    A    
Cu1   O6    S    
C4    C9    A    
C21   C22   A    
C67   H33   S    
C3    C4    A    
C25   C33   A    
