data_mof_unit_58621.cif
_audit_creation_date              2012-10-26T20:21:43-0400
_audit_creation_method            fapswitch 2.2
_symmetry_space_group_name_H-M    P1
_symmetry_Int_Tables_number       1
_space_group_crystal_system       orthorhombic
_cell_length_a                    15.822188
_cell_length_b                    14.788123
_cell_length_c                    9.653893
_cell_angle_alpha                 90.0
_cell_angle_beta                  90.0
_cell_angle_gamma                 90.0
_cell_volume                      2258.82234688

loop_
_atom_site_label
_atom_site_type_symbol
_atom_type_description
_atom_site_fract_x
_atom_site_fract_y
_atom_site_fract_z
_atom_type_partial_charge
C1    C     C_R   0.118952 0.381444 0.500000 0.564683
C2    C     C_R   1.000000 0.579892 0.925935 0.187235
C3    C     C_R   1.000000 0.579892 0.074065 0.187235
C4    C     C_R   1.000000 0.420108 0.925935 0.187235
C5    C     C_R   0.500000 0.920108 0.074065 0.187235
C6    C     C_R   0.500000 0.079892 0.925935 0.187235
C7    C     C_R   0.500000 0.079892 0.074065 0.187235
C8    C     C_R   0.500000 0.920108 0.925935 0.187235
C9    C     C_R   0.781618 0.282288 0.374208 -0.110643
C10   C     C_R   0.218381 0.717712 0.625792 -0.110643
C11   C     C_R   0.218381 0.717712 0.374208 -0.110643
C12   C     C_R   0.881048 0.618556 0.500000 0.564683
C13   C     C_R   0.781618 0.282288 0.625792 -0.110643
C14   C     C_R   0.218381 0.282288 0.625792 -0.110643
C15   C     C_R   0.781618 0.717712 0.374208 -0.110643
C16   C     C_R   0.781618 0.717712 0.625792 -0.110643
C17   C     C_R   0.218381 0.282288 0.374208 -0.110643
C18   C     C_R   0.281618 0.782288 0.374208 -0.110643
C19   C     C_R   0.718381 0.217712 0.625792 -0.110643
C20   C     C_R   0.718381 0.217712 0.374208 -0.110643
C21   C     C_R   0.281618 0.782288 0.625792 -0.110643
C22   C     C_R   0.718381 0.782288 0.625792 -0.110643
C23   C     C_R   0.881048 0.381444 0.500000 0.564683
C24   C     C_R   0.281618 0.217712 0.374208 -0.110643
C25   C     C_R   0.281618 0.217712 0.625792 -0.110643
C26   C     C_R   0.718381 0.782288 0.374208 -0.110643
C27   C     C_R   0.186169 0.685386 0.500000 0.025713
C28   C     C_R   0.813831 0.314614 0.500000 0.025713
C29   C     C_R   0.813831 0.685386 0.500000 0.025713
C30   C     C_R   0.186169 0.314614 0.500000 0.025713
C31   C     C_R   0.686169 0.185386 0.500000 0.025713
C32   C     C_R   0.313831 0.814614 0.500000 0.025713
C33   C     C_R   0.313831 0.185386 0.500000 0.025713
C34   C     C_R   0.118952 0.618556 0.500000 0.564683
C35   C     C_R   0.686169 0.814614 0.500000 0.025713
C36   C     C_R   0.618952 0.881444 0.500000 0.564683
C37   C     C_R   0.381048 0.118556 0.500000 0.564683
C38   C     C_R   0.381048 0.881444 0.500000 0.564683
C39   C     C_R   0.618952 0.118556 0.500000 0.564682
C40   C     C_R   1.000000 0.420108 0.074065 0.187235
Cu1   Cu    Cu3+1 1.000000 0.500000 0.640660 1.031748
Cu2   Cu    Cu3+1 1.000000 0.500000 0.359340 1.031748
Cu3   Cu    Cu3+1 0.500000 0.000000 0.640660 1.031748
Cu4   Cu    Cu3+1 0.500000 0.000000 0.359340 1.031748
H1    H     H_    0.805077 0.306682 0.275716 0.164504
H2    H     H_    0.694923 0.193318 0.724284 0.164504
H3    H     H_    0.694923 0.193318 0.275716 0.164504
H4    H     H_    0.305077 0.806682 0.724284 0.164504
H5    H     H_    0.694923 0.806682 0.724284 0.164504
H6    H     H_    0.305077 0.193318 0.275716 0.164504
H7    H     H_    0.305077 0.193318 0.724284 0.164504
H8    H     H_    0.694923 0.806682 0.275716 0.164504
H9    H     H_    0.194923 0.693318 0.724284 0.164504
H10   H     H_    0.194923 0.693318 0.275716 0.164504
H11   H     H_    0.805077 0.306682 0.724284 0.164504
H12   H     H_    0.194923 0.306682 0.724284 0.164504
H13   H     H_    0.805077 0.693318 0.275716 0.164504
H14   H     H_    0.805077 0.693318 0.724284 0.164504
H15   H     H_    0.194923 0.306682 0.275716 0.164504
H16   H     H_    0.305077 0.806682 0.275716 0.164504
I1    I     I_    1.000000 0.291602 0.178156 -0.299136
I2    I     I_    1.000000 0.708398 0.821844 -0.299136
I3    I     I_    1.000000 0.708398 0.178156 -0.299135
I4    I     I_    1.000000 0.291602 0.821844 -0.299135
I5    I     I_    0.500000 0.791602 0.178156 -0.299135
I6    I     I_    0.500000 0.208398 0.821844 -0.299136
I7    I     I_    0.500000 0.208398 0.178156 -0.299135
I8    I     I_    0.500000 0.791602 0.821844 -0.299136
N1    N     N_R   1.000000 0.500000 0.852070 -0.251229
N2    N     N_R   1.000000 0.500000 0.147930 -0.251229
N3    N     N_R   0.500000 0.000000 0.852070 -0.251229
N4    N     N_R   0.500000 0.000000 0.147930 -0.251229
O1    O     O_R   0.090170 0.409820 0.618740 -0.488238
O2    O     O_R   0.409830 0.090180 0.381260 -0.488238
O3    O     O_R   0.409830 0.090180 0.618740 -0.488238
O4    O     O_R   0.590170 0.909820 0.381260 -0.488238
O5    O     O_R   0.409830 0.909820 0.381260 -0.488238
O6    O     O_R   0.590170 0.090180 0.618740 -0.488238
O7    O     O_R   0.590170 0.090180 0.381260 -0.488238
O8    O     O_R   0.409830 0.909820 0.618740 -0.488238
O9    O     O_R   0.909830 0.590180 0.381260 -0.488238
O10   O     O_R   0.909830 0.590180 0.618740 -0.488238
O11   O     O_R   0.090170 0.409820 0.381260 -0.488238
O12   O     O_R   0.909830 0.409820 0.381260 -0.488238
O13   O     O_R   0.090170 0.590180 0.618740 -0.488238
O14   O     O_R   0.090170 0.590180 0.381260 -0.488238
O15   O     O_R   0.909830 0.409820 0.618740 -0.488238
O16   O     O_R   0.590170 0.909820 0.618740 -0.488238

loop_
_geom_bond_atom_site_label_1
_geom_bond_atom_site_label_2
_ccdc_geom_bond_type
C10   C27   A    
C14   H12   S    
C37   O2    A    
C11   C18   A    
C9    H1    S    
C12   C29   S    
Cu1   Cu2   S    
C35   C36   S    
C19   C31   A    
C19   H2    S    
C36   O16   A    
Cu3   O6    S    
C22   C35   A    
C40   N2    A    
Cu3   O16   S    
Cu4   O5    S    
C5    N4    A    
Cu2   N2    S    
C34   O14   A    
Cu4   O4    S    
C10   H9    S    
C36   O4    A    
C4    C40   A    
C16   C22   A    
C13   C28   A    
Cu2   O14   S    
C32   C38   S    
C2    N1    A    
C21   H4    S    
C37   O3    A    
C10   C21   A    
C23   O15   A    
Cu3   O3    S    
C17   C30   A    
C15   H13   S    
Cu2   O9    S    
C14   C30   A    
C4    N1    A    
C15   C29   A    
C27   C34   S    
C24   H6    S    
C6    N3    A    
Cu1   O15   S    
C21   C32   A    
C17   C24   A    
C23   O12   A    
C13   C19   A    
C39   O6    A    
C3    N2    A    
Cu2   O12   S    
C5    I5    S    
C7    N4    A    
C15   C26   A    
Cu3   O8    S    
Cu1   O1    S    
C33   C37   S    
C40   I1    S    
C34   O13   A    
C39   O7    A    
Cu3   Cu4   S    
C25   H7    S    
C26   H8    S    
C9    C20   A    
C11   C27   A    
C12   O10   A    
C16   H14   S    
C23   C28   S    
Cu4   O2    S    
C11   H10   S    
C17   H15   S    
C22   H5    S    
C18   H16   S    
C8    I8    S    
C18   C32   A    
Cu1   N1    S    
C8    N3    A    
Cu3   N3    S    
Cu4   O7    S    
Cu2   O11   S    
C5    C8    A    
C6    C7    A    
C38   O5    A    
C3    I3    S    
C1    O11   A    
Cu1   O13   S    
C4    I4    S    
C24   C33   A    
C1    O1    A    
C2    C3    A    
C16   C29   A    
C38   O8    A    
Cu1   O10   S    
C1    C30   S    
C31   C39   S    
C12   O9    A    
Cu4   N4    S    
C14   C25   A    
C20   H3    S    
C7    I7    S    
C26   C35   A    
C6    I6    S    
C2    I2    S    
C9    C28   A    
C25   C33   A    
C13   H11   S    
C20   C31   A    
