data_mof_unit_65096.cif
_audit_creation_date              2012-12-10T16:59:17-0500
_audit_creation_method            fapswitch 2.2
_symmetry_space_group_name_H-M    P1
_symmetry_Int_Tables_number       1
_space_group_crystal_system       triclinic
_cell_length_a                    13.139746
_cell_length_b                    13.191367
_cell_length_c                    17.82865
_cell_angle_alpha                 110.389034
_cell_angle_beta                  73.178737
_cell_angle_gamma                 90.871861
_cell_volume                      2760.06266543

loop_
_atom_site_label
_atom_site_type_symbol
_atom_type_description
_atom_site_fract_x
_atom_site_fract_y
_atom_site_fract_z
_atom_type_partial_charge
C1    C     C_R   0.217188 0.545176 0.530486 0.518199
C2    C     C_R   0.538373 0.364712 0.904885 -0.136746
C3    C     C_R   0.582172 0.297584 0.934756 -0.132194
C4    C     C_R   0.781806 0.455302 0.468258 0.506791
C5    C     C_R   0.573372 0.330639 0.019554 0.043400
C6    C     C_R   0.514286 0.430592 0.076461 0.025245
C7    C     C_R   0.624135 0.265277 0.048125 -0.131524
C8    C     C_R   0.618870 0.299542 0.132431 -0.126265
C9    C     C_R   0.523784 0.469778 0.157973 -0.128402
C10   C     C_2   0.894983 0.436874 0.456688 -0.106732
C11   C     C_2   0.949033 0.519868 0.486351 -0.143974
C12   C     C_R   0.345126 0.675791 0.872516 -0.129272
C13   C     C_2   0.104557 0.570079 0.537944 0.104264
C14   C     C_2   0.058597 0.498651 0.486050 -0.114510
C15   C     C_2   0.534708 0.896052 0.533974 -0.065348
C16   C     C_R   0.471378 0.217457 0.475060 0.498312
C17   C     C_2   0.510817 0.934640 0.479956 0.075227
C18   C     C_2   0.464974 0.101322 0.459596 -0.091125
C19   C     C_2   0.512153 0.051918 0.496572 -0.105300
C20   C     C_R   0.528554 0.782355 0.524918 0.507314
C21   C     C_R   0.551475 0.432945 0.276754 0.495769
C22   C     C_R   0.448382 0.566252 0.723905 0.503825
C23   C     C_R   0.466846 0.521864 0.844011 -0.128212
C24   C     C_R   0.420677 0.589719 0.814917 0.017785
C25   C     C_R   0.570223 0.402638 0.186996 0.034924
C26   C     C_R   0.315077 0.692530 0.957845 -0.134980
C27   C     C_3   0.297087 0.571079 0.190163 -0.252621
C28   C     C_3   0.255693 0.460724 0.187756 -0.292524
C29   C     C_3   0.188184 0.466173 0.274851 -0.438916
C30   C     C_R   0.434586 0.534617 0.929691 0.023824
C31   C     C_R   0.358787 0.622441 0.986787 0.037041
C32   C     C_R   0.476656 0.463608 0.960106 0.019721
C33   C     C_R   0.452590 0.489661 0.048486 0.039665
C34   C     C_R   0.363886 0.568344 0.103346 -0.006220
C35   C     C_R   0.322842 0.636590 0.071648 -0.121767
H1    H     H_    0.258683 0.699360 0.113104 0.101362
H2    H     H_    0.653418 0.246304 0.155011 0.109594
H3    H     H_    0.626664 0.221176 0.890658 0.109250
H4    H     H_    0.256014 0.759315 0.001171 0.107833
H5    H     H_    0.308414 0.729530 0.851607 0.136748
H6    H     H_    0.528909 0.460374 0.798540 0.128036
H7    H     H_    0.550032 0.334122 0.838224 0.107733
H8    H     H_    0.094775 0.721807 0.627691 0.253007
H9    H     H_    0.988032 0.652329 0.644949 0.226454
H10   H     H_    0.545429 0.806033 0.369645 0.252121
H11   H     H_    0.415441 0.826091 0.429239 0.229674
H12   H     H_    0.666297 0.187114 0.005579 0.109371
H13   H     H_    0.236779 0.488202 0.318900 0.174377
H14   H     H_    0.118028 0.527262 0.299412 0.161728
H15   H     H_    0.159075 0.385646 0.271221 0.144543
H16   H     H_    0.206211 0.436509 0.144356 0.167293
H17   H     H_    0.322768 0.396771 0.164667 0.180800
H18   H     H_    0.338267 0.602507 0.238261 0.133081
H19   H     H_    0.225376 0.630463 0.214679 0.138704
H20   H     H_    0.102024 0.420973 0.442768 0.129465
H21   H     H_    0.909901 0.602190 0.515186 0.170532
H22   H     H_    0.930381 0.353717 0.434223 0.095970
H23   H     H_    0.551888 0.099220 0.541349 0.131461
H24   H     H_    0.422643 0.055771 0.416342 0.147516
H25   H     H_    0.550119 0.951264 0.590233 0.065069
H26   H     H_    0.497975 0.552594 0.199065 0.102524
N1    N     N_3   0.045275 0.670806 0.598183 -0.642382
N2    N     N_3   0.481770 0.865014 0.408348 -0.631959
O1    O     O_3   0.500000 0.500000 0.500000 -0.433082
O2    O     O_R   0.474570 0.394560 0.317400 -0.543481
O3    O     O_R   0.403380 0.624270 0.695980 -0.546519
O4    O     O_R   0.609140 0.497770 0.314440 -0.539849
O5    O     O_R   0.512900 0.483390 0.672170 -0.545378
O6    O     O_R   0.526170 0.271940 0.521690 -0.540228
O7    O     O_R   0.451880 0.756290 0.574830 -0.540629
O8    O     O_R   0.271960 0.460780 0.472050 -0.558834
O9    O     O_R   0.749980 0.510990 0.431420 -0.533532
O10   O     O_R   0.262540 0.611050 0.579000 -0.543237
O11   O     O_R   0.715520 0.417170 0.517520 -0.535014
O12   O     O_R   0.426070 0.262540 0.438550 -0.538948
O13   O     O_R   0.595870 0.709230 0.464930 -0.537107
Zn1   Zn    Zn3+2 0.562560 0.419520 0.551940 0.935161
Zn2   Zn    Zn3+2 0.419550 0.406100 0.433160 0.927612
Zn3   Zn    Zn3+2 0.611810 0.553570 0.428930 0.934649
Zn4   Zn    Zn3+2 0.406080 0.620810 0.585960 0.933836

loop_
_geom_bond_atom_site_label_1
_geom_bond_atom_site_label_2
_ccdc_geom_bond_type
C16   O12   A    
O1    Zn1   S    
O6    Zn1   S    
C35   H1    S    
O13   Zn3   S    
C6    C9    A    
C27   H19   S    
C9    C25   A    
C7    C8    A    
C29   H14   S    
C1    O8    A    
C9    H26   S    
C28   C29   S    
C18   C19   D    
O9    Zn3   S    
C30   C31   A    
C11   C14   S    
C26   H4    S    
C20   O13   A    
C2    C32   A    
C34   C35   A    
C15   H25   S    
C22   O3    A    
C13   N1    S    
C3    H3    S    
O11   Zn1   S    
C23   C24   A    
C4    O11   A    
C14   H20   S    
C26   C31   A    
C19   H23   S    
C13   C14   D    
C21   O4    A    
C8    C25   A    
O1    Zn4   S    
C20   O7    A    
C29   H15   S    
C27   C34   S    
C15   C20   S    
C29   H13   S    
O7    Zn4   S    
C23   C30   A    
C10   H22   S    
O4    Zn3   S    
C5    C7    A    
H9    N1    S    
H10   N2    S    
C12   C26   A    
C7    H12   S    
C12   H5    S    
C33   C34   A    
C22   O5    A    
O1    Zn3   S    
C31   C35   A    
C1    C13   S    
C8    H2    S    
C4    C10   S    
C4    O9    A    
O5    Zn1   S    
C15   C17   D    
C21   C25   S    
O2    Zn2   S    
C21   O2    A    
C28   H16   S    
O1    Zn2   S    
C16   O6    A    
C3    C5    A    
C27   H18   S    
O3    Zn4   S    
C12   C24   A    
C23   H6    S    
C6    C33   A    
H11   N2    S    
C1    O10   A    
C32   C33   A    
C2    C3    A    
C17   N2    S    
C30   C32   A    
C28   H17   S    
C5    C6    A    
C2    H7    S    
C17   C19   S    
O10   Zn4   S    
C22   C24   S    
O12   Zn2   S    
C10   C11   D    
C18   H24   S    
C16   C18   S    
C27   C28   S    
O8    Zn2   S    
C11   H21   S    
H8    N1    S    
