data_mof_unit_65383.cif
_audit_creation_date              2012-12-10T17:04:23-0500
_audit_creation_method            fapswitch 2.2
_symmetry_space_group_name_H-M    P1
_symmetry_Int_Tables_number       1
_space_group_crystal_system       triclinic
_cell_length_a                    15.216409
_cell_length_b                    15.209551
_cell_length_c                    16.014801
_cell_angle_alpha                 89.430958
_cell_angle_beta                  90.61949
_cell_angle_gamma                 90.065686
_cell_volume                      3705.98002152

loop_
_atom_site_label
_atom_site_type_symbol
_atom_type_description
_atom_site_fract_x
_atom_site_fract_y
_atom_site_fract_z
_atom_type_partial_charge
C1    C     C_R   0.260031 0.485951 0.487413 0.563132
C2    C     C_R   0.979441 0.491199 0.462652 -0.044931
C3    C     C_R   0.018118 0.494959 0.544181 -0.092016
C4    C     C_R   0.739725 0.515151 0.513538 0.574840
C5    C     C_R   0.111181 0.494924 0.552087 0.013411
C6    C     C_R   0.123450 0.463709 0.403049 0.233005
C7    C     C_R   0.032081 0.465457 0.394630 0.307745
C8    C     C_R   0.511308 0.164106 0.524279 -0.056368
C9    C     C_R   0.483209 0.835150 0.479866 -0.032595
C10   C     C_R   0.477539 0.964958 0.391602 0.267189
C11   C     C_R   0.476132 0.873778 0.400512 0.251806
C12   C     C_1   0.481156 0.524904 0.885734 0.066182
C13   C     C_R   0.487719 0.887171 0.552017 0.013670
C14   C     C_R   0.499077 0.979803 0.544018 -0.032428
C15   C     C_R   0.495523 0.018865 0.462079 -0.058827
C16   C     C_R   0.512412 0.260126 0.513924 0.531239
C17   C     C_R   0.509867 0.110562 0.453183 -0.034500
C18   C     C_R   0.513322 0.126456 0.604889 0.050634
C19   C     C_R   0.515388 0.034742 0.614470 0.239512
C20   C     C_R   0.486857 0.739362 0.486239 0.563139
C21   C     C_R   0.512958 0.488211 0.277674 0.544614
C22   C     C_R   0.487482 0.511143 0.722453 0.528983
C23   C     C_1   0.520465 0.480143 0.114029 0.113728
C24   C     C_1   0.517583 0.483377 0.188895 0.135248
C25   C     C_2   0.522831 0.477129 0.024401 0.223282
C26   C     C_2   0.477450 0.534533 0.975153 0.041662
C27   C     C_2   0.423041 0.608390 0.007440 0.599881
C28   C     C_2   0.511718 0.183498 0.679802 0.668816
C29   C     C_2   0.473969 0.843213 0.633908 0.669600
C30   C     C_2   0.155260 0.517425 0.632229 0.678865
C31   C     C_2   0.539464 0.149857 0.372638 0.664721
C32   C     C_1   0.484259 0.517686 0.811181 0.104516
C33   C     C_R   0.163468 0.481011 0.480890 -0.033808
C34   C     C_R   0.835586 0.518513 0.522596 -0.000554
C35   C     C_R   0.962061 0.498676 0.614671 0.275376
C36   C     C_R   0.872292 0.513593 0.603385 0.229807
C37   C     C_R   0.889188 0.511575 0.452215 0.213619
Cl1   Cl    Cl    0.445924 0.007320 0.292118 -0.366067
Cl2   Cl    Cl    0.545466 0.993534 0.715163 -0.380980
Cl3   Cl    Cl    0.458516 0.807099 0.311327 -0.406765
Cl4   Cl    Cl    0.586638 0.392059 0.981622 -0.406749
Cl5   Cl    Cl    0.186815 0.446303 0.312216 -0.392804
Cl6   Cl    Cl    0.996690 0.468866 0.717420 -0.340218
Cl7   Cl    Cl    0.986691 0.419414 0.302340 -0.300896
Cl8   Cl    Cl    0.805907 0.530367 0.692463 -0.375205
Cl9   Cl    Cl    0.844065 0.541240 0.353151 -0.383527
H1    H     H_    0.386696 0.683733 0.104312 0.394908
H2    H     H_    0.447128 0.276361 0.743915 0.359212
H3    H     H_    0.395334 0.826780 0.733375 0.380640
H4    H     H_    0.238148 0.479727 0.724927 0.361980
H5    H     H_    0.419268 0.196243 0.340928 0.346863
O1    O     O_3   0.500000 0.500000 0.500000 -0.506821
O2    O     O_R   0.461330 0.435620 0.316920 -0.503393
O3    O     O_R   0.434750 0.558200 0.677930 -0.520646
O4    O     O_R   0.559650 0.545720 0.316320 -0.495361
O5    O     O_R   0.544270 0.460460 0.688830 -0.496856
O6    O     O_2   0.375273 0.649583 0.959176 -0.429584
O7    O     O_R   0.426650 0.632412 0.091477 -0.661781
O8    O     O_2   0.573498 0.183318 0.729285 -0.371003
O9    O     O_R   0.440267 0.239506 0.691830 -0.664317
O10   O     O_2   0.528620 0.791308 0.661544 -0.446821
O11   O     O_R   0.397745 0.860849 0.678711 -0.605787
O12   O     O_R   0.559890 0.307360 0.561630 -0.511198
O13   O     O_2   0.143798 0.589811 0.662863 -0.411181
O14   O     O_R   0.211122 0.456414 0.671397 -0.638901
O15   O     O_2   0.615701 0.140333 0.351637 -0.374147
O16   O     O_R   0.482083 0.197474 0.320519 -0.565199
O17   O     O_R   0.434610 0.697530 0.534530 -0.515657
O18   O     O_R   0.307380 0.433810 0.444990 -0.480444
O19   O     O_R   0.698130 0.561300 0.458860 -0.480318
O20   O     O_R   0.296270 0.542620 0.535390 -0.521987
O21   O     O_R   0.698230 0.462280 0.560770 -0.497983
O22   O     O_R   0.461480 0.296280 0.460320 -0.531866
O23   O     O_R   0.544020 0.698820 0.443520 -0.486487
Zn1   Zn    Zn3+2 0.574310 0.433680 0.576480 1.065386
Zn2   Zn    Zn3+2 0.433700 0.417860 0.431740 1.053985
Zn3   Zn    Zn3+2 0.574160 0.575160 0.430870 1.084043
Zn4   Zn    Zn3+2 0.417840 0.573310 0.560900 1.041737

loop_
_geom_bond_atom_site_label_1
_geom_bond_atom_site_label_2
_ccdc_geom_bond_type
C31   O15   D    
C30   O13   D    
C34   C37   A    
C35   C36   A    
O1    Zn1   S    
C4    O19   A    
C1    C33   S    
C22   O3    A    
C31   O16   S    
C26   C27   S    
C1    O20   A    
C22   C32   S    
C13   C29   S    
C10   C15   A    
O4    Zn3   S    
O18   Zn2   S    
C18   C19   A    
C9    C13   A    
C2    C7    A    
O23   Zn3   S    
C5    C33   A    
C23   C24   T    
C16   O12   A    
C35   Cl6   S    
C8    C16   S    
O5    Zn1   S    
C13   C14   A    
C12   C32   T    
O19   Zn3   S    
O21   Zn1   S    
O1    Zn4   S    
H2    O9    S    
C4    C34   S    
C28   O9    S    
O17   Zn4   S    
C29   O10   D    
C16   O22   A    
C18   C28   S    
C27   O6    D    
C25   Cl4   S    
C21   O4    A    
C22   O5    A    
O1    Zn2   S    
C25   C26   D    
C1    O18   A    
C12   C26   S    
C9    C20   S    
C3    C35   A    
C20   O23   A    
C36   Cl8   S    
H5    O16   S    
C7    Cl7   S    
C9    C11   A    
C19   Cl2   S    
C17   C31   S    
O22   Zn2   S    
O2    Zn2   S    
O1    Zn3   S    
C4    O21   A    
C5    C30   S    
C28   O8    D    
C15   C17   A    
C29   O11   S    
H3    O11   S    
C14   C19   A    
C20   O17   A    
C3    C5    A    
C27   O7    S    
C6    C7    A    
C8    C17   A    
C6    C33   A    
C10   Cl1   S    
C2    C3    A    
H1    O7    S    
C21   O2    A    
C2    C37   A    
O12   Zn1   S    
C34   C36   A    
C23   C25   S    
C11   Cl3   S    
H4    O14   S    
C8    C18   A    
C30   O14   S    
C10   C11   A    
C6    Cl5   S    
C21   C24   S    
C14   C15   A    
C37   Cl9   S    
O20   Zn4   S    
O3    Zn4   S    
