data_mof_unit_40284.cif
_audit_creation_date              2012-12-11T14:25:01-0500
_audit_creation_method            fapswitch 2.2
_symmetry_space_group_name_H-M    P1
_symmetry_Int_Tables_number       1
_space_group_crystal_system       triclinic
_cell_length_a                    19.269893
_cell_length_b                    11.29268
_cell_length_c                    18.738899
_cell_angle_alpha                 90.236514
_cell_angle_beta                  92.207216
_cell_angle_gamma                 90.164095
_cell_volume                      4074.66936133

loop_
_atom_site_label
_atom_site_type_symbol
_atom_type_description
_atom_site_fract_x
_atom_site_fract_y
_atom_site_fract_z
_atom_type_partial_charge
C1    C     C_R   0.711404 0.333273 0.139100 0.550878
C2    C     C_R   0.286563 0.335247 0.861357 0.571456
C3    C     C_R   0.227888 0.874077 0.145764 0.544950
C4    C     C_R   0.788638 0.832054 0.860795 0.558810
C5    C     C_3   0.477528 0.064321 0.025219 -0.141830
C6    C     C_3   0.532640 0.068492 0.967341 -0.141712
C7    C     C_3   0.979445 0.559465 0.027459 -0.145790
C8    C     C_3   0.034929 0.566634 0.969997 -0.142731
C9    C     C_R   0.780040 0.847630 0.938614 -0.036185
C10   C     C_R   0.240620 0.909452 0.071872 -0.007217
C11   C     C_R   0.274637 0.350857 0.938979 -0.014565
C12   C     C_R   0.719074 0.352895 0.061694 -0.037954
C13   C     C_R   0.717384 0.813396 0.970643 -0.016292
C14   C     C_R   0.303406 0.879069 0.040952 -0.021713
C15   C     C_R   0.210365 0.319571 0.969589 -0.019315
C16   C     C_R   0.780254 0.316767 0.028254 -0.020430
C17   C     C_R   0.700444 0.865898 0.035861 0.043125
C18   C     C_R   0.307679 0.878242 0.965511 0.024664
C19   C     C_R   0.199581 0.349393 0.042110 0.021725
C20   C     C_R   0.797460 0.370506 0.964031 0.037271
C21   C     C_R   0.819929 0.921989 0.054422 -0.156141
C22   C     C_R   0.188807 0.941577 0.953263 -0.155334
C23   C     C_R   0.319273 0.404524 0.058100 -0.141390
C24   C     C_R   0.679568 0.434237 0.947885 -0.158258
C25   C     C_R   0.830824 0.908133 0.981998 0.207777
C26   C     C_R   0.183483 0.944601 0.026468 0.227535
C27   C     C_R   0.327897 0.398091 0.984945 0.207480
C28   C     C_R   0.668949 0.418484 0.020116 0.212625
C29   C     C_R   0.665631 0.745381 0.935230 -0.049093
C30   C     C_R   0.361617 0.844033 0.083407 -0.103689
C31   C     C_R   0.153651 0.267320 0.930362 -0.078837
C32   C     C_R   0.830418 0.244155 0.061229 -0.049767
C33   C     C_R   0.088058 0.270146 0.955067 -0.092824
C34   C     C_R   0.898934 0.255278 0.046478 -0.039266
C35   C     C_R   0.597093 0.762112 0.947662 -0.049966
C36   C     C_R   0.414513 0.782977 0.053237 -0.069625
C37   C     C_R   0.580193 0.824972 0.007162 -0.095605
C38   C     C_R   0.417256 0.778176 0.979418 -0.047964
C39   C     C_R   0.079529 0.295291 0.026214 -0.063871
C40   C     C_R   0.916314 0.319136 0.987239 -0.094231
C41   C     C_R   0.630019 0.876776 0.050341 -0.084773
C42   C     C_R   0.367237 0.830509 0.936160 -0.044075
C43   C     C_R   0.134026 0.329053 0.069295 -0.025784
C44   C     C_R   0.867438 0.379268 0.948615 -0.089353
C45   C     C_R   0.535695 0.154550 0.142958 0.531794
C46   C     C_R   0.467732 0.155747 0.854782 0.540994
C47   C     C_R   0.034615 0.654628 0.143751 0.552615
C48   C     C_R   0.967688 0.654949 0.855115 0.534800
C49   C     C_R   0.753663 0.912830 0.080484 -0.031285
C50   C     C_R   0.251092 0.919030 0.922267 -0.046013
C51   C     C_R   0.254089 0.397220 0.085268 -0.040364
C52   C     C_R   0.745106 0.419278 0.920431 -0.033800
C53   C     C_R   0.500097 0.172710 0.577081 -0.033457
C54   C     C_R   0.504708 0.162038 0.426107 -0.027717
C55   C     C_R   0.000108 0.672709 0.577087 -0.034049
C56   C     C_R   0.004717 0.662044 0.426113 -0.025729
C57   C     C_R   0.521782 0.069298 0.542895 0.009420
C58   C     C_R   0.509322 0.058811 0.468883 0.023296
C59   C     C_R   0.021786 0.569295 0.542899 0.009107
C60   C     C_R   0.009326 0.558814 0.468887 0.023459
C61   C     C_R   0.491620 0.271088 0.459850 -0.052218
C62   C     C_R   0.487616 0.276301 0.534972 -0.052592
C63   C     C_R   0.991642 0.771097 0.459859 -0.051542
C64   C     C_R   0.987640 0.776308 0.534982 -0.053107
C65   C     C_R   0.546346 0.969827 0.581620 -0.071628
C66   C     C_R   0.499657 0.944141 0.440678 -0.088582
C67   C     C_R   0.046346 0.469818 0.581622 -0.071529
C68   C     C_R   0.999658 0.444147 0.440679 -0.088719
C69   C     C_R   0.040824 0.357674 0.551435 -0.124093
C70   C     C_R   0.015351 0.345888 0.481506 -0.154340
C71   C     C_R   0.540823 0.857680 0.551439 -0.124349
C72   C     C_R   0.515347 0.845886 0.481511 -0.153845
C73   C     C_R   0.738054 0.937976 0.584980 -0.003307
C74   C     C_R   0.261029 0.965372 0.409025 0.000375
C75   C     C_R   0.238052 0.437979 0.584983 -0.002985
C76   C     C_R   0.761015 0.465352 0.409040 0.001514
C77   C     C_R   0.765795 0.045942 0.564179 0.033147
C78   C     C_R   0.213842 0.043032 0.440178 0.043118
C79   C     C_R   0.265790 0.545948 0.564185 0.034286
C80   C     C_R   0.713818 0.542987 0.440202 0.041478
C81   C     C_R   0.773356 0.066548 0.490727 0.021256
C82   C     C_R   0.205453 0.032683 0.514020 0.021320
C83   C     C_R   0.273351 0.566557 0.490732 0.021557
C84   C     C_R   0.705436 0.532628 0.514041 0.020834
C85   C     C_R   0.694917 0.900621 0.465404 -0.130137
C86   C     C_R   0.325659 0.968779 0.521726 -0.151475
C87   C     C_R   0.194918 0.400623 0.465405 -0.130440
C88   C     C_R   0.825651 0.468762 0.521734 -0.152178
C89   C     C_R   0.741072 0.971146 0.148644 0.542608
C90   C     C_R   0.259050 0.969787 0.850961 0.545999
C91   C     C_R   0.241898 0.466193 0.150620 0.557187
C92   C     C_R   0.758657 0.472554 0.851454 0.542536
C93   C     C_R   0.700296 0.868010 0.536038 -0.152006
C94   C     C_R   0.321442 0.939900 0.448576 -0.159723
C95   C     C_R   0.200296 0.368014 0.536040 -0.152391
C96   C     C_R   0.821432 0.439890 0.448585 -0.159188
C97   C     C_R   0.795207 0.124619 0.615613 -0.064106
C98   C     C_R   0.164987 0.106440 0.398190 -0.082213
C99   C     C_R   0.295202 0.624622 0.615621 -0.065207
C100  C     C_R   0.664960 0.606404 0.398226 -0.081195
C101  C     C_R   0.845688 0.203521 0.596225 -0.076336
C102  C     C_R   0.098705 0.120220 0.422247 -0.105649
C103  C     C_R   0.345680 0.703528 0.596235 -0.077613
C104  C     C_R   0.598681 0.620182 0.422289 -0.105754
C105  C     C_R   0.862103 0.210470 0.525249 -0.122405
C106  C     C_R   0.084063 0.085045 0.491244 -0.138190
C107  C     C_R   0.362095 0.710482 0.525259 -0.121341
C108  C     C_R   0.584044 0.585004 0.491286 -0.138914
C109  C     C_R   0.823306 0.150921 0.472092 -0.091688
C110  C     C_R   0.137103 0.046225 0.538056 -0.112710
C111  C     C_R   0.323300 0.650934 0.472099 -0.090982
C112  C     C_R   0.637088 0.546163 0.538087 -0.112688
C113  C     C_R   0.734236 0.995702 0.440559 0.004305
C114  C     C_R   0.265098 0.001152 0.557164 -0.002802
C115  C     C_R   0.234236 0.495706 0.440562 0.005665
C116  C     C_R   0.765089 0.501118 0.557175 -0.003541
C117  C     C_R   0.733979 0.388346 0.349234 0.540606
C118  C     C_R   0.267097 0.381271 0.648356 0.536278
C119  C     C_R   0.233982 0.888350 0.349231 0.527033
C120  C     C_R   0.767098 0.881269 0.648355 0.536132
C121  C     C_R   0.532768 0.156723 0.352996 0.535224
C122  C     C_R   0.467843 0.158660 0.647687 0.523951
C123  C     C_R   0.032771 0.656724 0.353000 0.535283
C124  C     C_R   0.967846 0.658660 0.647689 0.523753
C125  C     C_R   0.729693 0.020857 0.363798 0.561833
C126  C     C_R   0.269526 0.018681 0.635778 0.561933
C127  C     C_R   0.229693 0.520856 0.363799 0.557847
C128  C     C_R   0.769524 0.518674 0.635780 0.562295
C129  C     C_3   0.530630 0.261628 0.970081 -0.027221
C130  C     C_3   0.475465 0.257737 0.028357 -0.030013
C131  C     C_3   0.027195 0.760351 0.971038 -0.016260
C132  C     C_3   0.971301 0.752476 0.028529 -0.027056
C133  C     C_3   0.572967 0.165115 0.009739 -0.142524
C134  C     C_3   0.435081 0.160548 0.986387 -0.119050
C135  C     C_3   0.071849 0.667703 0.011852 -0.114032
C136  C     C_3   0.934572 0.651653 0.986896 -0.141745
C137  C     C_3   0.517169 0.161123 0.066497 0.029024
C138  C     C_3   0.490528 0.164349 0.929528 0.049626
C139  C     C_3   0.015612 0.660439 0.067772 0.050543
C140  C     C_3   0.990602 0.659698 0.930364 0.032354
Cr1   Cr    Cr6+3 0.772820 0.169820 0.252640 0.993518
Cr2   Cr    Cr6+3 0.227180 0.169820 0.747360 0.987289
Cr3   Cr    Cr6+3 0.272820 0.669820 0.252640 1.017778
Cr4   Cr    Cr6+3 0.727180 0.669820 0.747360 0.983739
Cr5   Cr    Cr6+3 0.615040 0.323610 0.249150 1.088110
Cr6   Cr    Cr6+3 0.384960 0.323610 0.750850 1.073989
Cr7   Cr    Cr6+3 0.115040 0.823610 0.249150 1.084867
Cr8   Cr    Cr6+3 0.884960 0.823610 0.750850 1.086775
Cr9   Cr    Cr6+3 0.616720 0.011130 0.250660 0.988852
Cr10  Cr    Cr6+3 0.383280 0.011130 0.749340 0.979604
Cr11  Cr    Cr6+3 0.116720 0.511130 0.250660 0.990072
Cr12  Cr    Cr6+3 0.883280 0.511130 0.749340 0.985320
H1    H     H_    0.629855 0.164277 0.021245 0.100660
H2    H     H_    0.378147 0.156876 0.974973 0.102430
H3    H     H_    0.128542 0.674487 0.024356 0.127617
H4    H     H_    0.877764 0.644992 0.975164 0.100810
H5    H     H_    0.565044 0.977668 0.636698 0.134584
H6    H     H_    0.475625 0.928457 0.388401 0.136026
H7    H     H_    0.065042 0.477652 0.636700 0.134722
H8    H     H_    0.975622 0.428470 0.388404 0.137722
H9    H     H_    0.053256 0.280326 0.583244 0.118803
H10   H     H_    0.002189 0.261226 0.459314 0.102900
H11   H     H_    0.553255 0.780337 0.583252 0.118426
H12   H     H_    0.502181 0.761221 0.459329 0.102749
H13   H     H_    0.663911 0.845153 0.429500 0.159801
H14   H     H_    0.374044 0.954939 0.551685 0.153561
H15   H     H_    0.163914 0.345154 0.429501 0.159707
H16   H     H_    0.874040 0.454936 0.551690 0.153279
H17   H     H_    0.784230 0.116905 0.671695 0.130923
H18   H     H_    0.174571 0.127116 0.342971 0.132127
H19   H     H_    0.284228 0.616901 0.671705 0.125360
H20   H     H_    0.674542 0.627104 0.343012 0.137348
H21   H     H_    0.678466 0.784094 0.551434 0.150202
H22   H     H_    0.362584 0.892463 0.423791 0.108541
H23   H     H_    0.178466 0.284098 0.551436 0.150141
H24   H     H_    0.862580 0.392471 0.423796 0.109773
H25   H     H_    0.873824 0.255978 0.636245 0.139408
H26   H     H_    0.058288 0.151419 0.385436 0.122846
H27   H     H_    0.373817 0.755980 0.636258 0.136095
H28   H     H_    0.558262 0.651386 0.385482 0.125419
H29   H     H_    0.902501 0.268265 0.511251 0.111090
H30   H     H_    0.031592 0.089416 0.508900 0.142830
H31   H     H_    0.402494 0.768276 0.511263 0.111008
H32   H     H_    0.531576 0.589395 0.508948 0.142870
H33   H     H_    0.836525 0.168820 0.418089 0.167330
H34   H     H_    0.121173 0.018600 0.589782 0.167794
H35   H     H_    0.336519 0.668831 0.418096 0.167196
H36   H     H_    0.621161 0.518521 0.589812 0.167751
H37   H     H_    0.552390 0.337684 0.941912 0.183702
H38   H     H_    0.453102 0.331310 0.058267 0.188921
H39   H     H_    0.049248 0.838681 0.944977 0.196050
H40   H     H_    0.945918 0.823561 0.058162 0.176685
H41   H     H_    0.456853 0.990832 0.055291 0.128530
H42   H     H_    0.555912 0.001022 0.932807 0.138194
H43   H     H_    0.961505 0.485487 0.060374 0.135120
H44   H     H_    0.061561 0.495178 0.941559 0.137790
H45   H     H_    0.860794 0.959123 0.088764 0.178152
H46   H     H_    0.144822 0.966554 0.919158 0.180747
H47   H     H_    0.360829 0.437687 0.093094 0.184211
H48   H     H_    0.639070 0.474521 0.914842 0.176296
H49   H     H_    0.675444 0.683571 0.895503 0.183504
H50   H     H_    0.367532 0.862763 0.139854 0.132323
H51   H     H_    0.155731 0.214568 0.883238 0.187495
H52   H     H_    0.818798 0.181177 0.099589 0.181825
H53   H     H_    0.046155 0.232710 0.921911 0.155081
H54   H     H_    0.936649 0.211818 0.081211 0.142965
H55   H     H_    0.558308 0.723803 0.911357 0.126610
H56   H     H_    0.455548 0.745299 0.087056 0.152109
H57   H     H_    0.033764 0.272156 0.052537 0.128416
H58   H     H_    0.966902 0.332936 0.970729 0.100442
H59   H     H_    0.529139 0.845854 0.018089 0.094851
H60   H     H_    0.457422 0.729594 0.954493 0.174772
H61   H     H_    0.609407 0.935080 0.088447 0.175121
H62   H     H_    0.372827 0.815243 0.880074 0.148399
H63   H     H_    0.123052 0.322495 0.124729 0.173248
H64   H     H_    0.888564 0.441571 0.913202 0.175544
O1    O     O_R   0.788190 0.043000 0.172520 -0.551792
O2    O     O_R   0.211810 0.043000 0.827480 -0.539451
O3    O     O_R   0.288190 0.543000 0.172520 -0.493500
O4    O     O_R   0.711810 0.543000 0.827480 -0.557577
O5    O     O_R   0.556550 0.253260 0.323480 -0.479802
O6    O     O_R   0.443450 0.253260 0.676520 -0.486328
O7    O     O_R   0.056550 0.753260 0.323480 -0.483012
O8    O     O_R   0.943450 0.753260 0.676520 -0.485648
O9    O     O_R   0.545830 0.051610 0.330160 -0.537842
O10   O     O_R   0.454170 0.051610 0.669840 -0.539104
O11   O     O_R   0.045830 0.551610 0.330160 -0.539397
O12   O     O_R   0.954170 0.551610 0.669840 -0.537552
O13   O     O_R   0.681920 0.959720 0.327070 -0.503894
O14   O     O_R   0.318080 0.959720 0.672930 -0.511065
O15   O     O_R   0.181920 0.459720 0.327070 -0.511636
O16   O     O_R   0.818080 0.459720 0.672930 -0.506942
O17   O     O_3   0.668190 0.168190 0.250820 -0.311514
O18   O     O_3   0.331810 0.168190 0.749180 -0.302547
O19   O     O_3   0.168190 0.668190 0.250820 -0.292422
O20   O     O_3   0.831810 0.668190 0.749180 -0.308717
O21   O     O_R   0.766240 0.292300 0.176860 -0.538228
O22   O     O_R   0.233760 0.292300 0.823140 -0.545040
O23   O     O_R   0.266240 0.792300 0.176860 -0.524766
O24   O     O_R   0.733760 0.792300 0.823140 -0.541235
O25   O     O_R   0.670310 0.409160 0.168720 -0.415774
O26   O     O_R   0.329690 0.409160 0.831280 -0.434790
O27   O     O_R   0.170310 0.909160 0.168720 -0.424932
O28   O     O_R   0.829690 0.909160 0.831280 -0.418205
O29   O     O_R   0.556160 0.251900 0.173380 -0.464170
O30   O     O_R   0.443840 0.251900 0.826620 -0.470397
O31   O     O_R   0.056160 0.751900 0.173380 -0.450636
O32   O     O_R   0.943840 0.751900 0.826620 -0.465536
O33   O     O_R   0.545410 0.050140 0.168240 -0.557039
O34   O     O_R   0.454590 0.050140 0.831760 -0.535949
O35   O     O_R   0.045410 0.550140 0.168240 -0.543528
O36   O     O_R   0.954590 0.550140 0.831760 -0.550771
O37   O     O_R   0.681530 0.958350 0.176970 -0.511979
O38   O     O_R   0.318470 0.958350 0.823030 -0.515584
O39   O     O_R   0.181530 0.458350 0.176970 -0.524769
O40   O     O_R   0.818470 0.458350 0.823030 -0.510831
O41   O     O_R   0.788610 0.044480 0.334450 -0.505540
O42   O     O_R   0.211390 0.044480 0.665550 -0.530733
O43   O     O_R   0.288610 0.544480 0.334450 -0.511094
O44   O     O_R   0.711390 0.544480 0.665550 -0.529276
O45   O     O_R   0.766630 0.293670 0.326970 -0.530910
O46   O     O_R   0.233370 0.293670 0.673030 -0.526961
O47   O     O_R   0.266630 0.793670 0.326970 -0.538686
O48   O     O_R   0.733370 0.793670 0.673030 -0.526651
O49   O     O_R   0.670730 0.410640 0.330640 -0.508315
O50   O     O_R   0.329270 0.410640 0.669360 -0.494594
O51   O     O_R   0.170730 0.910640 0.330640 -0.511712
O52   O     O_R   0.829270 0.910640 0.669360 -0.492191
C141  C     C_1   0.474615 0.374541 0.417048 0.235564
N1    N     N_1   0.460437 0.456699 0.382827 -0.298337
C142  C     C_1   0.469835 0.388161 0.567767 0.231917
N2    N     N_1   0.455543 0.477030 0.594343 -0.298708
C143  C     C_1   0.974647 0.874560 0.417061 0.236600
N3    N     N_1   0.960476 0.956724 0.382842 -0.300731
C144  C     C_1   0.969877 0.888174 0.567782 0.231541
N4    N     N_1   0.955599 0.977048 0.594362 -0.296729
S1    S     S_3+6 0.897929 0.998682 0.949908 -0.000427
O53   O     O_2   0.941763 0.038894 0.012509 -0.283052
O54   O     O_2   0.944235 0.938104 0.899259 -0.278502
O55   O     O_3   0.860716 0.115097 0.908160 -0.507730
H65   H     H_    0.895501 0.143563 0.874578 0.357714
S2    S     S_3+6 0.105468 0.005727 0.055997 -0.004233
O56   O     O_2   0.065841 0.054528 0.993310 -0.283751
O57   O     O_2   0.060777 0.915054 0.088195 -0.277907
O58   O     O_3   0.123120 0.107664 0.119354 -0.545486
H66   H     H_    0.080315 0.113684 0.146828 0.345471
S3    S     S_3+6 0.391830 0.493796 0.954826 -0.006376
O59   O     O_2   0.429571 0.546918 0.018422 -0.272746
O60   O     O_2   0.443145 0.434820 0.908756 -0.291293
O61   O     O_3   0.348961 0.596802 0.906457 -0.532233
H67   H     H_    0.377323 0.610415 0.864212 0.348348
S4    S     S_3+6 0.601209 0.507115 0.053979 0.005699
O62   O     O_2   0.556518 0.550783 0.992936 -0.286177
O63   O     O_2   0.555359 0.442640 0.103369 -0.270029
O64   O     O_3   0.637875 0.622375 0.098301 -0.505001
H68   H     H_    0.600876 0.654295 0.128143 0.355218

loop_
_geom_bond_atom_site_label_1
_geom_bond_atom_site_label_2
_ccdc_geom_bond_type
C99   C103  A    
Cr6   O18   S    
C133  C137  S    
C55   C59   A    
Cr11  O11   S    
C73   C93   A    
C136  C140  S    
C47   O31   A    
C75   C95   A    
C135  C139  S    
S2    O56   D    
C84   C112  A    
C71   H11   S    
Cr10  O10   S    
C128  O44   A    
C79   C99   A    
C5    C6    S    
Cr10  O38   S    
C123  O11   A    
C142  N2    T    
C100  C104  A    
C121  O9    A    
C39   H57   S    
Cr2   O42   S    
C9    C13   A    
C37   H59   S    
C131  C140  S    
C11   C15   A    
C50   C90   S    
C66   C72   A    
C12   C16   A    
C88   H16   S    
S3    O60   D    
C87   C115  A    
C59   C60   A    
C128  O16   A    
C8    C135  S    
C130  C134  S    
C70   H10   S    
C30   H50   S    
C126  O42   A    
C56   C123  S    
Cr3   O23   S    
C28   S4    S    
Cr12  O40   S    
C109  H33   S    
C98   C102  A    
C123  O7    A    
C32   C34   A    
C48   O36   A    
C41   H61   S    
C78   C82   A    
C11   C27   A    
C16   C20   A    
C129  C133  S    
C25   S1    S    
C6    H42   S    
C44   H64   S    
Cr1   O45   S    
C21   H45   S    
C5    C137  S    
Cr12  O20   S    
C54   C61   A    
Cr5   O29   S    
C29   C35   A    
Cr10  O14   S    
C30   C36   A    
C8    C140  S    
C85   H13   S    
S4    O63   D    
C97   H17   S    
C48   O32   A    
C76   C96   A    
C91   O39   A    
C93   H21   S    
C69   C70   A    
Cr5   O5    S    
C24   H48   S    
Cr1   O17   S    
C122  O6    A    
C107  H31   S    
C73   C77   A    
C103  C107  A    
C67   C69   A    
C68   H8    S    
C75   C79   A    
C130  H38   S    
C88   C116  A    
C100  H20   S    
C21   C49   A    
C7    C8    S    
C132  C139  S    
C33   H53   S    
Cr4   O4    S    
C125  O13   A    
C53   C122  S    
C18   C42   A    
C114  C126  S    
Cr9   O37   S    
Cr4   O24   S    
C36   H56   S    
Cr2   O2    S    
C95   H23   S    
C59   C67   A    
C85   C93   A    
C63   C143  S    
C46   O34   A    
C124  O8    A    
C129  H37   S    
C77   C97   A    
C132  H40   S    
C47   O35   A    
Cr1   O1    S    
C90   O38   A    
C84   C116  A    
S1    O53   D    
C1    C12   S    
C2    C11   S    
C127  O15   A    
C20   C44   A    
Cr10  O34   S    
C64   C144  S    
C87   H15   S    
C48   C140  S    
C83   C115  A    
Cr3   O43   S    
O55   H65   S    
C46   O30   A    
C10   C14   A    
C17   C49   A    
C1    O21   A    
Cr9   O17   S    
C132  C136  S    
Cr11  O19   S    
Cr6   O26   S    
C2    O26   A    
C54   C121  S    
C74   C78   A    
C102  H26   S    
C127  O43   A    
C81   C113  A    
Cr12  O36   S    
C129  C130  S    
C21   C25   A    
C110  H34   S    
C107  C111  A    
C76   C80   A    
C67   H7    S    
C15   C31   A    
C16   C32   A    
S2    O57   D    
C13   C17   A    
Cr9   O13   S    
C85   C113  A    
C71   C72   A    
C57   C58   A    
C37   C41   A    
C61   C62   A    
C26   S2    S    
C27   S3    S    
C63   C64   A    
C98   H18   S    
C40   C44   A    
S2    O58   S    
S1    O55   S    
Cr8   O28   S    
Cr1   O41   S    
Cr5   O49   S    
C105  H29   S    
C4    C9    S    
C4    O28   A    
C117  O49   A    
Cr12  O16   S    
C24   C52   A    
C88   C96   A    
C120  O52   A    
Cr5   O17   S    
C74   C94   A    
C144  N4    T    
C86   H14   S    
C80   C84   A    
C9    C25   A    
C15   C19   A    
C12   C28   A    
C13   C29   A    
C6    C133  S    
C54   C58   A    
Cr6   O6    S    
C122  O10   A    
C40   H58   S    
O61   H67   S    
C105  C109  A    
C51   C91   S    
C62   C142  S    
C22   C50   A    
C117  O45   A    
C73   C120  S    
C141  N1    T    
C75   C118  S    
C61   C141  S    
C19   C43   A    
Cr9   O33   S    
C29   H49   S    
Cr4   O20   S    
C24   C28   A    
C65   H5    S    
C45   O29   A    
O64   H68   S    
C53   C57   A    
Cr11  O35   S    
C108  C112  A    
C32   H52   S    
C134  C138  S    
O58   H66   S    
S3    O59   D    
C77   C81   A    
C72   H12   S    
S3    O61   S    
C92   O40   A    
C35   H55   S    
C81   C109  A    
C83   C111  A    
C52   C92   S    
Cr3   O47   S    
C7    H43   S    
C131  C132  S    
Cr4   O48   S    
C104  C108  A    
Cr7   O7    S    
C18   C50   A    
C5    H41   S    
Cr2   O22   S    
C55   C124  S    
C96   H24   S    
C126  O14   A    
C22   H46   S    
C57   C65   A    
C4    O24   A    
Cr6   O30   S    
C111  H35   S    
C76   C117  S    
Cr8   O52   S    
C36   C38   A    
Cr10  O18   S    
C79   C83   A    
C134  H2    S    
C8    H44   S    
C103  H27   S    
C101  H25   S    
C56   C60   A    
C7    C136  S    
C113  C125  S    
C60   C68   A    
C22   C26   A    
C47   C139  S    
C121  O5    A    
Cr2   O46   S    
C130  C137  S    
C3    O23   A    
Cr7   O19   S    
C125  O41   A    
Cr9   O9    S    
C14   C18   A    
C43   H63   S    
C135  H3    S    
C34   H54   S    
C74   C119  S    
C33   C39   A    
C133  H1    S    
C82   C110  A    
S4    O62   D    
C35   C37   A    
C69   H9    S    
C38   C42   A    
C131  C135  S    
C136  H4    S    
C99   H19   S    
C23   H47   S    
Cr8   O32   S    
C115  C127  S    
C92   O4    A    
Cr3   O19   S    
Cr6   O50   S    
C106  H30   S    
C86   C94   A    
C118  O50   A    
C58   C66   A    
C119  O47   A    
C129  C138  S    
C120  O48   A    
C78   C98   A    
C31   C33   A    
Cr7   O27   S    
C31   H51   S    
C46   C138  S    
C45   O33   A    
C10   C26   A    
Cr7   O31   S    
Cr12  O12   S    
C80   C100  A    
C14   C30   A    
C108  H32   S    
C124  O12   A    
C101  C105  A    
C5    C134  S    
Cr11  O15   S    
C90   O2    A    
C82   C114  A    
Cr7   O51   S    
C2    O22   A    
C39   C43   A    
C65   C71   A    
Cr3   O3    S    
C87   C95   A    
Cr8   O20   S    
C6    C138  S    
C42   H62   S    
C53   C62   A    
C23   C51   A    
C118  O46   A    
C38   H60   S    
C119  O51   A    
C55   C64   A    
C45   C137  S    
C143  N3    T    
C56   C63   A    
Cr5   O25   S    
C3    O27   A    
C1    O25   A    
C94   H22   S    
C23   C27   A    
S1    O54   D    
C66   H6    S    
Cr11  O39   S    
C106  C110  A    
Cr1   O21   S    
S4    O64   S    
C49   C89   S    
C112  H36   S    
C131  H39   S    
C86   C114  A    
Cr8   O8    S    
C20   C52   A    
C3    C10   S    
C7    C139  S    
C104  H28   S    
C102  C106  A    
C91   O3    A    
Cr4   O44   S    
C17   C41   A    
C89   O1    A    
C19   C51   A    
Cr2   O18   S    
C68   C70   A    
C116  C128  S    
C34   C40   A    
C89   O37   A    
C97   C101  A    
