data_mof_unit_23047.cif
_audit_creation_date              2012-12-10T17:51:29-0500
_audit_creation_method            fapswitch 2.2
_symmetry_space_group_name_H-M    P1
_symmetry_Int_Tables_number       1
_space_group_crystal_system       triclinic
_cell_length_a                    9.9763
_cell_length_b                    10.698522
_cell_length_c                    16.57553
_cell_angle_alpha                 93.065015
_cell_angle_beta                  85.933486
_cell_angle_gamma                 90.769914
_cell_volume                      1762.07295326

loop_
_atom_site_label
_atom_site_type_symbol
_atom_type_description
_atom_site_fract_x
_atom_site_fract_y
_atom_site_fract_z
_atom_type_partial_charge
C1    C     C_R   0.502058 0.737923 0.491470 0.902387
C2    C     C_R   0.533969 0.469159 0.260879 -0.043174
C3    C     C_R   0.289515 0.865836 0.413750 -0.102329
C4    C     C_R   0.481488 0.492766 0.652992 0.919630
C5    C     C_R   0.160980 0.916853 0.413071 0.014025
C6    C     C_R   0.136248 0.032990 0.453532 -0.123793
C7    C     C_R   0.240758 0.101384 0.487094 -0.057230
C8    C     C_R   0.373894 0.054919 0.481429 0.082826
C9    C     C_R   0.391102 0.929441 0.455761 0.099387
C10   C     C_R   0.506199 0.869096 0.478215 -0.067502
C11   C     C_R   0.617745 0.937020 0.502768 -0.184585
C12   C     C_R   0.362743 0.397287 0.775787 -0.032142
C13   C     C_R   0.611681 0.064491 0.511489 -0.161377
C14   C     C_R   0.490989 0.124925 0.501872 -0.113742
C15   C     C_R   0.845336 0.628325 0.624755 -0.137442
C16   C     C_R   0.497417 0.259623 0.502283 0.902891
C17   C     C_R   0.899931 0.658926 0.697972 -0.242463
C18   C     C_R   0.036098 0.644285 0.704538 -0.161235
C19   C     C_R   0.119281 0.621879 0.633815 0.018299
C20   C     C_R   0.064322 0.560245 0.564337 0.067190
C21   C     C_R   0.920570 0.561610 0.562443 0.151572
C22   C     C_R   0.934443 0.442185 0.438930 -0.051008
C23   C     C_R   0.649246 0.496895 0.129064 -0.018063
C24   C     C_R   0.077544 0.445900 0.437522 -0.053169
C25   C     C_R   0.518557 0.498694 0.347028 0.936879
C26   C     C_R   0.471322 0.466436 0.738933 -0.095717
C27   C     C_R   0.578908 0.504507 0.784275 -0.198627
C28   C     C_R   0.583569 0.471387 0.863323 -0.111047
C29   C     C_R   0.479555 0.399617 0.899120 0.168171
C30   C     C_R   0.367158 0.367611 0.856662 -0.192787
C31   C     C_2   0.484894 0.171535 0.132486 0.441324
C32   C     C_2   0.050676 0.845829 0.375355 0.920753
C33   C     C_2   0.869277 0.373513 0.372519 0.977908
C34   C     C_R   0.614364 0.544169 0.208806 -0.082850
C35   C     C_2   0.664663 0.669580 0.237589 0.490766
C36   C     C_2   0.216913 0.725071 0.626483 0.974623
C37   C     C_2   0.153801 0.392162 0.364974 0.979487
C38   C     C_2   0.728056 0.575039 0.070683 0.868784
C39   C     C_2   0.247814 0.346838 0.732091 0.917030
C40   C     C_R   0.495475 0.348201 0.235935 -0.186624
C41   C     C_R   0.528078 0.300631 0.157479 -0.001173
C42   C     C_R   0.601581 0.376933 0.103221 0.038127
C43   C     C_2   0.482662 0.366367 0.983175 -0.221477
C44   C     C_2   0.598729 0.348042 0.016277 -0.264692
H1    H     H_    0.660816 0.559105 0.758145 0.160191
H2    H     H_    0.444847 0.288700 0.279530 0.177447
H3    H     H_    0.692893 0.341524 0.979347 0.214245
H4    H     H_    0.285775 0.314205 0.885577 0.169354
H5    H     H_    0.389116 0.372246 0.021111 0.187653
H6    H     H_    0.668067 0.503690 0.896520 0.164087
H7    H     H_    0.515549 0.131082 0.072726 0.096540
H8    H     H_    0.855073 0.839025 0.351265 0.366739
H9    H     H_    0.770578 0.217924 0.334904 0.349920
H10   H     H_    0.757254 0.707989 0.210349 0.107650
H11   H     H_    0.378119 0.815034 0.669521 0.330823
H12   H     H_    0.708553 0.891789 0.517906 0.188142
H13   H     H_    0.223752 0.235633 0.304301 0.360985
H14   H     H_    0.885964 0.586833 0.988357 0.352472
H15   H     H_    0.046858 0.323851 0.731851 0.344834
H16   H     H_    0.308977 0.774761 0.383837 0.198520
H17   H     H_    0.036289 0.072271 0.458581 0.196308
H18   H     H_    0.211719 0.187239 0.520074 0.211028
H19   H     H_    0.701017 0.115301 0.528425 0.197416
H20   H     H_    0.745831 0.660032 0.617552 0.197256
H21   H     H_    0.839062 0.703451 0.747760 0.163828
H22   H     H_    0.077681 0.682267 0.759526 0.180325
N1    N     N_R   0.857140 0.501200 0.500750 -0.158443
N2    N     N_R   0.142740 0.501280 0.500770 -0.164560
O1    O     O_R   0.385310 0.683220 0.500000 -0.621455
O2    O     O_2   0.071469 0.742324 0.342211 -0.588180
O3    O     O_R   0.921959 0.896753 0.378152 -0.797976
O4    O     O_2   0.872039 0.417126 0.305708 -0.600877
O5    O     O_R   0.811224 0.256058 0.385020 -0.785049
O6    O     O_2   0.602115 0.732412 0.290872 -0.599930
O7    O     O_2   0.194893 0.809742 0.582761 -0.647985
O8    O     O_R   0.321603 0.736805 0.678274 -0.822921
O9    O     O_2   0.174668 0.455237 0.305909 -0.544575
O10   O     O_R   0.188283 0.266168 0.360560 -0.834083
O11   O     O_2   0.693139 0.681950 0.060771 -0.618027
O12   O     O_R   0.614640 0.683250 0.500010 -0.636604
O13   O     O_R   0.841463 0.525379 0.026595 -0.788254
O14   O     O_2   0.267238 0.286478 0.667737 -0.648742
O15   O     O_R   0.117072 0.362754 0.767032 -0.794815
O16   O     O_R   0.371780 0.500010 0.615800 -0.594889
O17   O     O_R   0.601110 0.500030 0.615800 -0.649550
O18   O     O_R   0.385360 0.316750 0.499990 -0.611698
O19   O     O_R   0.614690 0.316780 0.500000 -0.593918
O20   O     O_R   0.398890 0.499970 0.384200 -0.609813
O21   O     O_R   0.628220 0.499990 0.384200 -0.601932
O22   O     O_2   0.415031 0.108346 0.178510 -0.550076
Zn1   Zn    Zn3+2 0.346870 0.499980 0.499990 1.003623
Zn2   Zn    Zn3+2 0.653130 0.500020 0.500010 0.977154

loop_
_geom_bond_atom_site_label_1
_geom_bond_atom_site_label_2
_ccdc_geom_bond_type
C35   O6    D    
C41   C42   A    
C19   C20   A    
C7    C8    A    
C40   H2    S    
C26   C27   A    
C23   C42   A    
C6    H17   S    
C30   H4    S    
C28   C29   A    
H15   O15   S    
C18   C19   A    
C19   C36   S    
C5    C6    A    
C38   O11   D    
N2    Zn1   S    
C34   C35   S    
C36   O8    S    
C33   O4    D    
C28   H6    S    
C8    C9    A    
C4    O16   A    
C16   O19   A    
C15   H20   S    
O16   Zn1   S    
C9    C10   A    
C44   H3    S    
C5    C32   S    
C3    H16   S    
C2    C34   A    
C13   C14   A    
C29   C43   S    
C35   H10   S    
C16   O18   A    
C42   C44   S    
O17   Zn2   S    
C24   C37   S    
C32   O3    S    
H14   O13   S    
C43   H5    S    
C32   O2    D    
C4    O17   A    
C37   O9    D    
C25   O20   A    
C1    O1    A    
C12   C26   A    
O12   Zn2   S    
C43   C44   D    
C7    H18   S    
C29   C30   A    
C3    C9    A    
C36   O7    D    
C13   H19   S    
O20   Zn1   S    
C31   O22   D    
C17   C18   A    
O21   Zn2   S    
H11   O8    S    
C33   O5    S    
C40   C41   A    
C38   O13   S    
C14   C16   S    
O19   Zn2   S    
C15   C17   A    
C22   C33   S    
C23   C34   A    
C8    C14   A    
C31   C41   S    
C12   C30   A    
C25   O21   A    
H13   O10   S    
C20   N2    A    
H9    O5    S    
C1    C10   S    
C39   O14   D    
C31   H7    S    
C3    C5    A    
C4    C26   S    
C6    C7    A    
C18   H22   S    
C23   C38   S    
C37   O10   S    
C17   H21   S    
O18   Zn1   S    
C12   C39   S    
C39   O15   S    
H8    O3    S    
C11   C13   A    
C27   H1    S    
N1    Zn2   S    
C2    C25   S    
C22   C24   A    
C22   N1    A    
C10   C11   A    
C24   N2    A    
C2    C40   A    
C15   C21   A    
C20   C21   A    
C27   C28   A    
C1    O12   A    
O1    Zn1   S    
C21   N1    A    
C11   H12   S    
