data_mof_unit_51454.cif
_audit_creation_date              2013-03-05T15:43:18-0500
_audit_creation_method            fapswitch 2.2
_symmetry_space_group_name_H-M    P1
_symmetry_Int_Tables_number       1
_space_group_crystal_system       triclinic
_cell_length_a                    10.736806
_cell_length_b                    10.711258
_cell_length_c                    10.085183
_cell_angle_alpha                 90.076871
_cell_angle_beta                  93.518331
_cell_angle_gamma                 89.94624
_cell_volume                      1157.6559146

loop_
_atom_site_label
_atom_site_type_symbol
_atom_site_description
_atom_site_fract_x
_atom_site_fract_y
_atom_site_fract_z
_atom_type_partial_charge
O1    O     O_R   0.499980 0.319060 0.613040 -0.625392
O2    O     O_R   0.500020 0.319100 0.386900 -0.580424
C1    C     C_R   0.496413 0.262799 0.499798 0.932851
O3    O     O_R   0.316750 0.499980 0.613090 -0.609816
O4    O     O_R   0.316790 0.500020 0.386950 -0.534226
C2    C     C_R   0.259462 0.501534 0.496056 0.981034
Zn1   Zn    Zn3+2 0.499970 0.499970 0.650990 1.060015
Zn2   Zn    Zn3+2 0.500030 0.500030 0.349010 1.138746
O5    O     O_R   0.499980 0.680900 0.613100 -0.549146
O6    O     O_R   0.500020 0.680940 0.386960 -0.610467
O7    O     O_R   0.683210 0.499980 0.613050 -0.635517
O8    O     O_R   0.683250 0.500020 0.386910 -0.589427
C3    C     C_R   0.504885 0.737034 0.500049 1.032230
C4    C     C_R   0.739772 0.492306 0.504672 0.892667
C5    C     C_R   0.120571 0.666543 0.669940 0.382605
C6    C     C_R   0.084870 0.680713 0.800358 -0.195663
H1    H     H_    0.131297 0.749318 0.864980 0.224397
C7    C     C_R   0.986848 0.609293 0.845381 0.318268
C8    C     C_R   0.912361 0.541053 0.751971 -0.160539
H2    H     H_    0.832956 0.491362 0.785868 0.211165
C9    C     C_R   0.947427 0.529519 0.619851 -0.002868
C10   C     C_R   0.065273 0.570463 0.589779 -0.086430
C11   C     C_R   0.124976 0.505469 0.488522 -0.234782
C12   C     C_R   0.054633 0.424353 0.401274 0.422179
H3    H     H_    0.869729 0.374598 0.331476 0.216804
C13   C     C_R   0.927001 0.423097 0.407426 -0.153628
C14   C     C_R   0.872663 0.476649 0.515201 -0.144413
C15   C     C_2   0.474886 0.932300 0.390324 -0.039781
C16   C     C_2   0.515046 0.869037 0.498760 -0.206798
H4    H     H_    0.436885 0.885478 0.301223 0.226829
H5    H     H_    0.556914 0.912951 0.587613 0.170264
C17   C     C_2   0.482206 0.066341 0.387439 -0.094978
C18   C     C_2   0.481108 0.131210 0.500106 -0.261852
H6    H     H_    0.487898 0.111285 0.291472 0.223074
H7    H     H_    0.465340 0.088262 0.595021 0.190140
C19   C     C_2   0.537204 0.594821 0.927380 0.268122
N1    N     N_2   0.501340 0.501330 0.852150 -0.234549
H8    H     H_    0.499901 0.414585 0.895312 0.184417
C20   C     C_2   0.553617 0.586361 0.077589 0.265157
N2    N     N_2   0.501380 0.501360 0.147810 -0.085648
S1    S     S_3+6 0.115635 0.317584 0.288010 0.099328
O9    O     O_2   0.129580 0.383727 0.158881 -0.166633
O10   O     O_2   0.238742 0.265295 0.340111 -0.285918
O11   O     O_3   0.015098 0.198472 0.261296 -0.530898
H9    H     H_    0.052100 0.146198 0.192754 0.408337
N3    N     N_R   0.573238 0.708678 0.866886 0.258279
O12   O     O_R   0.506803 0.809009 0.880041 -0.292984
O13   O     O_R   0.682860 0.717379 0.819550 -0.373332
N4    N     N_R   0.631229 0.678181 0.145218 0.234250
O14   O     O_R   0.742374 0.648419 0.192930 -0.292939
O15   O     O_R   0.598741 0.795113 0.141808 -0.345011
N5    N     N_R   0.395268 0.443990 0.090102 0.256142
O16   O     O_R   0.379141 0.325021 0.107473 -0.303347
O17   O     O_R   0.304806 0.510678 0.034730 -0.348239
S2    S     S_3+6 0.191336 0.796343 0.598094 0.044293
O18   O     O_2   0.100940 0.903675 0.596662 -0.244107
O19   O     O_2   0.305225 0.833099 0.682627 -0.245187
O20   O     O_3   0.228525 0.768195 0.441325 -0.584091
H10   H     H_    0.148054 0.769155 0.387738 0.391401
N6    N     N_R   0.959955 0.609127 0.983183 0.269396
O21   O     O_R   0.891890 0.520667 0.029389 -0.341315
O22   O     O_R   0.014339 0.688141 0.066020 -0.312046

loop_
_geom_bond_atom_site_label_1
_geom_bond_atom_site_label_2
_geom_bond_distance
_ccdc_geom_bond_type
O4    Zn2   2.027194 S    
C11   C12   1.420272 A    
C19   N3    1.428656 S    
N1    H8    1.027120 S    
C4    C14   1.433949 S    
S1    O9    1.498964 D    
C8    H2    1.078944 S    
Zn2   O8    1.980827 S    
C17   C18   1.331737 D    
S2    O18   1.503375 D    
C15   H4    1.086117 S    
O2    C1    1.291853 A    
C9    C14   1.405074 A    
C16   H5    1.084499 S    
C5    S2    1.762826 S    
N2    N5    1.390439 S    
C9    C10   1.390599 A    
O11   H9    0.990685 S    
N6    O22   1.301664 A    
Zn1   O7    2.027195 S    
C12   S1    1.768791 S    
S1    O10   1.500353 D    
C13   C14   1.387931 A    
N6    O21   1.301263 A    
O3    Zn1   1.980826 S    
C2    C11   1.441866 S    
C7    N6    1.436688 S    
C19   N1    1.299828 D    
C20   N4    1.434171 S    
N5    O17   1.303325 A    
N4    O14   1.298632 A    
S2    O19   1.499707 D    
Zn1   N1    2.027918 S    
O4    C2    1.293431 A    
C18   H7    1.085267 S    
O7    C4    1.285059 A    
N3    O13   1.300463 A    
O20   H10   0.990640 S    
O3    C2    1.297178 A    
S1    O11   1.682711 S    
C1    C18   1.419217 S    
C5    C6    1.400421 A    
N3    O12   1.300419 A    
C15   C17   1.438412 S    
N5    O16   1.299723 A    
C6    C7    1.400050 A    
C7    C8    1.402898 A    
C5    C10   1.416058 A    
S2    O20   1.681077 S    
C3    C16   1.418365 S    
C20   N2    1.302496 D    
Zn1   O5    1.975806 S    
N4    O15   1.299781 A    
O5    C3    1.293634 A    
C10   C11   1.419855 A    
C15   C16   1.335898 D    
Zn2   N2    2.030148 S    
C8    C9    1.411912 A    
H3    C13   1.084631 S    
O1    Zn1   1.974707 S    
C19   C20   1.517138 S    
Zn2   O6    1.974707 S    
O2    Zn2   1.975806 S    
C12   C13   1.375644 A    
O8    C4    1.302821 A    
C6    H1    1.082934 S    
O1    C1    1.289094 A    
O6    C3    1.286635 A    
C17   H6    1.086631 S    
