data_mof_unit_38722.cif
_audit_creation_date              2013-03-05T16:03:28-0500
_audit_creation_method            fapswitch 2.2
_symmetry_space_group_name_H-M    P1
_symmetry_Int_Tables_number       1
_space_group_crystal_system       triclinic
_cell_length_a                    13.998095
_cell_length_b                    15.025835
_cell_length_c                    17.036499
_cell_angle_alpha                 89.959133
_cell_angle_beta                  81.164151
_cell_angle_gamma                 90.008581
_cell_volume                      3540.81264899

loop_
_atom_site_label
_atom_site_type_symbol
_atom_site_description
_atom_site_fract_x
_atom_site_fract_y
_atom_site_fract_z
_atom_type_partial_charge
O1    O     O_R   0.419720 0.632140 0.499990 -0.591084
O2    O     O_R   0.580280 0.367860 0.500010 -0.608765
O3    O     O_R   0.580270 0.632160 0.499980 -0.600723
O4    O     O_R   0.419730 0.367840 0.500020 -0.615201
C1    C     C_R   0.500015 0.673013 0.499883 1.022002
C2    C     C_R   0.499956 0.326865 0.500249 0.998809
O5    O     O_R   0.410240 0.500000 0.615800 -0.569698
O6    O     O_R   0.589760 0.500000 0.384200 -0.569479
O7    O     O_R   0.570790 0.500020 0.615800 -0.608480
O8    O     O_R   0.429210 0.499980 0.384200 -0.619512
C3    C     C_R   0.482737 0.502411 0.653284 1.027248
C4    C     C_R   0.517289 0.502286 0.346691 1.026687
Zn1   Zn    Zn3+2 0.392800 0.499980 0.500010 1.084821
Zn2   Zn    Zn3+2 0.607200 0.500020 0.499990 1.090274
C5    C     C_R   0.463467 0.503430 0.740090 -0.311055
C6    C     C_R   0.536639 0.503095 0.259847 -0.311141
C7    C     C_R   0.528573 0.546211 0.782947 0.300192
C8    C     C_R   0.471998 0.546433 0.216878 0.292608
C9    C     C_R   0.520011 0.531115 0.864038 -0.185395
C10   C     C_R   0.480280 0.531194 0.135834 -0.184204
C11   C     C_R   0.455767 0.466761 0.901354 -0.108659
C12   C     C_R   0.544010 0.466467 0.098614 -0.105625
C13   C     C_R   0.387877 0.427200 0.859515 0.453789
C14   C     C_R   0.611627 0.426480 0.140486 0.449328
C15   C     C_R   0.384687 0.453931 0.781218 0.228814
C16   C     C_R   0.614969 0.452999 0.218808 0.220384
C17   C     C_2   0.457161 0.445568 0.985702 0.158279
C18   C     C_2   0.542481 0.445362 0.014284 0.151895
H1    H     H_    0.434640 0.568693 0.101910 0.220633
H2    H     H_    0.565934 0.568313 0.897898 0.218731
C19   C     C_R   0.448792 0.186023 0.565028 0.267663
C20   C     C_R   0.560393 0.813853 0.439949 0.277554
C21   C     C_R   0.499943 0.231143 0.500341 -0.285846
C22   C     C_R   0.499980 0.768298 0.499912 -0.275243
C23   C     C_R   0.550912 0.186215 0.435562 0.263964
C24   C     C_R   0.439473 0.813549 0.559945 0.268105
C25   C     C_R   0.546543 0.093023 0.432406 -0.109627
C26   C     C_R   0.448788 0.906086 0.565681 -0.102583
C27   C     C_R   0.499785 0.046295 0.500145 -0.027703
C28   C     C_R   0.499741 0.953017 0.500047 -0.023113
C29   C     C_R   0.453123 0.092784 0.567995 -0.105475
C30   C     C_R   0.550689 0.906359 0.434316 -0.099150
C31   C     C_R   0.585262 0.045529 0.362992 0.254178
C32   C     C_R   0.411042 0.952183 0.635823 0.222331
C33   C     C_R   0.588235 0.952693 0.364204 0.228719
C34   C     C_R   0.414438 0.045010 0.637328 0.259253
C35   C     C_R   0.193018 0.441795 0.547462 0.072334
C36   C     C_R   0.806765 0.559334 0.453649 0.088729
N1    N     N_R   0.249970 0.499930 0.499970 -0.137431
N2    N     N_R   0.750030 0.500070 0.500030 -0.131895
C37   C     C_R   0.211052 0.559277 0.453222 0.066664
C38   C     C_R   0.788813 0.441425 0.547491 0.065348
C39   C     C_R   0.109995 0.563191 0.453297 -0.093816
C40   C     C_R   0.889176 0.441291 0.551146 -0.092336
C41   C     C_R   0.050342 0.502156 0.501593 0.057850
C42   C     C_R   0.948966 0.501570 0.502100 0.058364
C43   C     C_R   0.092200 0.441311 0.549222 -0.031043
C44   C     C_R   0.907343 0.561135 0.453204 -0.029983
C45   C     C_R   0.066951 0.624507 0.405809 0.301694
C46   C     C_R   0.931834 0.382085 0.600717 0.304488
C47   C     C_R   0.966439 0.621679 0.405469 -0.175490
C48   C     C_R   0.032903 0.381895 0.598082 -0.171755
H3    H     H_    0.226492 0.395892 0.583965 0.194002
H4    H     H_    0.773332 0.605003 0.416886 0.192496
H5    H     H_    0.259823 0.602537 0.415623 0.211645
H6    H     H_    0.740687 0.394606 0.581611 0.184564
H7    H     H_    0.933985 0.668444 0.368883 0.218055
H8    H     H_    0.065156 0.336295 0.635818 0.220175
N3    N     N_R   0.601456 0.606997 0.745934 0.243372
O9    O     O_R   0.682924 0.614833 0.773245 -0.286392
O10   O     O_R   0.582605 0.662186 0.691455 -0.319888
N4    N     N_R   0.400031 0.608068 0.253723 0.231367
O11   O     O_R   0.420014 0.663431 0.307605 -0.322625
O12   O     O_R   0.318557 0.616706 0.226559 -0.288616
N5    N     N_R   0.123183 0.690923 0.358676 0.230559
O13   O     O_R   0.181612 0.742028 0.390682 -0.308155
O14   O     O_R   0.103067 0.711376 0.288802 -0.261289
N6    N     N_R   0.874227 0.323064 0.655120 0.212640
O15   O     O_R   0.800830 0.353829 0.703692 -0.312992
O16   O     O_R   0.905225 0.243144 0.666463 -0.300916
N7    N     N_R   0.699927 0.433724 0.253894 0.274419
O17   O     O_R   0.743068 0.357169 0.242032 -0.245948
O18   O     O_R   0.747596 0.499411 0.279143 -0.325407
N8    N     N_R   0.299425 0.435672 0.746259 0.256470
O19   O     O_R   0.252268 0.502006 0.721427 -0.308769
O20   O     O_R   0.255854 0.359222 0.757499 -0.274081
N9    N     N_R   0.632927 0.433050 0.961917 0.223314
O21   O     O_R   0.708475 0.479964 0.971406 -0.254384
O22   O     O_R   0.640343 0.373684 0.905689 -0.356568
N10   N     N_R   0.366642 0.433684 0.038079 0.222033
O23   O     O_R   0.291358 0.480889 0.028438 -0.257599
O24   O     O_R   0.358868 0.374359 0.094428 -0.383357
O25   O     O_3   0.319341 0.368409 0.896743 -0.555867
C49   C     C_3   0.361083 0.282735 0.896654 0.146687
H9    H     H_    0.428520 0.283489 0.923943 0.135727
H10   H     H_    0.378369 0.257190 0.834811 0.230758
C50   C     C_3   0.288782 0.219742 0.944730 -0.277546
H11   H     H_    0.263790 0.249094 0.004210 0.274691
H12   H     H_    0.224987 0.211215 0.913821 0.273105
C51   C     C_3   0.333704 0.128904 0.955747 -0.754296
H13   H     H_    0.358570 0.097373 0.897335 0.316445
H14   H     H_    0.279015 0.084903 0.990432 0.286902
H15   H     H_    0.396025 0.135869 0.988568 0.253980
O26   O     O_3   0.680001 0.367659 0.103183 -0.556848
C52   C     C_3   0.638052 0.282088 0.103029 0.140388
H16   H     H_    0.571066 0.283043 0.075140 0.135825
H17   H     H_    0.619951 0.256518 0.164843 0.229196
C53   C     C_3   0.710667 0.218996 0.055532 -0.271011
H18   H     H_    0.736267 0.248263 0.996068 0.278712
H19   H     H_    0.774064 0.210493 0.086941 0.272096
C54   C     C_3   0.665832 0.128147 0.044433 -0.751633
H20   H     H_    0.640404 0.096694 0.102845 0.315149
H21   H     H_    0.720782 0.084094 0.010189 0.287730
H22   H     H_    0.603924 0.135069 0.011113 0.254638
N11   N     N_R   0.391123 0.235962 0.626334 0.232166
O27   O     O_R   0.432367 0.290321 0.670142 -0.413787
O28   O     O_R   0.297374 0.233940 0.632505 -0.318747
N12   N     N_R   0.633930 0.766899 0.387608 0.227824
O29   O     O_R   0.724308 0.788771 0.384967 -0.333902
O30   O     O_R   0.611338 0.702350 0.343038 -0.323902
N13   N     N_R   0.608202 0.236401 0.374190 0.236730
O31   O     O_R   0.701720 0.237976 0.370240 -0.278604
O32   O     O_R   0.566317 0.289305 0.329539 -0.412936
N14   N     N_R   0.366478 0.766107 0.612448 0.241008
O33   O     O_R   0.389877 0.702357 0.657565 -0.307583
O34   O     O_R   0.275761 0.786063 0.614048 -0.278497
N15   N     N_R   0.608393 0.089711 0.287895 0.234973
O35   O     O_R   0.539040 0.116901 0.250992 -0.372454
O36   O     O_R   0.697771 0.096509 0.253593 -0.288673
N16   N     N_R   0.383341 0.905368 0.709308 0.249282
O37   O     O_R   0.295277 0.910577 0.746815 -0.234941
O38   O     O_R   0.447891 0.861473 0.741016 -0.277341
N17   N     N_R   0.615434 0.906149 0.290551 0.252066
O39   O     O_R   0.550977 0.860975 0.259883 -0.269471
O40   O     O_R   0.702744 0.912975 0.251793 -0.239286
N18   N     N_R   0.391773 0.088834 0.712600 0.236576
O41   O     O_R   0.302786 0.093640 0.748185 -0.287407
O42   O     O_R   0.461379 0.117797 0.748342 -0.366271

loop_
_geom_bond_atom_site_label_1
_geom_bond_atom_site_label_2
_geom_bond_distance
_ccdc_geom_bond_type
N9    O21   1.301486 A    
N5    O13   1.301287 A    
C7    N3    1.440114 S    
O25   C49   1.413697 S    
C54   H20   1.109415 S    
C41   C42   1.417787 A    
C50   H11   1.111539 S    
C39   C45   1.419597 A    
C43   C48   1.401919 A    
C35   N1    1.361570 A    
C40   C46   1.419571 A    
O5    C3    1.279880 A    
C52   H17   1.112764 S    
C46   N6    1.436929 S    
O1    C1    1.280497 A    
C9    C11   1.403976 A    
N8    O20   1.300707 A    
C35   H3    1.082142 S    
N6    O16   1.301264 A    
C36   H4    1.082463 S    
C32   N16   1.435979 S    
N11   O27   1.300220 A    
C53   H18   1.111706 S    
C17   N10   1.444301 S    
C46   C48   1.408585 A    
C37   H5    1.078813 S    
O4    Zn1   2.021041 S    
N3    O10   1.301145 A    
N12   O29   1.301124 A    
C50   H12   1.111627 S    
C3    C5    1.462045 S    
C4    C6    1.462642 S    
C32   C34   1.395989 A    
N1    C37   1.363333 A    
C15   N8    1.439764 S    
N2    C38   1.363455 A    
C29   C34   1.416322 A    
C19   C21   1.393980 A    
C22   C24   1.400268 A    
O7    C3    1.298674 A    
C44   C47   1.401891 A    
C28   C30   1.417775 A    
C11   C17   1.474688 S    
C12   C18   1.474838 S    
C8    N4    1.439943 S    
O2    C2    1.281431 A    
C19   N11   1.431029 S    
O26   C52   1.413612 S    
N7    O18   1.301175 A    
C38   C40   1.415795 A    
N7    O17   1.300674 A    
C10   H1    1.082934 S    
C39   C41   1.415268 A    
C6    C16   1.422388 A    
C52   C53   1.528202 S    
C40   C42   1.415233 A    
C45   C47   1.408518 A    
C23   N13   1.430428 S    
C20   N12   1.439332 S    
N8    O19   1.301369 A    
N18   O42   1.300794 A    
C31   N15   1.433135 S    
C27   C28   1.401572 A    
N6    O15   1.301361 A    
N18   O41   1.300949 A    
C49   C50   1.528070 S    
N11   O28   1.300674 A    
C51   H15   1.111118 S    
C13   O25   1.383864 S    
C14   O26   1.383936 S    
C30   C33   1.411916 A    
C20   C22   1.400250 A    
C25   C31   1.416312 A    
N16   O38   1.301099 A    
O7    Zn2   1.960500 S    
N15   O36   1.300965 A    
C26   C32   1.412170 A    
C35   C43   1.406982 A    
C31   C33   1.395795 A    
C47   H7    1.084037 S    
N10   O24   1.301798 A    
O6    C4    1.279758 A    
C1    C22   1.431740 S    
C18   N9    1.444450 S    
C51   H14   1.110266 S    
C49   H9    1.114552 S    
C54   H21   1.110416 S    
C49   H10   1.112756 S    
C36   N2    1.361632 A    
N5    O14   1.301263 A    
N13   O31   1.300646 A    
O3    Zn2   2.021043 S    
O8    C4    1.299077 A    
Zn1   N1    1.999454 S    
N4    O12   1.301462 A    
C10   C12   1.403992 A    
C16   N7    1.440044 S    
C41   C43   1.408109 A    
N17   O39   1.301138 A    
C12   C14   1.404544 A    
O4    C2    1.281327 A    
O1    Zn1   2.021188 S    
C7    C9    1.386732 A    
N15   O35   1.300738 A    
C45   N5    1.436923 S    
C50   C51   1.526350 S    
C38   H6    1.079633 S    
C23   C25   1.403035 A    
N14   O34   1.301030 A    
C5    C7    1.407767 A    
O6    Zn2   2.024580 S    
C19   C29   1.403515 A    
C24   N14   1.438889 S    
C14   C16   1.400484 A    
N4    O11   1.301072 A    
O3    C1    1.280487 A    
O8    Zn1   1.960500 S    
C2    C21   1.438297 S    
C36   C44   1.407016 A    
C52   H16   1.114480 S    
C33   N17   1.436359 S    
C53   C54   1.526316 S    
C48   H8    1.084089 S    
C11   C13   1.404661 A    
N16   O37   1.300830 A    
C25   C27   1.421213 A    
C26   C28   1.417756 A    
N10   O23   1.301486 A    
Zn2   N2    1.999454 S    
C53   H19   1.111755 S    
C24   C26   1.401415 A    
C51   H13   1.109156 S    
C21   C23   1.393575 A    
C42   C44   1.408069 A    
C54   H22   1.111353 S    
C8    C10   1.386895 A    
C13   C15   1.400063 A    
N3    O9    1.301504 A    
O2    Zn2   2.021188 S    
N12   O30   1.300773 A    
N13   O32   1.300239 A    
C5    C15   1.421924 A    
C34   N18   1.433539 S    
O5    Zn1   2.024580 S    
C27   C29   1.421300 A    
C6    C8    1.407719 A    
C17   C18   1.357267 D    
N17   O40   1.300837 A    
N9    O22   1.301839 A    
C20   C30   1.401271 A    
C37   C39   1.415638 A    
C9    H2    1.082911 S    
N14   O33   1.300787 A    
