data_mof_unit_56846.cif
_audit_creation_date              2012-12-10T17:22:12-0500
_audit_creation_method            fapswitch 2.2
_symmetry_space_group_name_H-M    P1
_symmetry_Int_Tables_number       1
_space_group_crystal_system       triclinic
_cell_length_a                    15.866737
_cell_length_b                    10.812614
_cell_length_c                    9.670855
_cell_angle_alpha                 90.121241
_cell_angle_beta                  90.515581
_cell_angle_gamma                 93.245363
_cell_volume                      1656.40698161

loop_
_atom_site_label
_atom_site_type_symbol
_atom_type_description
_atom_site_fract_x
_atom_site_fract_y
_atom_site_fract_z
_atom_type_partial_charge
C1    C     C_R   0.499341 0.263019 0.499710 0.945909
C2    C     C_3   0.948555 0.425697 0.634034 0.116377
C3    C     C_3   0.916891 0.500152 0.506879 -0.098736
C4    C     C_3   0.957604 0.635456 0.504486 0.922545
C5    C     C_3   0.055360 0.632270 0.499910 -0.467166
C6    C     C_1   0.824558 0.500379 0.503786 0.162691
C7    C     C_1   0.175178 0.496682 0.500539 0.095974
C8    C     C_1   0.250716 0.496931 0.498653 0.038041
C9    C     C_R   0.338118 0.117947 0.517315 0.621576
C10   C     C_R   0.262763 0.048304 0.536914 -0.200566
C11   C     C_R   0.263125 0.921250 0.553770 -0.240331
C12   C     C_R   0.340465 0.497948 0.499423 1.002016
C13   C     C_R   0.338544 0.861975 0.546766 0.582467
C14   C     C_R   0.415963 0.929316 0.520559 -0.095561
C15   C     C_R   0.416303 0.060312 0.511913 -0.131921
C16   C     C_R   0.494709 0.128952 0.498615 -0.131590
C17   C     C_R   0.570406 0.068916 0.488323 0.337202
C18   C     C_R   0.569023 0.940944 0.490044 -0.102805
C19   C     C_R   0.493106 0.870852 0.503563 -0.115370
C20   C     C_R   0.643315 0.609894 0.139892 0.301482
C21   C     C_R   0.718772 0.615819 0.066764 0.557174
C22   C     C_R   0.714453 0.631223 0.925569 -0.286286
C23   C     C_R   0.497534 0.737023 0.500625 0.954600
C24   C     C_R   0.636365 0.621816 0.859986 0.573163
C25   C     C_R   0.566063 0.561152 0.926118 0.023196
C26   C     C_R   0.567483 0.559148 0.074969 -0.072343
C27   C     C_R   0.438834 0.437306 0.071239 0.467582
C28   C     C_R   0.438711 0.438780 0.924377 -0.037839
C29   C     C_R   0.659437 0.500035 0.500505 0.875745
C30   C     C_3   0.047743 0.433011 0.640629 0.620377
C31   C     C_3   0.044102 0.428180 0.376356 -0.404973
C32   C     C_3   0.946724 0.432766 0.375422 -0.438217
C33   C     C_1   0.749027 0.500308 0.501933 -0.000444
C34   C     C_3   0.082873 0.496695 0.505387 -0.050449
Cu1   Cu    Cu3+1 0.499990 0.499990 0.640660 1.090828
Cu2   Cu    Cu3+1 0.500010 0.500010 0.359340 1.097177
H1    H     H_    0.926379 0.327346 0.616429 0.186040
H2    H     H_    0.203688 0.093500 0.540742 0.238780
H3    H     H_    0.204507 0.868161 0.573020 0.204903
H4    H     H_    0.628038 0.895746 0.482861 0.229557
H5    H     H_    0.769704 0.666892 0.870398 0.270657
H6    H     H_    0.389040 0.387103 0.868078 0.184130
H7    H     H_    0.069649 0.471999 0.280234 0.247404
H8    H     H_    0.061767 0.330122 0.374792 0.246415
H9    H     H_    0.917652 0.336676 0.370246 0.225139
H10   H     H_    0.925979 0.480892 0.280419 0.293575
H11   H     H_    0.085431 0.688061 0.585515 0.220829
H12   H     H_    0.079016 0.676831 0.402929 0.224395
N1    N     N_R   0.500800 0.501210 0.147910 -0.199718
N2    N     N_R   0.500820 0.501290 0.852040 -0.202286
O1    O     O_R   0.499990 0.319640 0.618810 -0.582576
O2    O     O_R   0.500000 0.319660 0.381240 -0.528629
O3    O     O_R   0.379430 0.499990 0.618840 -0.548330
O4    O     O_R   0.379440 0.500020 0.381260 -0.544205
O5    O     O_R   0.500000 0.680340 0.618760 -0.482023
O6    O     O_R   0.500010 0.680360 0.381190 -0.549952
O7    O     O_R   0.620560 0.499980 0.618740 -0.549587
O8    O     O_R   0.620570 0.500010 0.381160 -0.573176
Cl1   Cl    Cl    0.089343 0.515514 0.790953 -0.421897
Cl2   Cl    Cl    0.898266 0.461656 0.794474 -0.444952
F1    F     F_    0.930301 0.695131 0.386729 -0.566962
Cl3   Cl    Cl    0.668889 0.151941 0.473428 -0.564117
F2    F     F_    0.332830 0.241202 0.501233 -0.685409
F3    F     F_    0.334919 0.739708 0.572844 -0.707919
Cl4   Cl    Cl    0.360674 0.341171 0.150476 -0.513571
Cl5   Cl    Cl    0.083665 0.278812 0.656805 -0.534885
Cl6   Cl    Cl    0.644851 0.735580 0.254606 -0.502421
F4    F     F_    0.793173 0.645439 0.132733 -0.534110
F5    F     F_    0.629759 0.690629 0.744965 -0.619448
Cl7   Cl    Cl    0.926696 0.726742 0.648698 -0.427173

loop_
_geom_bond_atom_site_label_1
_geom_bond_atom_site_label_2
_ccdc_geom_bond_type
C19   C23   S    
C23   O5    A    
Cu2   O6    S    
C17   Cl3   S    
Cu1   O3    S    
C11   C13   A    
C9    C10   A    
C20   Cl6   S    
Cu1   Cu2   S    
Cu2   O2    S    
C6    C33   T    
C8    C12   S    
C10   H2    S    
C3    C6    S    
C5    C34   S    
C28   N2    A    
Cu1   N2    S    
C4    Cl7   S    
C17   C18   A    
C9    C15   A    
C31   C34   S    
C7    C8    T    
C4    F1    S    
C1    C16   S    
C9    F2    S    
C13   C14   A    
C20   C21   A    
C11   H3    S    
C5    H11   S    
C2    H1    S    
C30   Cl5   S    
C13   F3    S    
C31   H7    S    
C31   H8    S    
C27   N1    A    
C27   Cl4   S    
C29   O8    A    
C28   H6    S    
C5    H12   S    
C29   O7    A    
C24   F5    S    
C2    C3    S    
Cu2   O8    S    
C1    O1    A    
C21   F4    S    
Cu1   O1    S    
C3    C32   S    
C1    O2    A    
C22   C24   A    
C26   N1    A    
C22   H5    S    
Cu2   O4    S    
C10   C11   A    
C30   C34   S    
Cu1   O5    S    
C15   C16   A    
C12   O3    A    
C29   C33   S    
C23   O6    A    
C2    Cl2   S    
C2    C30   S    
C24   C25   A    
Cu1   O7    S    
C32   H9    S    
C7    C34   S    
C27   C28   A    
C30   Cl1   S    
C18   H4    S    
C25   N2    A    
C18   C19   A    
C14   C15   A    
C25   C26   A    
C21   C22   A    
C32   H10   S    
C14   C19   A    
C31   C32   S    
C12   O4    A    
Cu2   N1    S    
C3    C4    S    
C16   C17   A    
C4    C5    S    
C20   C26   A    
