data_mof_unit_35311.cif
_audit_creation_date              2012-12-11T14:21:01-0500
_audit_creation_method            fapswitch 2.2
_symmetry_space_group_name_H-M    P1
_symmetry_Int_Tables_number       1
_space_group_crystal_system       triclinic
_cell_length_a                    11.596268
_cell_length_b                    11.603167
_cell_length_c                    19.553749
_cell_angle_alpha                 90.92126
_cell_angle_beta                  90.361543
_cell_angle_gamma                 59.790247
_cell_volume                      2273.4037672

loop_
_atom_site_label
_atom_site_type_symbol
_atom_type_description
_atom_site_fract_x
_atom_site_fract_y
_atom_site_fract_z
_atom_type_partial_charge
C1    C     C_R   0.640456 0.117380 0.599190 0.558664
C2    C     C_1   0.652927 0.149819 0.668607 0.001305
C3    C     C_R   0.665436 0.669822 0.191836 0.020744
C4    C     C_R   0.612360 0.746679 0.598676 0.550516
C5    C     C_R   0.535826 0.742602 0.218265 0.006796
C6    C     C_R   0.518901 0.729586 0.287627 -0.010238
C7    C     C_R   0.760086 0.624518 0.305233 -0.168712
C8    C     C_R   0.776145 0.605653 0.235516 -0.145191
C9    C     C_R   0.423633 0.804620 0.174877 -0.137850
C10   C     C_R   0.303112 0.817753 0.195027 -0.083130
C11   C     C_R   0.287169 0.785203 0.261034 0.302311
C12   C     C_1   0.641484 0.704628 0.668037 0.003517
C13   C     C_R   0.394173 0.744484 0.307691 -0.047067
C14   C     C_R   0.632226 0.689839 0.332006 0.012113
C15   C     C_R   0.164811 0.189675 0.185992 0.006309
C16   C     C_R   0.241696 0.145352 0.598224 0.559281
C17   C     C_R   0.238394 0.248675 0.210891 0.012499
C18   C     C_R   0.279396 0.228565 0.279672 -0.021894
C19   C     C_R   0.185400 0.086392 0.295221 -0.145425
C20   C     C_R   0.136636 0.112063 0.229288 -0.155971
C21   C     C_R   0.263301 0.336309 0.171583 -0.154400
C22   C     C_R   0.289657 0.428831 0.204097 -0.077956
C23   C     C_1   0.126250 0.198272 0.859257 0.003237
C24   C     C_R   0.309987 0.422308 0.274385 0.285515
C25   C     C_R   0.325730 0.309564 0.306956 -0.115441
C26   C     C_R   0.260789 0.138694 0.321001 0.002996
C27   C     C_R   0.664497 0.179915 0.189117 -0.005446
C28   C     C_R   0.628936 0.087770 0.394462 0.525992
C29   C     C_R   0.714531 0.045246 0.206455 0.030239
C30   C     C_R   0.724335 0.011243 0.276017 0.013530
C31   C     C_R   0.612905 0.246930 0.307614 -0.148715
C32   C     C_R   0.616978 0.279032 0.240115 -0.136800
C33   C     C_R   0.768392 0.942196 0.156142 -0.089428
C34   C     C_1   0.171705 0.170788 0.727659 -0.031390
C35   C     C_R   0.860781 0.812707 0.174322 -0.097217
C36   C     C_R   0.887747 0.782127 0.242873 -0.093440
C37   C     C_R   0.810093 0.875809 0.292945 -0.114106
C38   C     C_R   0.657166 0.115235 0.325601 -0.013026
C39   C     C_R   0.081224 0.231121 0.928570 0.541989
C40   C     C_R   0.613379 0.739992 0.401876 0.534437
C41   C     C_R   0.683900 0.603578 0.929419 0.541165
C42   C     C_R   0.708362 0.206551 0.930193 0.539695
C43   C     C_R   0.087663 0.234251 0.123204 0.533672
C44   C     C_R   0.682651 0.613903 0.124249 0.533451
C45   C     C_1   0.149954 0.182116 0.798891 -0.030815
C46   C     C_R   0.705748 0.209849 0.125030 0.530046
C47   C     C_R   0.300724 0.116292 0.393755 0.535509
C48   C     C_1   0.669885 0.645773 0.860110 0.003400
C49   C     C_1   0.654780 0.684061 0.728460 -0.031243
C50   C     C_1   0.663053 0.666399 0.799729 -0.031315
C51   C     C_3   0.289738 0.532189 0.378457 -0.104762
C52   C     C_3   0.103646 0.846519 0.331903 -0.113469
C53   C     C_1   0.195777 0.161657 0.667372 0.001674
C54   C     C_1   0.678640 0.190898 0.860832 0.003631
C55   C     C_1   0.658500 0.167246 0.729044 -0.031696
C56   C     C_1   0.665671 0.180645 0.800364 -0.030961
Cr1   Cr    Cr6+3 0.404720 0.198220 0.499960 0.996281
Cr2   Cr    Cr6+3 0.698290 0.897110 0.500380 1.007383
Cr3   Cr    Cr6+3 0.396970 0.904720 0.499610 1.005308
Cr4   Cr    Cr6+3 0.926180 0.151990 0.028120 1.020662
Cr5   Cr    Cr6+3 0.921330 0.451820 0.027470 1.009641
Cr6   Cr    Cr6+3 0.626260 0.446870 0.028710 1.023127
H1    H     H_    0.846807 0.587203 0.338116 0.119366
H2    H     H_    0.433488 0.827108 0.122401 0.124976
H3    H     H_    0.876060 0.541420 0.215709 0.147337
H4    H     H_    0.222957 0.848916 0.158271 0.128208
H5    H     H_    0.384181 0.709528 0.356280 0.158743
H6    H     H_    0.155534 0.034308 0.328545 0.130382
H7    H     H_    0.256494 0.339394 0.116475 0.145318
H8    H     H_    0.070638 0.075865 0.213437 0.150659
H9    H     H_    0.371312 0.456168 0.410271 0.116262
H10   H     H_    0.195410 0.530277 0.385487 0.116651
H11   H     H_    0.270712 0.628498 0.399724 0.114855
H12   H     H_    0.294210 0.504827 0.174780 0.144904
H13   H     H_    0.022493 0.946086 0.315905 0.134395
H14   H     H_    0.164544 0.856444 0.373124 0.087070
H15   H     H_    0.055482 0.794796 0.354991 0.133914
H16   H     H_    0.370480 0.292053 0.354801 0.171397
H17   H     H_    0.574444 0.325614 0.346051 0.158162
H18   H     H_    0.748367 0.963102 0.102235 0.123558
H19   H     H_    0.587210 0.381223 0.228168 0.164477
H20   H     H_    0.912274 0.736494 0.135359 0.122784
H21   H     H_    0.963280 0.682519 0.257409 0.132789
H22   H     H_    0.828294 0.839630 0.344249 0.154437
O1    O     O_R   0.267740 0.231960 0.575440 -0.501108
O2    O     O_R   0.596130 0.579390 0.952730 -0.508630
O3    O     O_R   0.639060 0.321160 0.958670 -0.495750
O4    O     O_R   0.527280 0.186640 0.570530 -0.489683
O5    O     O_R   0.821240 0.124200 0.104370 -0.518524
O6    O     O_R   0.036890 0.167040 0.097840 -0.505711
O7    O     O_R   0.056180 0.349610 0.102880 -0.531193
O8    O     O_R   0.797660 0.564870 0.097950 -0.514911
O9    O     O_R   0.595880 0.584250 0.104270 -0.514146
O10   O     O_R   0.638830 0.325670 0.099150 -0.504011
O11   O     O_3   0.824590 0.350230 0.028100 -0.248740
O12   O     O_R   0.685970 0.784660 0.430010 -0.519133
O13   O     O_R   0.728090 0.003450 0.576380 -0.499246
O14   O     O_R   0.682970 0.789190 0.570490 -0.491066
O15   O     O_R   0.499290 0.771880 0.575530 -0.504965
O16   O     O_R   0.285330 0.030870 0.569730 -0.487296
O17   O     O_R   0.270980 0.227080 0.423890 -0.537907
O18   O     O_R   0.530280 0.182120 0.430050 -0.542463
O19   O     O_R   0.731330 0.998570 0.424830 -0.528028
O20   O     O_3   0.329059 0.517784 0.308509 -0.549888
O21   O     O_3   0.176454 0.772395 0.273815 -0.539343
O22   O     O_R   0.502530 0.767000 0.423990 -0.549249
O23   O     O_R   0.288330 0.026350 0.429250 -0.503761
O24   O     O_3   0.499990 0.000020 0.499980 -0.274943
O25   O     O_R   0.821500 0.119340 0.952830 -0.510347
O26   O     O_R   0.037130 0.162530 0.957360 -0.495338
O27   O     O_R   0.056440 0.344740 0.951340 -0.509020
O28   O     O_R   0.797900 0.560360 0.957470 -0.495766

loop_
_geom_bond_atom_site_label_1
_geom_bond_atom_site_label_2
_ccdc_geom_bond_type
C55   C56   S    
C47   O17   A    
C4    O14   A    
C27   C29   A    
C9    H2    S    
Cr3   O15   S    
C19   C20   A    
Cr2   O14   S    
Cr2   O13   S    
C52   H13   S    
C12   C49   T    
C7    C8    A    
C46   O5    A    
Cr4   O5    S    
C41   O2    A    
Cr6   O2    S    
C23   C45   T    
C36   C37   A    
C42   O25   A    
C2    C55   T    
C5    C6    A    
C36   H21   S    
C29   C33   A    
C30   C38   A    
C1    C2    S    
C19   C26   A    
Cr2   O12   S    
C16   C53   S    
C43   O7    A    
C44   O9    A    
C39   O26   A    
C35   C36   A    
C41   O28   A    
C18   C26   A    
C11   O21   S    
C37   H22   S    
Cr4   O25   S    
C4    C12   S    
C9    C10   A    
C44   O8    A    
Cr5   O8    S    
C1    O4    A    
C48   C50   T    
C8    H3    S    
Cr6   O11   S    
Cr3   O16   S    
C20   H8    S    
C18   C25   A    
C51   H9    S    
C40   O12   A    
C35   H20   S    
C10   H4    S    
C15   C20   A    
C54   C56   T    
C3    C44   S    
Cr3   O22   S    
C25   H16   S    
C43   O6    A    
C24   C25   A    
C3    C8    A    
C1    O13   A    
C16   O16   A    
C32   H19   S    
C51   O20   S    
C7    C14   A    
C30   C37   A    
C21   H7    S    
C24   O20   S    
C5    C9    A    
C29   C30   A    
Cr1   O18   S    
C6    C14   A    
C31   C32   A    
C46   O10   A    
C28   C38   S    
C17   C18   A    
C19   H6    S    
C34   C45   S    
C7    H1    S    
C26   C47   S    
C27   C46   S    
C52   O21   S    
C47   O23   A    
Cr6   O10   S    
C52   H14   S    
C16   O1    A    
C22   C24   A    
Cr6   O9    S    
C51   H10   S    
C22   H12   S    
C52   H15   S    
Cr5   O27   S    
Cr1   O4    S    
C40   O22   A    
C13   H5    S    
C15   C17   A    
C27   C32   A    
C51   H11   S    
C3    C5    A    
Cr5   O11   S    
C33   H18   S    
C31   H17   S    
C42   O3    A    
Cr4   O6    S    
Cr1   O17   S    
Cr6   O3    S    
Cr3   O24   S    
C31   C38   A    
C15   C43   S    
C42   C54   S    
C6    C13   A    
C11   C13   A    
C28   O19   A    
C23   C39   S    
C39   O27   A    
C33   C35   A    
C41   C48   S    
Cr1   O1    S    
Cr2   O24   S    
Cr3   O23   S    
Cr4   O26   S    
C10   C11   A    
C14   C40   S    
Cr4   O11   S    
C28   O18   A    
Cr1   O24   S    
C34   C53   T    
C49   C50   S    
C4    O15   A    
Cr2   O19   S    
C21   C22   A    
Cr5   O28   S    
Cr5   O7    S    
C17   C21   A    
