data_mof_unit_14863.cif
_audit_creation_date              2012-12-10T16:32:39-0500
_audit_creation_method            fapswitch 2.2
_symmetry_space_group_name_H-M    P1
_symmetry_Int_Tables_number       1
_space_group_crystal_system       triclinic
_cell_length_a                    16.947745
_cell_length_b                    16.947647
_cell_length_c                    16.947043
_cell_angle_alpha                 64.581136
_cell_angle_beta                  64.581227
_cell_angle_gamma                 64.579626
_cell_volume                      3787.4573207

loop_
_atom_site_label
_atom_site_type_symbol
_atom_type_description
_atom_site_fract_x
_atom_site_fract_y
_atom_site_fract_z
_atom_type_partial_charge
C1    C     C_R   0.586398 0.027792 0.601238 -0.077813
C2    C     C_R   0.821277 0.560123 0.042776 0.877218
C3    C     C_R   0.430834 0.976519 0.177150 0.971175
C4    C     C_R   0.560121 0.042777 0.821277 0.877223
C5    C     C_R   0.569167 0.822851 0.023481 0.971187
C6    C     C_R   0.439876 0.178722 0.957226 0.877215
C7    C     C_R   0.023489 0.569165 0.822846 0.971158
C8    C     C_R   0.957227 0.439877 0.178724 0.877221
C9    C     C_R   0.822851 0.023479 0.569168 0.971250
C10   C     C_R   0.178724 0.957216 0.439881 0.877162
C11   C     C_R   0.536855 0.014113 0.553916 0.137366
C12   C     C_R   0.398786 0.972131 0.413639 -0.077808
C13   C     C_R   0.446125 0.985761 0.463199 0.137371
C14   C     C_R   0.014404 0.553830 0.536736 0.137406
C15   C     C_R   0.986022 0.463103 0.446035 0.137375
C16   C     C_R   0.553898 0.536836 0.014166 0.137374
C17   C     C_R   0.463170 0.446111 0.985819 0.137377
C18   C     C_R   0.578336 0.010501 0.462950 -0.200910
C19   C     C_R   0.401842 0.996229 0.551676 -0.119043
C20   C     C_R   0.010785 0.462866 0.578232 -0.200869
C21   C     C_R   0.996556 0.551552 0.401716 -0.119045
C22   C     C_R   0.462926 0.578314 0.010578 -0.200910
C23   C     C_R   0.028004 0.601177 0.586312 -0.077786
C24   C     C_R   0.551647 0.401826 0.996281 -0.119069
C25   C     C_R   0.537105 0.989319 0.421728 -0.200909
C26   C     C_R   0.448377 0.003659 0.598204 -0.119065
C27   C     C_R   0.421698 0.537087 0.989397 -0.200894
C28   C     C_R   0.598179 0.448356 0.003708 -0.119065
C29   C     C_R   0.989592 0.421640 0.537012 -0.200948
C30   C     C_R   0.004008 0.598091 0.448227 -0.119050
C31   C     C_R   0.538886 0.066934 0.674362 0.420540
C32   C     C_R   0.425962 0.997786 0.316191 0.337068
C33   C     C_R   0.067095 0.674330 0.538832 0.420567
C34   C     C_R   0.972303 0.413572 0.398731 -0.077839
C35   C     C_R   0.997918 0.316134 0.425907 0.337066
C36   C     C_R   0.674369 0.538882 0.066934 0.420529
C37   C     C_R   0.316174 0.425953 0.997818 0.337093
C38   C     C_R   0.325633 0.933040 0.461135 0.420598
C39   C     C_R   0.683840 0.002146 0.574071 0.337077
C40   C     C_R   0.461117 0.325634 0.933062 0.420521
C41   C     C_R   0.574059 0.683829 0.002170 0.337073
C42   C     C_R   0.933141 0.461098 0.325622 0.420545
C43   C     C_R   0.002299 0.574018 0.683766 0.337069
C44   C     C_R   0.590004 0.067311 0.722296 -0.188136
C45   C     C_R   0.601231 0.586385 0.027817 -0.077811
C46   C     C_R   0.393821 0.966685 0.273448 -0.091272
C47   C     C_R   0.067376 0.722288 0.589988 -0.188190
C48   C     C_R   0.966730 0.273430 0.393804 -0.091282
C49   C     C_R   0.722298 0.590007 0.067307 -0.188126
C50   C     C_R   0.273442 0.393818 0.966698 -0.091269
C51   C     C_R   0.277702 0.932686 0.409999 -0.188098
C52   C     C_R   0.726561 0.033296 0.606188 -0.091278
C53   C     C_R   0.409991 0.277701 0.932699 -0.188115
C54   C     C_R   0.606183 0.726557 0.033305 -0.091264
C55   C     C_R   0.932710 0.409993 0.277703 -0.188151
C56   C     C_R   0.413617 0.398778 0.972171 -0.077807
C57   C     C_R   0.033358 0.606170 0.726536 -0.091297
C58   C     C_R   0.678948 0.066578 0.679678 -0.382261
C59   C     C_R   0.320318 0.933435 0.321049 -0.382279
C60   C     C_R   0.066592 0.679684 0.678951 -0.382169
C61   C     C_R   0.933424 0.321054 0.320326 -0.382251
C62   C     C_R   0.679678 0.678951 0.066577 -0.382276
C63   C     C_R   0.321045 0.320315 0.933441 -0.382292
C64   C     C_R   0.976526 0.177147 0.430830 0.971252
C65   C     C_R   0.042799 0.821276 0.560114 0.877116
C66   C     C_R   0.177149 0.430833 0.976520 0.971170
H1    H     H_    0.413581 0.000873 0.669176 0.205044
H2    H     H_    0.423023 0.644130 0.022243 0.197099
H3    H     H_    0.999382 0.586318 0.330729 0.204990
H4    H     H_    0.022428 0.422965 0.644060 0.197126
H5    H     H_    0.714102 0.079594 0.711267 0.212376
H6    H     H_    0.288720 0.920457 0.285879 0.212402
H7    H     H_    0.079521 0.711303 0.714140 0.212410
H8    H     H_    0.920373 0.285911 0.288750 0.212356
H9    H     H_    0.711269 0.714108 0.079583 0.212384
H10   H     H_    0.285883 0.288717 0.920451 0.212401
H11   H     H_    0.425675 0.142579 0.737666 0.338185
H12   H     H_    0.577012 0.977634 0.355920 0.197089
H13   H     H_    0.461421 0.101583 0.293601 0.336491
H14   H     H_    0.142668 0.737779 0.425648 0.338085
H15   H     H_    0.101770 0.293486 0.461325 0.336485
H16   H     H_    0.737684 0.425676 0.142571 0.338180
H17   H     H_    0.293561 0.461396 0.101639 0.336476
H18   H     H_    0.262254 0.857458 0.574350 0.338175
H19   H     H_    0.706463 0.898292 0.538675 0.336485
H20   H     H_    0.574319 0.262316 0.857421 0.338166
H21   H     H_    0.538631 0.706437 0.898339 0.336477
H22   H     H_    0.857492 0.574332 0.262344 0.338178
H23   H     H_    0.001263 0.669055 0.413390 0.205053
H24   H     H_    0.898485 0.538600 0.706328 0.336482
H25   H     H_    0.977899 0.355838 0.576927 0.197080
H26   H     H_    0.669151 0.413555 0.000914 0.205061
H27   H     H_    0.355886 0.576994 0.977723 0.197102
H28   H     H_    0.330865 0.999038 0.586474 0.205055
H29   H     H_    0.644155 0.022154 0.423046 0.197099
H30   H     H_    0.586445 0.330851 0.999078 0.205060
O1    O     O_R   0.982940 0.138950 0.510160 -0.566236
O2    O     O_R   0.982940 0.510160 0.138950 -0.601768
O3    O     O_R   0.861050 0.017060 0.489840 -0.566225
O4    O     O_R   0.138950 0.982940 0.510160 -0.601767
O5    O     O_R   0.867700 0.025880 0.612340 -0.648067
O6    O     O_R   0.132300 0.974120 0.387660 -0.630892
O7    O     O_R   0.025880 0.612340 0.867700 -0.648082
O8    O     O_R   0.974120 0.387660 0.132300 -0.630869
O9    O     O_R   0.612340 0.867700 0.025880 -0.648067
O10   O     O_R   0.387660 0.132300 0.974120 -0.630891
O11   O     O_R   0.387660 0.974120 0.132300 -0.648074
O12   O     O_R   0.017060 0.861050 0.489840 -0.601822
O13   O     O_R   0.612340 0.025880 0.867700 -0.630876
O14   O     O_R   0.132300 0.387660 0.974120 -0.648069
O15   O     O_R   0.867700 0.612340 0.025880 -0.630879
O16   O     O_R   0.974120 0.132300 0.387660 -0.648064
O17   O     O_R   0.025880 0.867700 0.612340 -0.630869
O18   O     O_3   0.444817 0.104261 0.698073 -0.777905
O19   O     O_3   0.477366 0.057613 0.261135 -0.755981
O20   O     O_3   0.104485 0.698032 0.444761 -0.777819
O21   O     O_3   0.057775 0.261045 0.477282 -0.755976
O22   O     O_3   0.698095 0.444813 0.104247 -0.777908
O23   O     O_R   0.138950 0.510160 0.982940 -0.566201
O24   O     O_3   0.261113 0.477357 0.057647 -0.755999
O25   O     O_3   0.301898 0.895731 0.555203 -0.777916
O26   O     O_3   0.738913 0.942284 0.522704 -0.755994
O27   O     O_3   0.555186 0.301907 0.895744 -0.777888
O28   O     O_3   0.522672 0.738895 0.942323 -0.755983
O29   O     O_3   0.895850 0.555172 0.301907 -0.777835
O30   O     O_3   0.942462 0.522622 0.738801 -0.755991
O31   O     O_R   0.861050 0.489840 0.017060 -0.601770
O32   O     O_R   0.510160 0.982940 0.138950 -0.566193
O33   O     O_R   0.489840 0.017060 0.861050 -0.601761
O34   O     O_R   0.489840 0.861050 0.017060 -0.566209
O35   O     O_R   0.510160 0.138950 0.982940 -0.601759
O36   O     O_R   0.017060 0.489840 0.861050 -0.566179
Zn1   Zn    Zn3+2 0.004880 0.004880 0.583590 1.007667
Zn2   Zn    Zn3+2 0.995120 0.995120 0.416410 1.007642
Zn3   Zn    Zn3+2 0.004880 0.583590 0.004880 1.007669
Zn4   Zn    Zn3+2 0.995120 0.416410 0.995120 1.007683
Zn5   Zn    Zn3+2 0.583590 0.004880 0.004880 1.007683
Zn6   Zn    Zn3+2 0.416410 0.995120 0.995120 1.007672

loop_
_geom_bond_atom_site_label_1
_geom_bond_atom_site_label_2
_ccdc_geom_bond_type
C16   C28   A    
C4    O13   A    
C11   C18   A    
C50   C63   A    
H13   O19   S    
C46   C59   A    
C40   C56   A    
O14   Zn4   S    
C34   C42   A    
O1    Zn1   S    
C20   H4    S    
C5    O9    A    
C9    C52   S    
C39   O26   S    
C26   H1    S    
C41   O28   S    
H19   O26   S    
C48   C64   S    
C24   H30   S    
H21   O28   S    
C58   H5    S    
O10   Zn6   S    
C63   H10   S    
C10   C51   S    
H15   O21   S    
C60   H7    S    
C1    C31   A    
C23   C43   A    
C8    C55   S    
O13   Zn5   S    
C34   C35   A    
C19   C26   A    
C8    O2    A    
O7    Zn3   S    
C42   O29   S    
C47   C60   A    
C37   C56   A    
O33   Zn6   S    
H14   O20   S    
C44   C58   A    
C23   C33   A    
C1    C11   S    
C36   O22   S    
C15   C34   S    
C59   H6    S    
C2    O31   A    
C39   C52   A    
C9    O3    A    
O17   Zn1   S    
C12   C32   A    
C18   H29   S    
O8    Zn4   S    
C13   C25   A    
C18   C25   A    
C32   C46   A    
C14   C30   A    
C30   H23   S    
C35   C48   A    
C43   O30   S    
C15   C29   A    
C20   C29   A    
C6    O10   A    
C2    O15   A    
C17   C24   A    
C31   C44   A    
C13   C19   A    
C25   H12   S    
C17   C27   A    
C14   C20   A    
C5    C54   S    
C10   O6    A    
O31   Zn4   S    
C1    C39   A    
C3    O32   A    
C57   C60   A    
C38   C51   A    
C4    C44   S    
C11   C26   A    
C3    O11   A    
H18   O25   S    
O2    Zn3   S    
O23   Zn3   S    
O3    Zn2   S    
C21   H3    S    
H17   O24   S    
C14   C23   S    
O32   Zn5   S    
O6    Zn2   S    
O12   Zn2   S    
H22   O29   S    
O35   Zn5   S    
C2    C49   S    
C42   C55   A    
C8    O8    A    
O36   Zn4   S    
H24   O30   S    
C36   C45   A    
C28   H26   S    
C65   O12   A    
C66   O14   A    
C10   O4    A    
C50   C66   S    
C17   C56   S    
C22   H2    S    
C7    O36   A    
C19   H28   S    
C52   C58   A    
C5    O34   A    
C66   O23   A    
C33   C47   A    
C62   H9    S    
C35   O21   S    
C51   C59   A    
H16   O22   S    
C6    C53   S    
H11   O18   S    
O34   Zn6   S    
C29   H25   S    
O4    Zn1   S    
C40   O27   S    
C64   O1    A    
C33   O20   S    
C16   C22   A    
C49   C62   A    
C31   O18   S    
C65   O17   A    
C64   O16   A    
C24   C28   A    
O16   Zn2   S    
C6    O35   A    
C16   C45   S    
C4    O33   A    
O5    Zn1   S    
C61   H8    S    
C54   C62   A    
C21   C30   A    
C3    C46   S    
C22   C27   A    
O11   Zn6   S    
C37   C50   A    
C53   C63   A    
O15   Zn3   S    
C48   C61   A    
C37   O24   S    
C55   C61   A    
C47   C65   S    
C32   O19   S    
C12   C38   A    
C41   C54   A    
C38   O25   S    
C27   H27   S    
C43   C57   A    
O9    Zn5   S    
C15   C21   A    
C12   C13   S    
C9    O5    A    
C40   C53   A    
H20   O27   S    
C41   C45   A    
C7    O7    A    
C7    C57   S    
C36   C49   A    
