data_mof_unit_55429.cif
_audit_creation_date              2012-12-10T20:28:38-0500
_audit_creation_method            fapswitch 2.2
_symmetry_space_group_name_H-M    P1
_symmetry_Int_Tables_number       1
_space_group_crystal_system       triclinic
_cell_length_a                    10.611378
_cell_length_b                    10.649468
_cell_length_c                    9.886804
_cell_angle_alpha                 90.064039
_cell_angle_beta                  90.487869
_cell_angle_gamma                 90.241461
_cell_volume                      1117.21236324

loop_
_atom_site_label
_atom_site_type_symbol
_atom_type_description
_atom_site_fract_x
_atom_site_fract_y
_atom_site_fract_z
_atom_type_partial_charge
C1    C     C_R   0.509020 0.260445 0.500080 0.858860
C2    C     C_R   0.066065 0.614260 0.440635 0.062889
C3    C     C_R   0.128414 0.511178 0.499834 -0.107190
C4    C     C_R   0.064549 0.414184 0.564134 -0.214400
C5    C     C_R   0.935858 0.414735 0.565328 -0.228346
C6    C     C_R   0.871744 0.512005 0.501755 -0.087585
C7    C     C_R   0.500773 0.064250 0.620006 0.154972
C8    C     C_R   0.533157 0.129030 0.502937 -0.213800
C9    C     C_R   0.587684 0.063489 0.393167 -0.026934
C10   C     C_R   0.577893 0.932749 0.392755 -0.209213
C11   C     C_R   0.521902 0.871419 0.502354 -0.152327
C12   C     C_R   0.260598 0.502954 0.499683 0.860428
C13   C     C_R   0.496245 0.936786 0.620061 0.135001
C14   C     C_3   0.382425 0.932512 0.707858 -0.463682
C15   C     C_3   0.387463 0.074822 0.708321 -0.473800
C16   C     C_R   0.429872 0.414058 0.069704 0.201656
C17   C     C_R   0.576126 0.578845 0.073237 -0.136531
C18   C     C_R   0.577062 0.578752 0.928922 0.245285
C19   C     C_R   0.432282 0.412054 0.927549 0.157281
C20   C     C_3   0.294097 0.389259 0.915489 -0.517079
C21   C     C_3   0.289201 0.395628 0.069209 -0.275010
C22   C     C_R   0.502851 0.739949 0.500134 0.860505
C23   C     C_R   0.739450 0.503329 0.500483 0.850989
C24   C     C_R   0.131385 0.717762 0.384688 -0.155075
C25   C     C_R   0.065508 0.818062 0.327931 -0.104260
C26   C     C_R   0.934336 0.817697 0.327342 -0.151973
C27   C     C_R   0.868710 0.717197 0.383887 -0.195368
C28   C     C_R   0.934082 0.614286 0.440868 0.099647
H1    H     H_    0.114677 0.336909 0.611243 0.144914
H2    H     H_    0.403179 0.890445 0.808440 0.220710
H3    H     H_    0.305731 0.119046 0.656032 0.191375
H4    H     H_    0.411514 0.114781 0.809238 0.213830
H5    H     H_    0.635215 0.644215 0.129005 0.147599
H6    H     H_    0.244020 0.466558 0.862230 0.241519
H7    H     H_    0.272491 0.294180 0.874999 0.179446
H8    H     H_    0.260785 0.305229 0.116393 0.129702
H9    H     H_    0.233162 0.722825 0.385380 0.158006
H10   H     H_    0.116400 0.896676 0.285214 0.145973
H11   H     H_    0.883266 0.896026 0.284209 0.167778
H12   H     H_    0.767095 0.721749 0.384170 0.141516
H13   H     H_    0.885887 0.337741 0.612982 0.149529
H14   H     H_    0.611049 0.879414 0.306771 0.192630
H15   H     H_    0.298075 0.893526 0.654720 0.199012
N1    N     N_R   0.499160 0.499140 0.142800 -0.108550
N2    N     N_R   0.499160 0.499180 0.857150 -0.114974
O1    O     O_R   0.500020 0.316790 0.614690 -0.605980
O2    O     O_R   0.500000 0.316760 0.385350 -0.634982
O3    O     O_R   0.316770 0.500020 0.614690 -0.615453
O4    O     O_R   0.316760 0.499980 0.385350 -0.619179
O5    O     O_R   0.500000 0.683240 0.614650 -0.594119
O6    O     O_R   0.499980 0.683210 0.385310 -0.622800
O7    O     O_R   0.683240 0.500020 0.614650 -0.596027
O8    O     O_R   0.683230 0.499980 0.385310 -0.637657
Zn1   Zn    Zn3+2 0.500010 0.500020 0.653130 0.967465
Zn2   Zn    Zn3+2 0.499990 0.499980 0.346870 0.954207
N3    N     N_2   0.654767 0.664979 0.858640 -0.262244
H16   H     H_    0.634004 0.757139 0.881212 0.221407
C29   C     C_3   0.788383 0.640037 0.870117 -0.737802
H17   H     H_    0.840427 0.702025 0.799481 0.243690
H18   H     H_    0.808776 0.540871 0.843240 0.255993
H19   H     H_    0.822412 0.658905 0.974849 0.220882
C30   C     C_2   0.213912 0.506344 0.118099 0.521033
H20   H     H_    0.129203 0.489887 0.176201 0.052182
O9    O     O_2   0.244489 0.613936 0.090228 -0.573544
C31   C     C_2   0.653924 0.127524 0.280558 0.393319
H21   H     H_    0.687407 0.223319 0.291742 0.092639
O10   O     O_2   0.674627 0.072790 0.174468 -0.597982

loop_
_geom_bond_atom_site_label_1
_geom_bond_atom_site_label_2
_ccdc_geom_bond_type
C30   O9    D    
C19   N2    A    
C12   O4    A    
C16   C21   S    
C2    C3    A    
C25   H10   S    
C10   H14   S    
C1    C8    S    
C2    C24   A    
C9    C10   A    
C16   N1    A    
C11   C22   S    
C1    O2    A    
C19   C20   S    
C18   N3    S    
C27   H12   S    
C12   O3    A    
C20   H6    S    
C20   C21   S    
O1    Zn1   S    
C29   H19   S    
C7    C15   S    
C24   H9    S    
C23   O7    A    
C17   N1    A    
C7    C8    A    
C21   H8    S    
O5    Zn1   S    
C13   C14   S    
N3    H16   S    
O3    Zn1   S    
C4    C5    A    
C11   C13   A    
N1    Zn2   S    
C21   C30   S    
C30   H20   S    
C17   H5    S    
C14   H2    S    
C16   C19   A    
C6    C23   S    
O2    Zn2   S    
O7    Zn1   S    
N2    Zn1   S    
C23   O8    A    
O6    Zn2   S    
O8    Zn2   S    
C26   C27   A    
C5    C6    A    
C26   H11   S    
C9    C31   S    
C1    O1    A    
C29   H17   S    
C10   C11   A    
C29   H18   S    
C3    C4    A    
C18   N2    A    
C22   O5    A    
C7    C13   A    
C24   C25   A    
C17   C18   A    
C31   H21   S    
C27   C28   A    
C5    H13   S    
C14   C15   S    
C14   H15   S    
C2    C28   A    
C3    C12   S    
C25   C26   A    
O4    Zn2   S    
C20   H7    S    
C15   H3    S    
C22   O6    A    
C6    C28   A    
C4    H1    S    
N3    C29   S    
C8    C9    A    
C31   O10   D    
C15   H4    S    
