data_mof_unit_27003.cif
_audit_creation_date              2012-12-10T19:00:02-0500
_audit_creation_method            fapswitch 2.2
_symmetry_space_group_name_H-M    P1
_symmetry_Int_Tables_number       1
_space_group_crystal_system       triclinic
_cell_length_a                    10.804235
_cell_length_b                    10.608231
_cell_length_c                    9.926571
_cell_angle_alpha                 88.305393
_cell_angle_beta                  91.300896
_cell_angle_gamma                 90.74327
_cell_volume                      1136.84539179

loop_
_atom_site_label
_atom_site_type_symbol
_atom_type_description
_atom_site_fract_x
_atom_site_fract_y
_atom_site_fract_z
_atom_type_partial_charge
C1    C     C_R   0.499934 0.260323 0.501171 0.854560
C2    C     C_R   0.502419 0.739675 0.498485 0.847894
C3    C     C_R   0.872262 0.492009 0.504701 -0.083711
C4    C     C_R   0.127077 0.501535 0.494777 -0.086020
C5    C     C_R   0.942288 0.490589 0.626083 -0.007748
C6    C     C_R   0.056825 0.492135 0.373823 -0.009998
C7    C     C_R   0.432212 0.066353 0.401762 -0.217610
C8    C     C_R   0.578270 0.933767 0.592741 -0.231511
C9    C     C_R   0.435248 0.937439 0.398442 -0.186419
C10   C     C_R   0.576400 0.063080 0.594990 -0.190794
C11   C     C_R   0.506461 0.872259 0.495461 -0.009273
C12   C     C_R   0.501273 0.127834 0.501373 0.009795
C13   C     C_R   0.512497 0.610407 0.067181 0.560685
C14   C     C_R   0.487690 0.388217 0.931739 0.552878
C15   C     C_R   0.509755 0.609656 0.924356 -0.273648
C16   C     C_R   0.491566 0.390193 0.076481 -0.323960
C17   C     C_R   0.259988 0.500773 0.498063 0.859617
C18   C     C_R   0.739725 0.496395 0.501878 0.846069
C19   C     C_R   0.196908 0.548586 0.030959 -0.149855
C20   C     C_R   0.793077 0.315308 0.918486 -0.124177
C21   C     C_R   0.156506 0.570432 0.160966 -0.092443
C22   C     C_R   0.837473 0.343842 0.789956 -0.090661
C23   C     C_R   0.107683 0.470414 0.239776 0.150591
C24   C     C_R   0.890588 0.462925 0.760700 0.150106
C25   C     C_R   0.095375 0.350112 0.185506 -0.154669
C26   C     C_R   0.900890 0.551903 0.862176 -0.146458
C27   C     C_R   0.133766 0.329331 0.055020 -0.145052
C28   C     C_R   0.857097 0.522641 0.990715 -0.127654
C29   C     C_R   0.186654 0.427772 0.978829 -0.123149
C30   C     C_R   0.802657 0.404737 0.018751 -0.135668
C31   C     C_R   0.930231 0.492678 0.380682 -0.266516
C32   C     C_R   0.068556 0.504772 0.618769 -0.253185
H1    H     H_    0.220657 0.409544 0.879937 0.148816
H2    H     H_    0.768038 0.382179 0.118043 0.135974
H3    H     H_    0.515020 0.698008 0.867739 0.188869
H4    H     H_    0.488003 0.304295 0.136904 0.164492
H5    H     H_    0.236010 0.625146 0.970615 0.131664
H6    H     H_    0.751342 0.223886 0.940408 0.131834
H7    H     H_    0.163383 0.664466 0.200302 0.115992
H8    H     H_    0.830588 0.273467 0.713178 0.101184
H9    H     H_    0.054441 0.273010 0.243783 0.121810
H10   H     H_    0.943566 0.643254 0.841965 0.120150
H11   H     H_    0.123071 0.236646 0.013218 0.127136
H12   H     H_    0.867075 0.591175 0.068617 0.121562
H13   H     H_    0.876993 0.489770 0.287405 0.160258
H14   H     H_    0.121322 0.511655 0.711846 0.164824
H15   H     H_    0.375283 0.117963 0.328181 0.140944
H16   H     H_    0.634536 0.881851 0.666656 0.148159
H17   H     H_    0.379915 0.888639 0.323354 0.167229
H18   H     H_    0.631985 0.112219 0.669612 0.159631
N1    N     N_R   0.499970 0.499970 0.857200 -0.133198
N2    N     N_R   0.500030 0.500030 0.142800 -0.135653
O1    O     O_R   0.499990 0.316750 0.614620 -0.545783
O2    O     O_R   0.500010 0.683250 0.385380 -0.587286
O3    O     O_R   0.499990 0.316780 0.385290 -0.640650
O4    O     O_R   0.500010 0.683220 0.614710 -0.632566
O5    O     O_R   0.316760 0.500000 0.614660 -0.623865
O6    O     O_R   0.683240 0.500000 0.385340 -0.645239
O7    O     O_R   0.316760 0.500020 0.385330 -0.604582
O8    O     O_R   0.683240 0.499980 0.614670 -0.606088
Zn1   Zn    Zn3+2 0.500000 0.499980 0.653120 0.981592
Zn2   Zn    Zn3+2 0.500000 0.500020 0.346880 0.956231
O9    O     O_3   0.519406 0.725359 0.128616 -0.616570
C33   C     C_3   0.645047 0.760387 0.150689 0.167151
H19   H     H_    0.704744 0.679001 0.180604 0.126593
H20   H     H_    0.649264 0.824704 0.236923 0.174511
C34   C     C_3   0.697402 0.833365 0.029329 -0.993776
H21   H     H_    0.632252 0.908164 0.994173 0.272379
H22   H     H_    0.787160 0.878144 0.058400 0.226420
H23   H     H_    0.714299 0.769142 0.945753 0.250842
O10   O     O_3   0.474992 0.275808 0.862553 -0.584533
C35   C     C_3   0.420870 0.175376 0.939235 0.036672
H24   H     H_    0.342600 0.207846 0.999091 0.138461
H25   H     H_    0.491918 0.130900 0.007512 0.144596
C36   C     C_3   0.368688 0.074978 0.846823 -0.797584
H26   H     H_    0.444372 0.015512 0.812304 0.253921
H27   H     H_    0.303176 0.012616 0.903029 0.200455
H28   H     H_    0.318806 0.119215 0.758855 0.265006

loop_
_geom_bond_atom_site_label_1
_geom_bond_atom_site_label_2
_ccdc_geom_bond_type
O6    Zn2   S    
C27   C29   A    
C35   H25   S    
C14   O10   S    
N1    Zn1   S    
C20   C30   A    
C19   C21   A    
C24   C26   A    
O3    Zn2   S    
C29   H1    S    
C3    C18   S    
C36   H27   S    
C1    O1    A    
C19   H5    S    
O1    Zn1   S    
C18   O6    A    
C13   O9    S    
C15   N1    A    
C5    C32   A    
C6    C31   A    
C1    C12   S    
C35   C36   S    
C2    C11   S    
C15   H3    S    
C21   C23   A    
C7    C12   A    
C30   H2    S    
C34   H21   S    
C33   C34   S    
C9    H17   S    
C4    C6    A    
C2    O2    A    
C25   H9    S    
O2    Zn2   S    
C28   H12   S    
O8    Zn1   S    
C34   H22   S    
C33   H20   S    
C36   H26   S    
C8    H16   S    
C13   N2    A    
C20   H6    S    
C14   N1    A    
C21   H7    S    
C22   H8    S    
C3    C31   A    
C9    C11   A    
C4    C32   A    
C10   C12   A    
C17   O7    A    
C4    C17   S    
C18   O8    A    
C20   C22   A    
C13   C15   A    
C22   C24   A    
C10   H18   S    
C26   H10   S    
C7    C9    A    
O7    Zn2   S    
C32   H14   S    
C16   N2    A    
C35   H24   S    
C3    C5    A    
O5    Zn1   S    
C25   C27   A    
C7    H15   S    
C26   C28   A    
C34   H23   S    
C33   H19   S    
C28   C30   A    
C1    O3    A    
O10   C35   S    
C2    O4    A    
C16   H4    S    
C5    C24   S    
C8    C11   A    
C6    C23   S    
C14   C16   A    
C23   C25   A    
C36   H28   S    
O9    C33   S    
C27   H11   S    
C8    C10   A    
C31   H13   S    
O4    Zn1   S    
N2    Zn2   S    
C17   O5    A    
C19   C29   A    
