data_mof_unit_10098.cif
_audit_creation_date              2013-03-05T15:42:03-0500
_audit_creation_method            fapswitch 2.2
_symmetry_space_group_name_H-M    P1
_symmetry_Int_Tables_number       1
_space_group_crystal_system       triclinic
_cell_length_a                    27.742354
_cell_length_b                    8.79865
_cell_length_c                    7.423646
_cell_angle_alpha                 102.874234
_cell_angle_beta                  93.853701
_cell_angle_gamma                 92.75492
_cell_volume                      1758.82403644

loop_
_atom_site_label
_atom_site_type_symbol
_atom_site_description
_atom_site_fract_x
_atom_site_fract_y
_atom_site_fract_z
_atom_type_partial_charge
O1    O     O_R   0.503500 0.286120 0.619780 -0.577780
O2    O     O_R   0.496500 0.713880 0.380220 -0.568164
O3    O     O_R   0.494410 0.256780 0.308360 -0.514591
O4    O     O_R   0.505590 0.743220 0.691640 -0.525719
C1    C     C_R   0.498585 0.200341 0.453852 0.819117
C2    C     C_R   0.501203 0.799623 0.546111 0.825393
O5    O     O_R   0.434810 0.514700 0.655690 -0.588410
O6    O     O_R   0.565190 0.485300 0.344310 -0.563885
O7    O     O_R   0.425720 0.485350 0.344280 -0.552759
O8    O     O_R   0.574280 0.514650 0.655720 -0.570500
C3    C     C_R   0.407586 0.502878 0.503350 0.860551
C4    C     C_R   0.592537 0.498524 0.496705 0.851293
Cu1   Cu    Cu3+1 0.505380 0.517380 0.684380 1.106410
Cu2   Cu    Cu3+1 0.494620 0.482620 0.315620 1.128259
C5    C     C_R   0.175266 0.362391 0.523192 0.599440
C6    C     C_R   0.825827 0.648891 0.497483 0.607389
O9    O     O_2   0.196474 0.225191 0.485730 -0.488833
O10   O     O_2   0.803663 0.776712 0.472498 -0.487530
N1    N     N_R   0.202740 0.500092 0.548023 -0.444773
N2    N     N_R   0.798771 0.517562 0.508077 -0.447984
C7    C     C_R   0.182262 0.641073 0.588775 0.646561
C8    C     C_R   0.819957 0.386337 0.535006 0.622977
C9    C     C_R   0.274791 0.557818 0.388655 0.290463
C10   C     C_R   0.719204 0.440559 0.332075 0.292086
C11   C     C_R   0.325602 0.566379 0.383127 0.213007
C12   C     C_R   0.668163 0.431225 0.329834 0.203021
C13   C     C_R   0.333211 0.444012 0.646682 -0.165188
C14   C     C_R   0.674360 0.577345 0.651664 -0.162764
C15   C     C_R   0.283361 0.440738 0.656148 -0.054377
C16   C     C_R   0.724438 0.586188 0.653432 -0.095648
C17   C     C_R   0.253914 0.497011 0.528516 0.171967
C18   C     C_R   0.747030 0.518218 0.495596 0.188102
C19   C     C_R   0.102931 0.506606 0.563571 -0.040064
C20   C     C_R   0.899137 0.516143 0.536799 -0.043186
C21   C     C_R   0.124946 0.363219 0.533828 -0.020985
C22   C     C_R   0.876557 0.650732 0.511819 -0.028523
C23   C     C_R   0.096182 0.224126 0.510163 -0.131473
C24   C     C_R   0.905020 0.782739 0.498892 -0.134246
C25   C     C_R   0.131918 0.646869 0.591770 -0.027069
C26   C     C_R   0.870524 0.382838 0.548839 -0.031856
C27   C     C_R   0.354798 0.506363 0.511457 -0.192500
C28   C     C_R   0.645639 0.500564 0.491398 -0.190753
H1    H     H_    0.355034 0.396561 0.744975 0.207271
H2    H     H_    0.658022 0.632038 0.776439 0.213494
H3    H     H_    0.267462 0.395041 0.764154 0.208044
H4    H     H_    0.745978 0.643994 0.779351 0.195386
H5    H     H_    0.112077 0.112063 0.483361 0.184376
H6    H     H_    0.888567 0.885461 0.472666 0.178943
C29   C     C_R   0.972514 0.374821 0.559500 0.045351
C30   C     C_R   0.029924 0.653192 0.574124 0.044387
C31   C     C_R   0.978834 0.652502 0.548814 0.046089
C32   C     C_R   0.023265 0.369115 0.548923 0.046997
C33   C     C_R   0.950318 0.514604 0.548898 0.075906
C34   C     C_R   0.051902 0.509693 0.563082 0.076282
C35   C     C_R   0.943059 0.245684 0.580803 -0.206664
C36   C     C_R   0.059916 0.792623 0.610673 -0.207264
C37   C     C_R   0.892949 0.249976 0.576117 -0.117387
C38   C     C_R   0.110070 0.789370 0.620873 -0.113037
O11   O     O_2   0.792105 0.259826 0.548263 -0.461333
O12   O     O_2   0.210558 0.775165 0.624440 -0.465985
C39   C     C_R   0.046289 0.226974 0.519077 -0.202240
C40   C     C_R   0.955253 0.783885 0.517698 -0.200606
H7    H     H_    0.871754 0.148483 0.593536 0.194545
H8    H     H_    0.131650 0.899141 0.648412 0.194336
H9    H     H_    0.958128 0.141778 0.607739 0.133519
H10   H     H_    0.045387 0.906213 0.637435 0.136366
H11   H     H_    0.026153 0.115551 0.493078 0.127906
H12   H     H_    0.975080 0.886525 0.498858 0.125961
C41   C     C_2   0.501147 0.034562 0.427635 0.055445
C42   C     C_2   0.498267 0.965261 0.572029 0.048421
N3    N     N_2   0.486510 0.456430 0.038510 -0.165732
N4    N     N_2   0.513490 0.543570 0.961490 -0.166045
H13   H     H_    0.461038 0.382998 0.949297 0.259659
H14   H     H_    0.539017 0.616766 0.050660 0.265147
N5    N     N_R   0.639703 0.349742 0.165098 0.164302
O13   O     O_R   0.644395 0.390275 0.008622 -0.308435
O14   O     O_R   0.611786 0.227422 0.168374 -0.249685
N6    N     N_R   0.347356 0.638585 0.250412 0.170713
O15   O     O_R   0.334009 0.591335 0.074703 -0.321925
O16   O     O_R   0.379225 0.756090 0.305796 -0.298428
N7    N     N_R   0.742809 0.366387 0.171867 0.157077
O17   O     O_R   0.729088 0.224283 0.083402 -0.242617
O18   O     O_R   0.779392 0.438075 0.118000 -0.344787
N8    N     N_R   0.244438 0.613591 0.255732 0.153572
O19   O     O_R   0.253786 0.751119 0.223850 -0.233547
O20   O     O_R   0.206019 0.530013 0.172311 -0.360008
N9    N     N_R   0.509837 0.949532 0.245195 0.146145
O21   O     O_R   0.474040 0.909127 0.118234 -0.234846
O22   O     O_R   0.553967 0.926080 0.202008 -0.313630
N10   N     N_R   0.489031 0.050051 0.753903 0.137896
O23   O     O_R   0.524545 0.091318 0.881893 -0.228954
O24   O     O_R   0.444673 0.069463 0.796485 -0.326859

loop_
_geom_bond_atom_site_label_1
_geom_bond_atom_site_label_2
_geom_bond_distance
_ccdc_geom_bond_type
N9    O21   1.300721 A    
N5    O13   1.301527 A    
C13   C15   1.388700 A    
Cu2   N3    2.014253 S    
O7    Cu2   1.938113 S    
N1    C17   1.437621 S    
N7    O17   1.301626 A    
O2    C2    1.287524 A    
C5    N1    1.369554 A    
C19   C25   1.407273 A    
O1    C1    1.287936 A    
C21   C23   1.398888 A    
N8    O20   1.301271 A    
C32   C39   1.411926 A    
N6    O16   1.301332 A    
C2    C42   1.433947 S    
O4    Cu1   1.975493 S    
C13   C27   1.400712 A    
C1    C41   1.433824 S    
C35   H9    1.075894 S    
C14   C16   1.386737 A    
C4    C28   1.475703 S    
C36   H10   1.077876 S    
C37   H7    1.082179 S    
C23   H5    1.082779 S    
C24   H6    1.081318 S    
C41   N9    1.435914 S    
C6    N2    1.367425 A    
Cu1   Cu2   2.680498 S    
C42   N10   1.435684 S    
C31   C40   1.410316 A    
C5    C21   1.403785 A    
N7    O18   1.301252 A    
C32   C34   1.417230 A    
C30   C31   1.416719 A    
C38   H8    1.083069 S    
C9    N8    1.437846 S    
C11   N6    1.435443 S    
N8    O19   1.301244 A    
C7    O12   1.349879 S    
O4    C2    1.286594 A    
C11   C27   1.415638 A    
C8    O11   1.349867 S    
N3    H13   1.028568 S    
N6    O15   1.300011 A    
C29   C35   1.411371 A    
C25   C38   1.398594 A    
C14   H2    1.083416 S    
C30   C36   1.412151 A    
C15   H3    1.083159 S    
C31   C33   1.416378 A    
C9    C17   1.413620 A    
O5    C3    1.298233 A    
C10   N7    1.438445 S    
C10   C18   1.410720 A    
N5    O14   1.301072 A    
C39   H11   1.076555 S    
N10   O24   1.300724 A    
C7    C25   1.401515 A    
O6    C4    1.298648 A    
C29   C32   1.418045 A    
C8    C26   1.402027 A    
C12   N5    1.434594 S    
C30   C34   1.416774 A    
O7    C3    1.295185 A    
O3    Cu2   1.975493 S    
O8    C4    1.297233 A    
N4    H14   1.028426 S    
N2    C8    1.367781 A    
C35   C37   1.390808 A    
C20   C26   1.407316 A    
O1    Cu1   1.981063 S    
C12   C28   1.418643 A    
N2    C18   1.432555 S    
C19   C34   1.417012 A    
C5    O9    1.349619 S    
O6    Cu2   1.953481 S    
C26   C37   1.397519 A    
N1    C7    1.369887 A    
C16   H4    1.083238 S    
C10   C12   1.413180 A    
O3    C1    1.286202 A    
O8    Cu1   1.938115 S    
C23   C39   1.391322 A    
Cu1   N4    2.014252 S    
C40   H12   1.075437 S    
C22   C24   1.397656 A    
N3    N4    1.293337 D    
C15   C17   1.397914 A    
C6    C22   1.403288 A    
C16   C18   1.394947 A    
N10   O23   1.300525 A    
C29   C33   1.416852 A    
C14   C28   1.403366 A    
C19   C21   1.407643 A    
C36   C38   1.390386 A    
C3    C27   1.471254 S    
C20   C22   1.408078 A    
C9    C11   1.411862 A    
C41   C42   1.351044 D    
O2    Cu2   1.981064 S    
C13   H1    1.083492 S    
O5    Cu1   1.953481 S    
C20   C33   1.417579 A    
C6    O10   1.349590 S    
N9    O22   1.300663 A    
C24   C40   1.390537 A    
