data_mof_unit_43383.cif
_audit_creation_date              2013-03-05T15:57:56-0500
_audit_creation_method            fapswitch 2.2
_symmetry_space_group_name_H-M    P1
_symmetry_Int_Tables_number       1
_space_group_crystal_system       triclinic
_cell_length_a                    15.068116
_cell_length_b                    15.217122
_cell_length_c                    16.915417
_cell_angle_alpha                 109.122752
_cell_angle_beta                  106.547412
_cell_angle_gamma                 108.574251
_cell_volume                      3128.61849534

loop_
_atom_site_label
_atom_site_type_symbol
_atom_site_description
_atom_site_fract_x
_atom_site_fract_y
_atom_site_fract_z
_atom_type_partial_charge
C1    C     C_R   0.090569 0.277887 0.042843 0.321953
C2    C     C_R   0.912625 0.707603 0.918350 0.288479
N1    N     N_R   0.055660 0.348550 0.045620 -0.081954
N2    N     N_R   0.944340 0.651450 0.954380 -0.081290
C3    C     C_R   0.932859 0.447808 0.735082 -0.011976
C4    C     C_R   0.066433 0.498593 0.261111 -0.056803
H1    H     H_    0.853844 0.404169 0.682979 0.138062
H2    H     H_    0.145448 0.528342 0.309764 0.175763
N3    N     N_R   0.960830 0.507850 0.823700 -0.053463
N4    N     N_R   0.039170 0.492150 0.176300 -0.063555
C5    C     C_R   0.721695 0.215821 0.822936 -0.116609
C6    C     C_R   0.219403 0.795512 0.187887 -0.043173
H3    H     H_    0.692025 0.165832 0.851810 0.116833
H4    H     H_    0.226371 0.857900 0.169461 0.115465
N5    N     N_R   0.811290 0.303410 0.871650 -0.054717
N6    N     N_R   0.188710 0.696590 0.128350 -0.050236
C7    C     C_R   0.302125 0.596669 0.008675 0.564313
C8    C     C_R   0.740185 0.468532 0.049854 0.548171
N7    N     N_R   0.205200 0.552990 0.997670 -0.088771
N8    N     N_R   0.794800 0.447010 0.002330 -0.134027
C9    C     C_R   0.728230 0.306961 0.743801 -0.038339
C10   C     C_R   0.219429 0.702245 0.265829 -0.142584
H5    H     H_    0.707605 0.337925 0.696451 0.166308
H6    H     H_    0.232099 0.679557 0.320217 0.166436
N9    N     N_R   0.814800 0.361830 0.823700 -0.048978
N10   N     N_R   0.185200 0.638170 0.176300 -0.051293
C11   C     C_R   0.294145 0.496208 0.078702 -0.159663
C12   C     C_R   0.762904 0.572979 0.983769 -0.257058
H7    H     H_    0.316465 0.461605 0.122064 0.203069
H8    H     H_    0.764450 0.633476 0.963937 0.160226
N11   N     N_R   0.201680 0.494570 0.045620 -0.083861
N12   N     N_R   0.798320 0.505430 0.954380 -0.056962
C13   C     C_R   0.105616 0.524895 0.810618 -0.076504
C14   C     C_R   0.894731 0.408191 0.182674 -0.019219
H9    H     H_    0.186707 0.547405 0.827480 0.185517
H10   H     H_    0.817358 0.348907 0.159058 0.127518
N13   N     N_R   0.068420 0.560530 0.871650 -0.055910
N14   N     N_R   0.931580 0.439470 0.128350 -0.075805
C15   C     C_R   0.917633 0.194242 0.956322 -0.134204
C16   C     C_R   0.084317 0.795333 0.000033 -0.170926
H11   H     H_    0.838130 0.135521 0.913615 0.163556
H12   H     H_    0.164568 0.850154 0.025627 0.167374
N15   N     N_R   0.948070 0.295860 0.997670 -0.073955
N16   N     N_R   0.051930 0.704140 0.002330 -0.070644
C17   C     C_R   0.005217 0.180160 0.984520 -0.086035
C18   C     C_R   0.998112 0.799077 0.948657 -0.084413
C19   C     C_R   0.021043 0.450361 0.724478 0.064155
C20   C     C_R   0.976888 0.448065 0.268147 0.121484
C21   C     C_R   0.666179 0.215599 0.742135 0.112040
C22   C     C_R   0.235181 0.800702 0.274616 0.091720
C23   C     C_R   0.358902 0.560586 0.057434 -0.072557
C24   C     C_R   0.721044 0.549188 0.040291 0.087837
C25   C     C_R   0.931587 0.922456 0.982436 -0.137192
C26   C     C_R   0.061616 0.047192 0.932064 -0.084703
H13   H     H_    0.883379 0.874796 0.004188 0.113425
H14   H     H_    0.109956 0.095433 0.910956 0.149697
C27   C     C_R   0.994676 0.890800 0.946426 0.118439
C28   C     C_R   0.001075 0.080793 0.971840 0.095741
C29   C     C_R   0.059196 0.951210 0.919214 0.115168
C30   C     C_R   0.933568 0.017052 0.995306 0.144463
C31   C     C_R   0.762384 0.016156 0.990649 0.313981
C32   C     C_R   0.229846 0.964903 0.914125 0.328394
Ni1   Ni    Ni4+2 0.119340 0.493420 0.109960 0.277175
Ni2   Ni    Ni4+2 0.880660 0.506580 0.890040 0.288517
Ni3   Ni    Ni4+2 0.872590 0.372590 0.000000 0.201588
Ni4   Ni    Ni4+2 0.127410 0.627410 0.000000 0.272970
C33   C     C_R   0.756598 0.101130 0.137728 -0.338560
C34   C     C_R   0.227274 0.830291 0.785139 -0.269183
H15   H     H_    0.465307 0.643851 0.442898 0.210086
H16   H     H_    0.532492 0.579016 0.660201 0.170942
C35   C     C_R   0.490333 0.710780 0.352340 -0.136542
C36   C     C_R   0.508179 0.476747 0.723015 -0.057278
H17   H     H_    0.478071 0.776423 0.387187 0.178022
H18   H     H_    0.469937 0.407316 0.657161 0.211414
C37   C     C_R   0.513430 0.701808 0.276313 0.553965
C38   C     C_R   0.519804 0.468576 0.805200 0.607759
C39   C     C_R   0.527694 0.614213 0.230350 -0.095965
C40   C     C_R   0.565377 0.561065 0.890165 0.048805
C41   C     C_R   0.520826 0.540029 0.263616 -0.131422
C42   C     C_R   0.598879 0.658535 0.890185 -0.241968
H19   H     H_    0.530261 0.472241 0.228822 0.216859
H20   H     H_    0.630830 0.729715 0.953921 0.146602
C43   C     C_R   0.498941 0.551123 0.340138 -0.010630
C44   C     C_R   0.587968 0.664751 0.807799 0.030354
H21   H     H_    0.493012 0.493122 0.364732 0.188714
H22   H     H_    0.613292 0.739844 0.808343 0.206550
C45   C     C_R   0.483126 0.635988 0.384073 -0.140932
C46   C     C_R   0.542319 0.574035 0.724267 -0.050326
C47   C     C_R   0.632789 0.594094 0.138185 0.563315
C48   C     C_R   0.463805 0.540856 0.976301 0.478448
C49   C     C_R   0.639377 0.573712 0.053191 -0.104146
C50   C     C_R   0.456354 0.564639 0.060403 -0.151184
C51   C     C_R   0.558145 0.558768 0.975236 -0.172137
C52   C     C_R   0.540315 0.593012 0.142929 -0.171694
C53   C     C_R   0.707747 0.045151 0.041044 -0.241114
C54   C     C_R   0.282182 0.923760 0.867737 -0.200514
C55   C     C_R   0.968489 0.427313 0.345595 -0.212617
C56   C     C_R   0.020293 0.390341 0.635106 -0.096564
C57   C     C_R   0.119626 0.400681 0.546066 -0.185086
C58   C     C_R   0.863010 0.383283 0.424765 -0.189101
C59   C     C_R   0.112998 0.401383 0.627078 0.286515
C60   C     C_R   0.878147 0.416183 0.360005 0.291162
C61   C     C_R   0.929549 0.347798 0.553390 0.269076
C62   C     C_R   0.048172 0.416672 0.404711 0.371484
C63   C     C_R   0.941086 0.372776 0.483131 -0.065943
C64   C     C_R   0.037304 0.397579 0.478000 -0.049465
H23   H     H_    0.190773 0.408530 0.539677 0.227257
H24   H     H_    0.794461 0.377019 0.435915 0.217535
C65   C     C_R   0.557607 0.138722 0.674895 -0.101975
C66   C     C_R   0.268726 0.893854 0.360842 -0.121887
C67   C     C_R   0.362813 0.082103 0.447398 0.440244
C68   C     C_R   0.425090 0.958557 0.600567 0.420005
C69   C     C_R   0.299061 0.991845 0.363206 -0.307072
C70   C     C_R   0.517701 0.041068 0.673014 -0.306659
C71   C     C_R   0.287788 0.888178 0.444874 0.540977
C72   C     C_R   0.497162 0.157355 0.607369 0.561262
C73   C     C_R   0.373026 0.972509 0.525206 -0.198681
C74   C     C_R   0.410189 0.072491 0.527758 -0.184673
H25   H     H_    0.626039 0.023024 0.005649 0.204085
H26   H     H_    0.366256 0.962421 0.897277 0.195823
H27   H     H_    0.562109 0.025220 0.724360 0.210395
H28   H     H_    0.275480 0.999124 0.299967 0.189999
H29   H     H_    0.711710 0.120395 0.174337 0.188057
H30   H     H_    0.269784 0.799047 0.752204 0.205114
C75   C     C_R   0.862008 0.130255 0.186848 0.604206
C76   C     C_R   0.118326 0.776720 0.746207 0.584743
C77   C     C_R   0.918428 0.105967 0.137826 -0.173242
C78   C     C_R   0.065573 0.818737 0.790568 -0.177403
H31   H     H_    0.999775 0.128358 0.176099 0.204978
H32   H     H_    0.981476 0.777561 0.759898 0.200201
C79   C     C_R   0.870363 0.049159 0.040532 -0.171827
C80   C     C_R   0.119870 0.912315 0.874313 -0.163827
N17   N     N_R   0.185768 0.299560 0.112944 0.224172
O1    O     O_R   0.230768 0.240161 0.096575 -0.332401
O2    O     O_R   0.225187 0.376426 0.195734 -0.371927
N18   N     N_R   0.818064 0.662716 0.836107 0.217934
O3    O     O_R   0.799302 0.717950 0.794990 -0.390905
O4    O     O_R   0.757784 0.562663 0.794500 -0.453956
N19   N     N_R   0.707189 0.955307 0.890535 0.212808
O5    O     O_R   0.753712 0.927697 0.840007 -0.389623
O6    O     O_R   0.608988 0.929184 0.848337 -0.401999
N20   N     N_R   0.289318 0.056066 0.003129 0.251410
O7    O     O_R   0.262937 0.060495 0.070666 -0.343968
O8    O     O_R   0.378466 0.127280 0.021225 -0.341087
O9    O     O_3   0.520415 0.779323 0.249456 -0.731695
H33   H     H_    0.547904 0.770435 0.202336 0.320742
O10   O     O_3   0.481210 0.369843 0.798751 -0.738310
H34   H     H_    0.504067 0.375138 0.861802 0.323656
O11   O     O_3   0.718471 0.616491 0.213893 -0.673832
H35   H     H_    0.709705 0.643028 0.271397 0.344444
O12   O     O_3   0.378582 0.499454 0.893075 -0.670520
H36   H     H_    0.320343 0.445915 0.893211 0.352235
N21   N     N_R   0.137073 0.419852 0.388230 0.226008
O13   O     O_R   0.126914 0.342468 0.317822 -0.327628
O14   O     O_R   0.228743 0.497848 0.445415 -0.377479
N22   N     N_R   0.832544 0.269755 0.538448 0.236025
O15   O     O_R   0.833203 0.226002 0.593002 -0.374954
O16   O     O_R   0.749472 0.225291 0.460749 -0.361844
N23   N     N_R   0.804328 0.444694 0.314032 0.246508
O17   O     O_R   0.705573 0.390793 0.288036 -0.346325
O18   O     O_R   0.836776 0.533742 0.312075 -0.332872
N24   N     N_R   0.195732 0.403515 0.696289 0.253061
O19   O     O_R   0.173565 0.348514 0.739088 -0.376395
O20   O     O_R   0.289886 0.443075 0.703990 -0.354822
O21   O     O_3   0.523625 0.256399 0.616495 -0.723034
H37   H     H_    0.549012 0.303399 0.683021 0.325635
O22   O     O_3   0.225419 0.803122 0.449838 -0.709095
H38   H     H_    0.156140 0.767333 0.396193 0.321266
N25   N     N_R   0.385696 0.180925 0.447212 0.278414
O23   O     O_R   0.417773 0.199666 0.388004 -0.308482
O24   O     O_R   0.352483 0.241232 0.490620 -0.329616
N26   N     N_R   0.395969 0.857831 0.598067 0.280138
O25   O     O_R   0.393458 0.782217 0.531450 -0.365914
O26   O     O_R   0.396142 0.848791 0.671953 -0.359030
O27   O     O_3   0.911143 0.179563 0.282490 -0.727245
H39   H     H_    0.859590 0.186584 0.306451 0.327914
O28   O     O_3   0.061443 0.683370 0.665500 -0.736513
H40   H     H_    0.109981 0.663540 0.643651 0.325935
O29   O     O_3   0.339682 0.678253 0.989200 -0.746396
H41   H     H_    0.416282 0.706589 0.014740 0.326597
O30   O     O_3   0.687908 0.404067 0.079356 -0.690378
H42   H     H_    0.687106 0.335949 0.048372 0.299543

loop_
_geom_bond_atom_site_label_1
_geom_bond_atom_site_label_2
_geom_bond_distance
_ccdc_geom_bond_type
C43   C45   1.394612 A    
O21   H37   0.988615 S    
C32   C54   1.405245 A    
C11   H7    1.074127 S    
N3    Ni2   1.868267 S    
N19   O6    1.301839 A    
N25   O23   1.301188 A    
N16   Ni4   1.870777 S    
O10   H34   0.989635 S    
C36   C38   1.402571 A    
N7    N11   1.384870 A    
C34   H30   1.081880 S    
N4    Ni1   1.868270 S    
C68   C70   1.388216 A    
O9    H33   0.989077 S    
C8    C24   1.394552 A    
C15   H11   1.075921 S    
O30   H42   0.990842 S    
C2    C18   1.368837 A    
C16   C18   1.371978 A    
C20   C55   1.473788 S    
C3    C19   1.380852 A    
N1    N15   1.387725 A    
C58   C63   1.394985 A    
C34   C54   1.396245 A    
C19   C56   1.482826 S    
C4    C20   1.384346 A    
N7    Ni4   1.871007 S    
C67   C74   1.422251 A    
C21   C65   1.479088 S    
C59   N24   1.429616 S    
C38   C40   1.419429 A    
C33   C75   1.402900 A    
C26   C28   1.402732 A    
C68   C73   1.413973 A    
C47   C49   1.407774 A    
C40   C42   1.406179 A    
C27   C29   1.401745 A    
C5    H3    1.080842 S    
C40   C51   1.484499 S    
C28   C30   1.409523 A    
C56   C61   1.404483 A    
N5    Ni3   1.848192 S    
C39   C52   1.487859 S    
C22   C66   1.470096 S    
C76   O28   1.379663 S    
C47   C52   1.413576 A    
C65   C72   1.413772 A    
C7    N7    1.324801 A    
C70   H27   1.081327 S    
C5    N5    1.333596 A    
C61   C63   1.399537 A    
C69   H28   1.081219 S    
C6    N6    1.338663 A    
C38   O10   1.381037 S    
N26   O26   1.300768 A    
C6    C22   1.388698 A    
C71   C73   1.398657 A    
N3    N13   1.387723 A    
O12   H36   0.990330 S    
N23   O18   1.301098 A    
C62   N21   1.433449 S    
N21   O14   1.301773 A    
C14   H10   1.077597 S    
C55   C60   1.417881 A    
H15   C45   1.082198 S    
C42   C44   1.394218 A    
C10   C22   1.389459 A    
C7    O29   1.377164 S    
C39   C41   1.405921 A    
H16   C46   1.082411 S    
C33   C53   1.394340 A    
N25   O24   1.300835 A    
C7    C23   1.381201 A    
C32   N20   1.437108 S    
C1    N17   1.430397 S    
C78   C80   1.407053 A    
C30   C79   1.482427 S    
C9    C21   1.392493 A    
C36   C46   1.394588 A    
C25   C30   1.372586 A    
C11   C23   1.364977 A    
N24   O20   1.300541 A    
C26   C29   1.391187 A    
C25   H13   1.086492 S    
N6    N10   1.384871 A    
C17   C28   1.433897 S    
C26   H14   1.084506 S    
C29   C80   1.486185 S    
C58   H24   1.082409 S    
C11   N11   1.334013 A    
C32   C80   1.416474 A    
N8    Ni3   1.871007 S    
C12   N12   1.324493 A    
N12   Ni2   1.868677 S    
N18   O4    1.300471 A    
O22   H38   0.992070 S    
C3    H1    1.072581 S    
C25   C27   1.391444 A    
C31   N19   1.447993 S    
C15   N15   1.321946 A    
N2    N16   1.387727 A    
C8    O30   1.372679 S    
C53   H25   1.082396 S    
C37   O9    1.381324 S    
C78   H32   1.083621 S    
C1    N1    1.332842 A    
N9    Ni2   1.857282 S    
C2    N2    1.328686 A    
N10   Ni1   1.857284 S    
C77   H31   1.084002 S    
C3    N3    1.325481 A    
C5    C21   1.382674 A    
N11   Ni1   1.868676 S    
C23   C50   1.435554 S    
C49   C51   1.412639 A    
C48   C50   1.395332 A    
N23   O17   1.301473 A    
N14   Ni3   1.848309 S    
N15   Ni3   1.870775 S    
N13   Ni4   1.848311 S    
C58   C60   1.389792 A    
C67   C69   1.391425 A    
C37   C39   1.423419 A    
C66   C69   1.396535 A    
C65   C70   1.399894 A    
C35   C45   1.396410 A    
C36   H18   1.079171 S    
C43   H21   1.082399 S    
C6    H4    1.076325 S    
C9    H5    1.076507 S    
C18   C27   1.425373 S    
N17   O1    1.298790 A    
C13   C19   1.404371 A    
C10   H6    1.073351 S    
C72   O21   1.372591 S    
N6    Ni4   1.848190 S    
C71   O22   1.380847 S    
C75   O27   1.377315 S    
C34   C76   1.404683 A    
N20   O8    1.301370 A    
N26   O25   1.301402 A    
C48   C51   1.366134 A    
C35   H17   1.083154 S    
N24   O19   1.301082 A    
N8    N12   1.384873 A    
C57   C64   1.407169 A    
C9    N9    1.337119 A    
N22   O15   1.302485 A    
C76   C78   1.397465 A    
C57   C59   1.398919 A    
C14   N14   1.337184 A    
C54   H26   1.082911 S    
C44   C46   1.392398 A    
C44   H22   1.079250 S    
C48   O12   1.378981 S    
C33   H29   1.082984 S    
C60   N23   1.437354 S    
C4    N4    1.335284 A    
C4    H2    1.074319 S    
N19   O5    1.300802 A    
C31   C53   1.408515 A    
C62   C64   1.403360 A    
N1    Ni1   1.857590 S    
C56   C59   1.404087 A    
C57   H23   1.080804 S    
C63   C64   1.412973 A    
N2    Ni2   1.857589 S    
C41   H19   1.083509 S    
C15   C17   1.379735 A    
N4    N14   1.387725 A    
C77   C79   1.403719 A    
N22   O16   1.301055 A    
C12   H8    1.074092 S    
O27   H39   0.991446 S    
C73   C74   1.425014 A    
C35   C37   1.401368 A    
C12   C24   1.366703 A    
C1    C17   1.391559 A    
C50   C52   1.409554 A    
C68   N26   1.436022 S    
C16   H12   1.080786 S    
C13   H9    1.078199 S    
C42   H20   1.083685 S    
C72   C74   1.405624 A    
C8    N8    1.344154 A    
C2    N18   1.435428 S    
C47   O11   1.383811 S    
C13   N13   1.352928 A    
C55   C62   1.419094 A    
N5    N9    1.384871 A    
C31   C79   1.425214 A    
O29   H41   0.990769 S    
C41   C43   1.395758 A    
C61   N22   1.448377 S    
C16   N16   1.334192 A    
C14   C20   1.385003 A    
O28   H40   0.992010 S    
C10   N10   1.333195 A    
C75   C77   1.395670 A    
N17   O2    1.300963 A    
N20   O7    1.301135 A    
N18   O3    1.300945 A    
C24   C49   1.446840 S    
C67   N25   1.433056 S    
N21   O13   1.300379 A    
O11   H35   0.988161 S    
C66   C71   1.405031 A    
