data_mof_unit_8229.cif
_audit_creation_date              2012-12-11T14:01:24-0500
_audit_creation_method            fapswitch 2.2
_symmetry_space_group_name_H-M    P1
_symmetry_Int_Tables_number       1
_space_group_crystal_system       triclinic
_cell_length_a                    18.976426
_cell_length_b                    10.989699
_cell_length_c                    18.770168
_cell_angle_alpha                 89.630352
_cell_angle_beta                  90.280862
_cell_angle_gamma                 90.085172
_cell_volume                      3914.29598728

loop_
_atom_site_label
_atom_site_type_symbol
_atom_type_description
_atom_site_fract_x
_atom_site_fract_y
_atom_site_fract_z
_atom_type_partial_charge
C1    C     C_R   0.271485 0.045247 0.851808 0.555300
C2    C     C_R   0.727062 0.041139 0.145868 0.550585
C3    C     C_R   0.771484 0.545244 0.851807 0.556362
C4    C     C_R   0.227062 0.541138 0.145869 0.552863
C5    C     C_R   0.499777 0.058899 0.068460 -0.110855
C6    C     C_R   0.529596 0.041384 0.923789 -0.128447
C7    C     C_R   0.999794 0.558908 0.068457 -0.110866
C8    C     C_R   0.029610 0.541365 0.923786 -0.128614
C9    C     C_R   0.017126 0.663046 0.029349 0.413281
C10   C     C_R   0.034373 0.653476 0.957639 0.405103
C11   C     C_R   0.517101 0.163047 0.029359 0.413046
C12   C     C_R   0.534348 0.153491 0.957649 0.405213
C13   C     C_2   0.246569 0.575124 0.918583 -0.114507
C14   C     C_2   0.736756 0.634249 0.068123 -0.112750
C15   C     C_2   0.746561 0.075112 0.918579 -0.114838
C16   C     C_2   0.236776 0.134084 0.068142 -0.112607
C17   C     C_2   0.248499 0.581289 0.075210 -0.107522
C18   C     C_2   0.744464 0.605853 0.914599 -0.120806
C19   C     C_2   0.748498 0.081286 0.075210 -0.107092
C20   C     C_2   0.244483 0.105864 0.914606 -0.120924
C21   C     C_2   0.288747 0.508538 0.034896 -0.157880
C22   C     C_2   0.693204 0.556927 0.954477 -0.147243
C23   C     C_2   0.788736 0.008525 0.034893 -0.157456
C24   C     C_2   0.193164 0.057046 0.954450 -0.147162
C25   C     C_2   0.299522 0.533619 0.959229 -0.166483
C26   C     C_2   0.682029 0.597922 0.027896 -0.150648
C27   C     C_2   0.799512 0.033610 0.959226 -0.166828
C28   C     C_2   0.182006 0.098055 0.027869 -0.150491
C29   C     C_2   0.512719 0.840473 0.584985 -0.123413
C30   C     C_2   0.516464 0.827626 0.429463 -0.109085
C31   C     C_2   0.012896 0.340629 0.585070 -0.122093
C32   C     C_2   0.016594 0.327756 0.429521 -0.119494
C33   C     C_2   0.551174 0.751148 0.474131 0.369574
C34   C     C_2   0.536499 0.744143 0.549747 0.372661
C35   C     C_2   0.051386 0.251424 0.474191 0.367697
C36   C     C_2   0.036716 0.244368 0.549811 0.376290
C37   C     C_2   0.245901 0.565748 0.583593 -0.105579
C38   C     C_2   0.746472 0.610541 0.430335 -0.029353
C39   C     C_2   0.754055 0.111379 0.569795 -0.087407
C40   C     C_2   0.246256 0.111280 0.430541 -0.030471
C41   C     C_2   0.238046 0.567407 0.428253 -0.098742
C42   C     C_2   0.743207 0.603884 0.585656 -0.093304
C43   C     C_2   0.756635 0.102461 0.414444 -0.112259
C44   C     C_2   0.242985 0.104472 0.585871 -0.088710
C45   C     C_R   0.471515 0.820662 0.853658 0.531778
C46   C     C_R   0.527008 0.822798 0.147579 0.523564
C47   C     C_R   0.971511 0.320660 0.853660 0.531450
C48   C     C_R   0.027006 0.322800 0.147582 0.523814
C49   C     C_2   0.182064 0.558716 0.471898 -0.144229
C50   C     C_2   0.783053 0.680718 0.548671 -0.172581
C51   C     C_2   0.717002 0.179765 0.450763 -0.164261
C52   C     C_2   0.282625 0.181719 0.548924 -0.171537
C53   C     C_2   0.186523 0.584711 0.547297 -0.160920
C54   C     C_2   0.771203 0.699061 0.473273 -0.120915
C55   C     C_2   0.728682 0.198883 0.526070 -0.148020
C56   C     C_2   0.270733 0.200032 0.473474 -0.120845
C57   C     C_R   0.260499 0.634938 0.850849 0.549694
C58   C     C_R   0.727520 0.678471 0.140214 0.548019
C59   C     C_R   0.760496 0.134929 0.850846 0.552287
C60   C     C_R   0.227533 0.178415 0.140210 0.547777
C61   C     C_R   0.270840 0.048577 0.649711 0.548742
C62   C     C_R   0.729050 0.047827 0.350459 0.556680
C63   C     C_R   0.770889 0.548422 0.649647 0.545678
C64   C     C_R   0.226121 0.541708 0.353919 0.552942
C65   C     C_R   0.472483 0.824829 0.649600 0.572346
C66   C     C_R   0.533087 0.822763 0.354382 0.577710
C67   C     C_R   0.972507 0.324855 0.649606 0.572067
C68   C     C_R   0.033136 0.322780 0.354415 0.574886
C69   C     C_R   0.259773 0.634114 0.647570 0.548539
C70   C     C_R   0.738761 0.640890 0.355830 0.573385
C71   C     C_R   0.761418 0.141756 0.644098 0.544411
C72   C     C_R   0.238686 0.141180 0.355943 0.573136
C73   C     C_R   0.493203 0.833225 0.076785 -0.015323
C74   C     C_R   0.499287 0.823324 0.927293 -0.010080
C75   C     C_R   0.993193 0.333239 0.076792 -0.015647
C76   C     C_R   0.999271 0.323317 0.927301 -0.010156
C77   C     C_R   0.500530 0.942617 0.036486 -0.063949
C78   C     C_R   0.509228 0.935843 0.961833 -0.067027
C79   C     C_R   0.000534 0.442622 0.036488 -0.064101
C80   C     C_R   0.009230 0.435835 0.961835 -0.066865
C81   C     C_R   0.492413 0.715481 0.968796 -0.055325
C82   C     C_R   0.479585 0.723245 0.041336 -0.053879
C83   C     C_R   0.992370 0.215482 0.968809 -0.055349
C84   C     C_R   0.979550 0.223265 0.041351 -0.053987
Cr1   Cr    Cr6+3 0.230530 0.836340 0.748870 1.091722
Cr2   Cr    Cr6+3 0.769470 0.836340 0.251130 1.055549
Cr3   Cr    Cr6+3 0.730530 0.336340 0.748870 1.089349
Cr4   Cr    Cr6+3 0.269470 0.336340 0.251130 1.056112
Cr5   Cr    Cr6+3 0.387420 0.989430 0.750820 1.051097
Cr6   Cr    Cr6+3 0.612580 0.989430 0.249180 1.048857
Cr7   Cr    Cr6+3 0.887420 0.489430 0.750820 1.047767
Cr8   Cr    Cr6+3 0.112580 0.489430 0.249180 1.047387
Cr9   Cr    Cr6+3 0.385640 0.677860 0.749230 1.084645
Cr10  Cr    Cr6+3 0.614360 0.677860 0.250770 1.102632
Cr11  Cr    Cr6+3 0.885640 0.177860 0.749230 1.085808
Cr12  Cr    Cr6+3 0.114360 0.177860 0.250770 1.105280
H1    H     H_    0.129540 0.540938 0.450977 0.156585
H2    H     H_    0.829548 0.722901 0.571903 0.162777
H3    H     H_    0.670786 0.222277 0.426996 0.171686
H4    H     H_    0.329080 0.224014 0.572161 0.162051
H5    H     H_    0.141917 0.630825 0.571113 0.167051
H6    H     H_    0.788485 0.786237 0.451827 0.153282
H7    H     H_    0.710655 0.285550 0.546819 0.164169
H8    H     H_    0.287900 0.287215 0.451958 0.156756
H9    H     H_    0.291174 0.584534 0.447397 0.098418
H10   H     H_    0.694586 0.567545 0.563423 0.183943
H11   H     H_    0.805068 0.065748 0.436990 0.115186
H12   H     H_    0.194358 0.068135 0.563661 0.189319
H13   H     H_    0.288682 0.512912 0.561136 0.114157
H14   H     H_    0.728532 0.522832 0.450128 0.107047
H15   H     H_    0.772657 0.024095 0.550807 0.096663
H16   H     H_    0.228437 0.023557 0.450391 0.117255
H17   H     H_    0.484621 0.070620 0.123448 0.167148
H18   H     H_    0.544046 0.037182 0.868155 0.156365
H19   H     H_    0.984640 0.570641 0.123444 0.167424
H20   H     H_    0.044059 0.537150 0.868152 0.155482
H21   H     H_    0.314077 0.428239 0.057218 0.184410
H22   H     H_    0.662303 0.480416 0.935397 0.214474
H23   H     H_    0.814058 0.928217 0.057212 0.184516
H24   H     H_    0.162191 0.980640 0.935337 0.214526
H25   H     H_    0.352121 0.522127 0.937891 0.180182
H26   H     H_    0.629392 0.591746 0.050116 0.179923
H27   H     H_    0.852112 0.022119 0.937889 0.180107
H28   H     H_    0.129325 0.092210 0.050035 0.179734
H29   H     H_    0.223914 0.662182 0.052669 0.134881
H30   H     H_    0.773110 0.685596 0.932838 0.117133
H31   H     H_    0.723919 0.162187 0.052670 0.134684
H32   H     H_    0.273189 0.185522 0.932887 0.117106
H33   H     H_    0.193660 0.581965 0.940155 0.130022
H34   H     H_    0.789972 0.634916 0.046998 0.121939
H35   H     H_    0.693649 0.081948 0.940150 0.129992
H36   H     H_    0.290017 0.134456 0.047060 0.121978
H37   H     H_    0.479668 0.895735 0.448082 0.020776
H38   H     H_    0.514005 0.930765 0.561075 0.041894
H39   H     H_    0.979852 0.395928 0.448164 0.020404
H40   H     H_    0.014291 0.430972 0.561217 0.029020
O1    O     O_R   0.215090 0.709860 0.828130 -0.478585
O2    O     O_R   0.784910 0.709860 0.171870 -0.504738
O3    O     O_R   0.715090 0.209860 0.828130 -0.476181
O4    O     O_R   0.284910 0.209860 0.171870 -0.504797
O5    O     O_R   0.445660 0.919250 0.676780 -0.511892
O6    O     O_R   0.554340 0.919250 0.323220 -0.504867
O7    O     O_R   0.945660 0.419250 0.676780 -0.514045
O8    O     O_R   0.054340 0.419250 0.323220 -0.513876
O9    O     O_R   0.456260 0.718170 0.670000 -0.429270
O10   O     O_R   0.543740 0.718170 0.330000 -0.440832
O11   O     O_R   0.956260 0.218170 0.670000 -0.429093
O12   O     O_R   0.043740 0.218170 0.330000 -0.437454
O13   O     O_R   0.320940 0.626760 0.674370 -0.496638
O14   O     O_R   0.679060 0.626760 0.325630 -0.438372
O15   O     O_R   0.820940 0.126760 0.674370 -0.492089
O16   O     O_R   0.179060 0.126760 0.325630 -0.436218
O17   O     O_3   0.334530 0.834540 0.749640 -0.271307
O18   O     O_3   0.665470 0.834540 0.250360 -0.284219
O19   O     O_3   0.834530 0.334540 0.749640 -0.272655
O20   O     O_3   0.165470 0.334540 0.250360 -0.286699
O21   O     O_R   0.236990 0.958390 0.823710 -0.483266
O22   O     O_R   0.763010 0.958390 0.176290 -0.501262
O23   O     O_R   0.736990 0.458390 0.823710 -0.482180
O24   O     O_R   0.263010 0.458390 0.176290 -0.500094
O25   O     O_R   0.332380 0.074750 0.830850 -0.502873
O26   O     O_R   0.667620 0.074750 0.169150 -0.493128
O27   O     O_R   0.832380 0.574750 0.830850 -0.502332
O28   O     O_R   0.167620 0.574750 0.169150 -0.490746
O29   O     O_R   0.445800 0.917770 0.825070 -0.502740
O30   O     O_R   0.554200 0.917770 0.174930 -0.514569
O31   O     O_R   0.945800 0.417770 0.825070 -0.502815
O32   O     O_R   0.054200 0.417770 0.174930 -0.513855
O33   O     O_R   0.456410 0.716580 0.829970 -0.504712
O34   O     O_R   0.543590 0.716580 0.170030 -0.510356
O35   O     O_R   0.956410 0.216580 0.829970 -0.504858
O36   O     O_R   0.043590 0.216580 0.170030 -0.510132
O37   O     O_R   0.321080 0.625290 0.822650 -0.501540
O38   O     O_R   0.678920 0.625290 0.177350 -0.485180
O39   O     O_R   0.821080 0.125290 0.822650 -0.500207
O40   O     O_R   0.178920 0.125290 0.177350 -0.484270
O41   O     O_R   0.214930 0.711450 0.668160 -0.507288
O42   O     O_R   0.785070 0.711450 0.331840 -0.523765
O43   O     O_R   0.714930 0.211450 0.668160 -0.509260
O44   O     O_R   0.285070 0.211450 0.331840 -0.524468
O45   O     O_R   0.236850 0.959870 0.675420 -0.484702
O46   O     O_R   0.763150 0.959870 0.324580 -0.501262
O47   O     O_R   0.736850 0.459870 0.675420 -0.493912
O48   O     O_R   0.263150 0.459870 0.324580 -0.497504
O49   O     O_R   0.332230 0.076350 0.670880 -0.511964
O50   O     O_R   0.667770 0.076350 0.329120 -0.504621
O51   O     O_R   0.832230 0.576350 0.670880 -0.510736
O52   O     O_R   0.167770 0.576350 0.329120 -0.502991
C85   C     C_1   0.500707 0.594924 0.938420 0.230251
N1    N     N_1   0.507231 0.499024 0.914293 -0.169643
C86   C     C_1   0.455990 0.615392 0.079962 0.245862
N2    N     N_1   0.437799 0.529630 0.110937 -0.224239
C87   C     C_1   0.000633 0.094911 0.938442 0.230124
N3    N     N_1   0.007134 0.998999 0.914324 -0.169953
C88   C     C_1   0.955941 0.115435 0.079989 0.245778
N4    N     N_1   0.937739 0.029693 0.110975 -0.224203
F1    F     F_    0.018349 0.773157 0.061556 -0.590995
F2    F     F_    0.055225 0.753061 0.920360 -0.596073
F3    F     F_    0.518314 0.273155 0.061569 -0.591453
F4    F     F_    0.555195 0.253084 0.920377 -0.595733
F5    F     F_    0.597091 0.667048 0.449073 -0.601369
F6    F     F_    0.543457 0.633458 0.582077 -0.583798
F7    F     F_    0.097247 0.167293 0.449101 -0.599367
F8    F     F_    0.043577 0.133627 0.582086 -0.582395

loop_
_geom_bond_atom_site_label_1
_geom_bond_atom_site_label_2
_ccdc_geom_bond_type
C16   C28   D    
C38   C70   S    
Cr10  O10   S    
C37   C69   S    
C82   C86   S    
Cr9   O13   S    
C35   C36   S    
C70   O14   A    
C67   O7    A    
C2    O26   A    
C81   C82   A    
C40   H16   S    
Cr12  O20   S    
C77   C78   A    
C31   C67   S    
Cr9   O33   S    
C50   C54   S    
C75   C79   A    
C41   H9    S    
Cr6   O26   S    
Cr4   O20   S    
Cr7   O31   S    
C47   C76   S    
C5    C11   A    
C59   O39   A    
C23   H23   S    
Cr5   O5    S    
C75   C84   A    
Cr4   O48   S    
C13   C57   S    
C84   C88   S    
C71   O43   A    
Cr12  O16   S    
C55   H7    S    
Cr2   O42   S    
C65   O5    A    
C3    C18   S    
C7    C9    A    
C16   C60   S    
C7    H19   S    
Cr11  O39   S    
C6    H18   S    
C21   H21   S    
C69   O41   A    
Cr2   O2    S    
C48   O36   A    
Cr5   O17   S    
C35   F7    S    
C41   C49   D    
C71   O15   A    
C20   C24   D    
C53   H5    S    
C72   O16   A    
C48   O32   A    
C4    O28   A    
Cr9   O9    S    
C23   C27   S    
C38   H14   S    
C46   O30   A    
C9    C10   A    
C37   H13   S    
C68   O12   A    
C3    O27   A    
C62   O50   A    
C37   C53   D    
Cr8   O28   S    
C39   H15   S    
C29   H38   S    
C1    O25   A    
Cr4   O4    S    
Cr6   O30   S    
C3    O23   A    
C48   C75   S    
Cr7   O27   S    
C58   O38   A    
Cr1   O21   S    
Cr12  O12   S    
C10   F2    S    
C76   C83   A    
Cr5   O25   S    
C30   C66   S    
C11   F3    S    
C9    F1    S    
Cr4   O44   S    
Cr7   O7    S    
C44   H12   S    
C51   H3    S    
C14   C58   S    
C39   C55   D    
C50   H2    S    
C63   O47   A    
C24   H24   S    
C86   N2    T    
Cr2   O46   S    
C32   C35   D    
C76   C80   A    
Cr11  O11   S    
C56   H8    S    
C21   C25   S    
Cr12  O36   S    
C27   H27   S    
C70   O42   A    
Cr1   O17   S    
Cr6   O50   S    
C51   C55   S    
C40   C56   D    
C39   C71   S    
C49   H1    S    
C29   C34   D    
C52   H4    S    
C17   C21   D    
C88   N4    T    
C45   C74   S    
C64   O48   A    
C83   C87   S    
C16   H36   S    
C19   C23   D    
C17   H29   S    
Cr7   O19   S    
C62   O46   A    
C47   O31   A    
Cr8   O32   S    
C15   C27   D    
C83   C84   A    
C38   C54   D    
C59   O3    A    
Cr10  O18   S    
C30   H37   S    
Cr5   O29   S    
C61   O49   A    
C33   C34   S    
C12   F4    S    
C57   O1    A    
C57   O37   A    
Cr8   O20   S    
C43   H11   S    
C14   C26   D    
Cr2   O22   S    
C81   C85   S    
C64   O52   A    
C46   O34   A    
C42   C50   D    
C29   C65   S    
C4    C17   S    
C8    C10   A    
C60   O4    A    
C58   O2    A    
C63   O51   A    
C22   C26   S    
C60   O40   A    
Cr3   O19   S    
Cr11  O15   S    
C72   O44   A    
C74   C81   A    
C5    C77   A    
C6    C12   A    
Cr1   O1    S    
C73   C82   A    
C7    C79   A    
C14   H34   S    
C22   H22   S    
Cr7   O51   S    
C1    C20   S    
Cr1   O45   S    
C40   C72   S    
C30   C33   D    
C5    H17   S    
C2    C19   S    
C18   C22   D    
Cr5   O49   S    
C54   H6    S    
C24   C28   S    
Cr3   O3    S    
C31   H40   S    
C13   C25   D    
C45   O33   A    
C44   C52   D    
Cr12  O40   S    
C32   H39   S    
C47   O35   A    
C11   C12   A    
C28   H28   S    
C20   H32   S    
C66   O6    A    
C13   H33   S    
C44   C61   S    
Cr6   O6    S    
C26   H26   S    
C19   H31   S    
C61   O45   A    
C32   C68   S    
C69   O13   A    
C1    O21   A    
Cr2   O18   S    
Cr10  O34   S    
Cr3   O47   S    
C33   F5    S    
C43   C51   D    
Cr6   O18   S    
C4    O24   A    
C45   O29   A    
C34   F6    S    
C49   C53   S    
C65   O9    A    
Cr9   O37   S    
Cr3   O23   S    
C68   O8    A    
Cr11  O19   S    
Cr4   O24   S    
C85   N1    T    
Cr8   O8    S    
C15   C59   S    
C66   O10   A    
C6    C78   A    
C8    H20   S    
Cr3   O43   S    
C79   C80   A    
C42   H10   S    
Cr9   O17   S    
Cr10  O14   S    
C15   H35   S    
C2    O22   A    
Cr1   O41   S    
C87   N3    T    
C74   C78   A    
C67   O11   A    
Cr10  O38   S    
C8    C80   A    
C73   C77   A    
C31   C36   D    
C36   F8    S    
C41   C64   S    
Cr11  O35   S    
C25   H25   S    
C42   C63   S    
C46   C73   S    
C18   H30   S    
Cr8   O52   S    
C52   C56   S    
C43   C62   S    
