data_mof_unit_31152.cif
_audit_creation_date              2013-03-05T16:10:48-0500
_audit_creation_method            fapswitch 2.2
_symmetry_space_group_name_H-M    P1
_symmetry_Int_Tables_number       1
_space_group_crystal_system       triclinic
_cell_length_a                    22.429459
_cell_length_b                    7.084922
_cell_length_c                    19.343364
_cell_angle_alpha                 90.000017
_cell_angle_beta                  99.565767
_cell_angle_gamma                 89.999818
_cell_volume                      3031.13203108

loop_
_atom_site_label
_atom_site_type_symbol
_atom_site_description
_atom_site_fract_x
_atom_site_fract_y
_atom_site_fract_z
_atom_type_partial_charge
O1    O     O_R   0.443980 0.494320 0.557430 -0.580473
O2    O     O_R   0.556020 0.994320 0.442570 -0.580466
O3    O     O_R   0.441210 0.822520 0.414610 -0.620521
O4    O     O_R   0.558790 0.322520 0.585390 -0.620529
C1    C     C_R   0.427219 0.656056 0.388059 1.136609
C2    C     C_R   0.572782 0.156056 0.611940 1.136594
O5    O     O_R   0.436920 0.823940 0.555180 -0.592835
O6    O     O_R   0.563080 0.323940 0.444820 -0.592839
O7    O     O_R   0.551700 0.995760 0.584140 -0.599799
O8    O     O_R   0.448300 0.495760 0.415860 -0.599792
C3    C     C_R   0.421091 0.655296 0.574169 0.968876
C4    C     C_R   0.578909 0.155295 0.425831 0.968866
O9    O     O_3   0.537660 0.661290 0.509340 -0.292628
O10   O     O_3   0.462340 0.161290 0.490660 -0.292630
V1    V     V_3+5 0.493010 0.935560 0.498270 1.148007
V2    V     V_3+5 0.506990 0.435560 0.501730 1.148001
H1    H     H_    0.680131 0.838943 0.263113 0.174231
H2    H     H_    0.319866 0.338942 0.736883 0.174230
C5    C     C_R   0.754545 0.933206 0.213172 0.347227
C6    C     C_R   0.245453 0.433205 0.786824 0.347230
C7    C     C_R   0.795009 0.084581 0.207217 -0.031274
C8    C     C_R   0.204988 0.584581 0.792780 -0.031241
C9    C     C_R   0.791348 0.249175 0.246883 -0.143119
C10   C     C_R   0.208650 0.749177 0.753115 -0.143144
H3    H     H_    0.821881 0.365839 0.243129 0.174514
H4    H     H_    0.178118 0.865842 0.756869 0.174540
C11   C     C_R   0.748327 0.265944 0.291522 -0.121939
C12   C     C_R   0.251671 0.765946 0.708476 -0.121937
H5    H     H_    0.746494 0.394646 0.321346 0.131980
H6    H     H_    0.253504 0.894649 0.678653 0.131973
C13   C     C_R   0.707966 0.118302 0.297414 0.119543
C14   C     C_R   0.292032 0.618303 0.702583 0.119558
C15   C     C_R   0.711186 0.953374 0.258088 -0.305907
C16   C     C_R   0.288811 0.453373 0.741909 -0.305910
C17   C     C_1   0.839507 0.077248 0.160066 0.123862
C18   C     C_1   0.160491 0.577248 0.839932 0.123832
C19   C     C_1   0.663171 0.134826 0.343672 0.011128
C20   C     C_1   0.336827 0.634828 0.656327 0.011118
C21   C     C_1   0.625157 0.145689 0.381590 -0.270365
C22   C     C_1   0.374843 0.645691 0.618409 -0.270376
C23   C     C_1   0.876833 0.070690 0.121119 -0.238741
C24   C     C_1   0.123166 0.570689 0.878879 -0.238749
C25   C     C_R   0.636864 0.237490 0.803043 0.396166
C26   C     C_R   0.363137 0.737491 0.196956 0.396172
H7    H     H_    0.721608 0.237669 0.917995 0.157817
H8    H     H_    0.278392 0.737671 0.082004 0.157818
C27   C     C_R   0.615265 0.154010 0.679564 -0.503508
C28   C     C_R   0.384736 0.654011 0.320435 -0.503531
C29   C     C_R   0.909603 0.032034 0.760202 -0.342021
C30   C     C_R   0.090399 0.532034 0.239799 -0.341901
C31   C     C_R   0.872703 0.030271 0.694191 0.614360
C32   C     C_R   0.127298 0.530292 0.305807 0.614341
C33   C     C_R   0.810952 0.067689 0.688997 -0.322287
C34   C     C_R   0.189050 0.567715 0.311003 -0.322401
C35   C     C_R   0.783348 0.091546 0.749117 0.097770
C36   C     C_R   0.216653 0.591562 0.250883 0.097793
C37   C     C_R   0.822260 0.100631 0.815690 0.102170
C38   C     C_R   0.177741 0.600640 0.184309 0.102168
C39   C     C_R   0.719082 0.118179 0.745204 -0.092850
C40   C     C_R   0.280919 0.618190 0.254796 -0.092827
C41   C     C_R   0.697647 0.181684 0.806485 -0.119698
C42   C     C_R   0.302354 0.681690 0.193514 -0.119701
C43   C     C_R   0.737228 0.192554 0.870621 -0.087993
C44   C     C_R   0.262772 0.692560 0.129378 -0.088001
C45   C     C_R   0.797812 0.146838 0.875575 -0.202039
C46   C     C_R   0.202189 0.646843 0.124424 -0.202034
C47   C     C_R   0.674803 0.084288 0.683582 0.396892
C48   C     C_R   0.325198 0.584297 0.316418 0.396879
C49   C     C_R   0.597931 0.241025 0.738356 0.344429
C50   C     C_R   0.402070 0.741022 0.261642 0.344427
C51   C     C_R   0.885349 0.068258 0.820795 -0.223219
C52   C     C_R   0.114652 0.568259 0.179205 -0.223279
H9    H     H_    0.957799 0.009268 0.764354 0.131655
H10   H     H_    0.042204 0.509250 0.235654 0.131663
H11   H     H_    0.786299 0.084278 0.636716 0.213012
H12   H     H_    0.213702 0.584308 0.363285 0.213017
H13   H     H_    0.825953 0.156037 0.926681 0.110164
H14   H     H_    0.174047 0.656039 0.073319 0.110168
O11   O     O_R   0.051730 0.724670 0.084120 -0.588931
O12   O     O_R   0.948270 0.224670 0.915880 -0.588932
O13   O     O_R   0.063080 0.393540 0.944820 -0.571266
O14   O     O_R   0.936920 0.893540 0.055180 -0.571267
C53   C     C_R   0.078071 0.562050 0.924696 0.943495
C54   C     C_R   0.921928 0.062051 0.075303 0.943493
O15   O     O_R   0.058800 0.395030 0.085390 -0.590315
O16   O     O_R   0.941200 0.895030 0.914610 -0.590313
O17   O     O_R   0.943980 0.223310 0.057440 -0.587353
O18   O     O_R   0.056020 0.723310 0.942560 -0.587351
C55   C     C_R   0.072723 0.563204 0.111513 0.955755
C56   C     C_R   0.927276 0.063204 0.888487 0.955751
O19   O     O_3   0.962360 0.556290 0.990650 -0.273381
O20   O     O_3   0.037640 0.056290 0.009350 -0.273379
V3    V     V_3+5 0.006980 0.281990 0.001730 1.188001
V4    V     V_3+5 0.993020 0.781990 0.998270 1.188003
O21   O     O_3   0.896571 0.010463 0.632833 -0.668991
C57   C     C_3   0.930971 0.842411 0.632981 0.181440
H15   H     H_    0.911727 0.759666 0.585712 0.129338
H16   H     H_    0.929342 0.747667 0.678803 0.087118
C58   C     C_3   0.996615 0.891869 0.628149 -0.281132
H17   H     H_    0.997963 0.970210 0.578631 0.209533
H18   H     H_    0.015779 0.984455 0.672656 0.199689
C59   C     C_3   0.035696 0.715043 0.629579 -0.996837
H19   H     H_    0.036313 0.637168 0.679552 0.267339
H20   H     H_    0.082779 0.755879 0.625441 0.272699
H21   H     H_    0.018018 0.621145 0.584852 0.269982
O22   O     O_3   0.103423 0.510480 0.367157 -0.668963
C60   C     C_3   0.069127 0.342217 0.367048 0.181389
H22   H     H_    0.088438 0.259584 0.414322 0.129331
H23   H     H_    0.070790 0.247484 0.321230 0.087098
C61   C     C_3   0.003456 0.391293 0.371900 -0.281077
H24   H     H_    0.002081 0.469743 0.421389 0.209552
H25   H     H_    0.984211 0.483662 0.327357 0.199620
C62   C     C_3   0.964495 0.214219 0.370573 -0.996667
H26   H     H_    0.963913 0.136201 0.320636 0.267344
H27   H     H_    0.917386 0.254783 0.374710 0.272688
H28   H     H_    0.982251 0.120543 0.415343 0.269945
N1    N     N_R   0.756373 0.759583 0.174571 0.228995
O23   O     O_R   0.806201 0.701607 0.155410 -0.426003
O24   O     O_R   0.709210 0.649811 0.163470 -0.415849
N2    N     N_R   0.243623 0.259580 0.825424 0.228994
O25   O     O_R   0.193795 0.201603 0.844582 -0.425999
O26   O     O_R   0.290786 0.149807 0.836524 -0.415849
O27   O     O_3   0.540652 0.317476 0.734151 -0.651787
C63   C     C_3   0.544385 0.517186 0.732677 0.271074
H29   H     H_    0.537292 0.564911 0.677230 0.113920
H30   H     H_    0.588714 0.575049 0.759134 0.080399
C64   C     C_3   0.494935 0.600808 0.768967 -0.310568
H31   H     H_    0.450599 0.537922 0.746534 0.214053
H32   H     H_    0.504566 0.565806 0.825709 0.212794
C65   C     C_3   0.491561 0.814911 0.760529 -0.978706
H33   H     H_    0.535384 0.879912 0.783502 0.260442
H34   H     H_    0.455593 0.871459 0.787858 0.287635
H35   H     H_    0.480792 0.854080 0.704282 0.270781
O28   O     O_3   0.459350 0.817468 0.265847 -0.651788
C66   C     C_3   0.455618 0.017180 0.267321 0.271071
H36   H     H_    0.462712 0.064904 0.322769 0.113923
H37   H     H_    0.411289 0.075045 0.240866 0.080399
C67   C     C_3   0.505067 0.100798 0.231030 -0.310569
H38   H     H_    0.549404 0.037911 0.253462 0.214053
H39   H     H_    0.495435 0.065796 0.174288 0.212794
C68   C     C_3   0.508442 0.314901 0.239467 -0.978703
H40   H     H_    0.464619 0.379903 0.216496 0.260443
H41   H     H_    0.544409 0.371447 0.212137 0.287635
H42   H     H_    0.519212 0.354071 0.295714 0.270780
O29   O     O_3   0.616475 0.308800 0.861583 -0.655580
C69   C     C_3   0.596647 0.159585 0.900973 0.217264
H43   H     H_    0.622020 0.169057 0.955324 0.129687
H44   H     H_    0.604962 0.014907 0.881503 0.072631
C70   C     C_3   0.529290 0.183674 0.903376 -0.267599
H45   H     H_    0.521471 0.325378 0.924676 0.207252
H46   H     H_    0.503065 0.173965 0.849519 0.233515
C71   C     C_3   0.506741 0.033537 0.949353 -0.999725
H47   H     H_    0.513300 0.890207 0.928546 0.278533
H48   H     H_    0.457800 0.055002 0.950018 0.287939
H49   H     H_    0.531540 0.044228 0.003913 0.267292
O30   O     O_3   0.383526 0.808796 0.138415 -0.655580
C72   C     C_3   0.403354 0.659580 0.099026 0.217267
H50   H     H_    0.377980 0.669048 0.044676 0.129686
H51   H     H_    0.395039 0.514902 0.118498 0.072629
C73   C     C_3   0.470710 0.683667 0.096621 -0.267598
H52   H     H_    0.478528 0.825371 0.075319 0.207252
H53   H     H_    0.496936 0.673961 0.150478 0.233515
C74   C     C_3   0.493258 0.533528 0.050645 -0.999726
H54   H     H_    0.486700 0.390199 0.071452 0.278533
H55   H     H_    0.542199 0.554993 0.049978 0.287940
H56   H     H_    0.468458 0.544217 0.996085 0.267292
O31   O     O_3   0.688786 0.990793 0.625672 -0.673317
C75   C     C_3   0.690148 0.794601 0.638841 0.203096
H57   H     H_    0.643725 0.742098 0.641356 0.107892
H58   H     H_    0.720461 0.759473 0.688938 0.094989
C76   C     C_3   0.714125 0.694776 0.579001 -0.270716
H59   H     H_    0.683454 0.723436 0.528756 0.215495
H60   H     H_    0.759717 0.750912 0.574948 0.202178
C77   C     C_3   0.718774 0.482174 0.590882 -0.974549
H61   H     H_    0.749076 0.450277 0.641026 0.262840
H62   H     H_    0.737485 0.414539 0.547320 0.271956
H63   H     H_    0.673357 0.422279 0.592293 0.276393
O32   O     O_3   0.311215 0.490809 0.374329 -0.673319
C78   C     C_3   0.309845 0.294617 0.361159 0.203119
H64   H     H_    0.356263 0.242108 0.358613 0.107838
H65   H     H_    0.279510 0.259498 0.311077 0.095013
C79   C     C_3   0.285901 0.194791 0.421021 -0.270719
H66   H     H_    0.316605 0.223399 0.471247 0.215499
H67   H     H_    0.240323 0.250972 0.425121 0.202148
C80   C     C_3   0.281221 0.982199 0.409125 -0.974506
H68   H     H_    0.250870 0.950354 0.359007 0.262825
H69   H     H_    0.262550 0.914559 0.452716 0.271945
H70   H     H_    0.326624 0.922266 0.407646 0.276373

loop_
_geom_bond_atom_site_label_1
_geom_bond_atom_site_label_2
_geom_bond_distance
_ccdc_geom_bond_type
C66   C67   1.527318 S    
C76   H59   1.112144 S    
C43   C45   1.384657 A    
C72   H50   1.111216 S    
O14   V4    1.969797 S    
C35   C39   1.443211 A    
C11   H5    1.083430 S    
N1    O23   1.301074 A    
C18   C24   1.216660 T    
O21   C57   1.418519 S    
O1    C3    1.313159 A    
C54   O17   1.313837 A    
O2    C4    1.313160 A    
C2    O7    1.310734 A    
O29   C69   1.417249 S    
O27   C63   1.417977 S    
O5    C3    1.316031 A    
C76   H60   1.112058 S    
O30   C72   1.417248 S    
C74   H55   1.110395 S    
C10   H4    1.083511 S    
C62   H26   1.111120 S    
C30   H10   1.082689 S    
C80   H69   1.110574 S    
O22   C60   1.418577 S    
C49   O27   1.384121 S    
C57   C58   1.531378 S    
C59   H21   1.110987 S    
C40   C42   1.424124 A    
C48   O32   1.381553 S    
C41   C43   1.402547 A    
C30   C52   1.395511 A    
C77   H61   1.111182 S    
C27   C49   1.404100 A    
C42   C44   1.402551 A    
O16   V4    1.996493 S    
C39   C47   1.439221 A    
C79   H66   1.112158 S    
O15   V3    1.996493 S    
C38   C46   1.400292 A    
C75   C76   1.528449 S    
C74   H54   1.111081 S    
C32   C34   1.397314 A    
C29   C31   1.401534 A    
C57   H16   1.117271 S    
C30   C32   1.401496 A    
C60   H22   1.111260 S    
C13   C15   1.402695 A    
C26   C50   1.402027 A    
C9    C11   1.402758 A    
C66   H36   1.110524 S    
C78   C79   1.528454 S    
C6    C16   1.414871 A    
C75   H58   1.115464 S    
C53   O18   1.313835 A    
C32   O22   1.387804 S    
O6    V2    1.969832 S    
C60   H23   1.117291 S    
C33   H11   1.075384 S    
H1    C15   1.083700 S    
C27   C47   1.413796 A    
C1    C28   1.484929 S    
N2    O26   1.301726 A    
O32   C78   1.412565 S    
C69   H44   1.118334 S    
C33   C35   1.415470 A    
C46   H14   1.082826 S    
C76   C77   1.524652 S    
O18   V4    1.958808 S    
C39   C41   1.424127 A    
C45   H13   1.082827 S    
C2    C27   1.484927 S    
C11   C13   1.400351 A    
C59   H19   1.111109 S    
C26   O30   1.385179 S    
C73   C74   1.525678 S    
C12   C14   1.400351 A    
C74   H56   1.110787 S    
O11   V4    1.982389 S    
O4    C2    1.303696 A    
O16   C56   1.311520 A    
C70   C71   1.525678 S    
C28   C50   1.404101 A    
O31   C75   1.412569 S    
N1    O24   1.301726 A    
C80   H70   1.108083 S    
O5    V1    1.969837 S    
C26   C42   1.410403 A    
C23   C54   1.452624 S    
H7    C43   1.082295 S    
C28   C48   1.413794 A    
C13   C19   1.456907 S    
H8    C44   1.082295 S    
C31   C33   1.397323 A    
C79   C80   1.524657 S    
C14   C16   1.402695 A    
O4    V2    1.996292 S    
C65   H34   1.110198 S    
C64   H32   1.110861 S    
C35   C37   1.432012 A    
C25   O29   1.385179 S    
O19   V3    2.180142 S    
C69   C70   1.528750 S    
O13   V3    1.969802 S    
C68   H41   1.110194 S    
C58   H17   1.111793 S    
C61   C62   1.526695 S    
C71   H49   1.110787 S    
O6    C4    1.316031 A    
C57   H15   1.111228 S    
O20   V4    2.180148 S    
C61   H24   1.111799 S    
O1    V2    1.958981 S    
C37   C51   1.420668 A    
C59   H20   1.110613 S    
O2    V1    1.958981 S    
H2    C16   1.083702 S    
C77   H63   1.108039 S    
C40   C48   1.439220 A    
C67   H39   1.110861 S    
C63   C64   1.527320 S    
C34   H12   1.075385 S    
C75   H57   1.114359 S    
C58   H18   1.110515 S    
C73   H53   1.110121 S    
C72   C73   1.528751 S    
C14   C20   1.456907 S    
C7    C9    1.405795 A    
C5    C15   1.414872 A    
C60   C61   1.531426 S    
C29   H9    1.082680 S    
C68   H42   1.109847 S    
C65   H35   1.109848 S    
C6    C8    1.421964 A    
C64   H31   1.110095 S    
C6    N2    1.443098 S    
O3    V1    1.996295 S    
N2    O25   1.301074 A    
C25   C41   1.410404 A    
C63   H30   1.117772 S    
C69   H43   1.111217 S    
C71   H48   1.110397 S    
C47   O31   1.381552 S    
C66   H37   1.117773 S    
O15   C55   1.311523 A    
C79   H67   1.112071 S    
C5    C7    1.421964 A    
C24   C53   1.452626 S    
C10   C12   1.402759 A    
C37   C45   1.400291 A    
O3    C1    1.303696 A    
C67   C68   1.526191 S    
O13   C53   1.316605 A    
C72   H51   1.118336 S    
C34   C36   1.415466 A    
O28   C66   1.417978 S    
C7    C17   1.460556 S    
C8    C18   1.460554 S    
O14   C54   1.316603 A    
C73   H52   1.110168 S    
C62   H28   1.111039 S    
C4    C21   1.451907 S    
C70   H46   1.110119 S    
C65   H33   1.109294 S    
O7    V1    1.986714 S    
C64   C65   1.526190 S    
C1    O8    1.310735 A    
C19   C21   1.216043 T    
O8    V2    1.986714 S    
C70   H45   1.110167 S    
O19   V4    1.737231 S    
C20   C22   1.216044 T    
C52   C55   1.480185 S    
C38   C52   1.420676 A    
C80   H68   1.111232 S    
C51   C56   1.480181 S    
O17   V3    1.958805 S    
C12   H6    1.083430 S    
O20   V3    1.737227 S    
C77   H62   1.110543 S    
C36   C38   1.432018 A    
C8    C10   1.405795 A    
C9    H3    1.083511 S    
O12   C56   1.314623 A    
C3    C22   1.451910 S    
C17   C23   1.216661 T    
C61   H25   1.110570 S    
O11   C55   1.314622 A    
C67   H38   1.110094 S    
C78   H64   1.114364 S    
C36   C40   1.443207 A    
C58   C59   1.526612 S    
C71   H47   1.111081 S    
C5    N1    1.443098 S    
C25   C49   1.402025 A    
C29   C51   1.395508 A    
O9    V2    1.737507 S    
C31   O21   1.387849 S    
C50   O28   1.384121 S    
O10   V1    1.737504 S    
C78   H65   1.115460 S    
O12   V3    1.982388 S    
C68   H40   1.109294 S    
C44   C46   1.384658 A    
C63   H29   1.110526 S    
C62   H27   1.110654 S    
