data_mof_unit_17745.cif
_audit_creation_date              2013-03-05T16:08:13-0500
_audit_creation_method            fapswitch 2.2
_symmetry_space_group_name_H-M    P1
_symmetry_Int_Tables_number       1
_space_group_crystal_system       triclinic
_cell_length_a                    6.951557
_cell_length_b                    14.559052
_cell_length_c                    16.02608
_cell_angle_alpha                 89.993217
_cell_angle_beta                  89.905959
_cell_angle_gamma                 89.934335
_cell_volume                      1621.96552326

loop_
_atom_site_label
_atom_site_type_symbol
_atom_site_description
_atom_site_fract_x
_atom_site_fract_y
_atom_site_fract_z
_atom_type_partial_charge
O1    O     O_R   0.505720 0.583900 0.413310 -0.594919
O2    O     O_R   0.175940 0.594920 0.586080 -0.607161
O3    O     O_R   0.005640 0.416100 0.586690 -0.587206
C1    C     C_R   0.344467 0.617128 0.614675 0.940579
O4    O     O_R   0.176000 0.594930 0.413930 -0.597070
O5    O     O_R   0.005700 0.416110 0.413310 -0.590904
C2    C     C_R   0.344812 0.616812 0.385046 0.945324
O6    O     O_R   0.505660 0.583890 0.586690 -0.592118
O7    O     O_3   0.339200 0.441330 0.500000 -0.268657
V1    V     V_3+5 0.064350 0.510880 0.500000 1.149168
O8    O     O_R   0.675980 0.405080 0.413920 -0.592609
C3    C     C_R   0.845208 0.382644 0.385568 0.943575
O9    O     O_R   0.675920 0.405070 0.586070 -0.588359
C4    C     C_R   0.844381 0.384339 0.615592 0.942207
V2    V     V_3+5 0.564340 0.489120 0.500000 1.160114
O10   O     O_3   0.839360 0.558670 0.500000 -0.287102
H1    H     H_    0.951164 0.076349 0.500753 0.105707
C5    C     C_R   0.805071 0.437748 0.789723 -0.328917
C6    C     C_R   0.800180 0.466957 0.873216 0.389605
C7    C     C_R   0.836437 0.403434 0.936625 -0.106542
C8    C     C_R   0.864420 0.311126 0.917924 -0.152871
C9    C     C_R   0.861773 0.279670 0.834641 0.084517
C10   C     C_R   0.839943 0.344698 0.768957 0.081620
C11   C     C_R   0.883862 0.185153 0.816316 -0.288837
C12   C     C_R   0.901579 0.156586 0.732123 0.115450
C13   C     C_R   0.886305 0.221837 0.666184 0.115601
C14   C     C_R   0.854058 0.315885 0.684467 -0.269888
C15   C     C_R   0.937828 0.063636 0.712097 -0.181391
C16   C     C_R   0.955342 0.035294 0.629356 -0.117272
C17   C     C_R   0.937659 0.098696 0.564928 -0.113346
C18   C     C_R   0.903797 0.191011 0.582769 -0.154915
H2    H     H_    0.782230 0.488473 0.741352 0.148384
H3    H     H_    0.838267 0.424798 0.001296 0.208461
H4    H     H_    0.887889 0.264688 0.969664 0.161641
H5    H     H_    0.955655 0.012348 0.760269 0.098468
H6    H     H_    0.983371 0.963806 0.615181 0.109568
H7    H     H_    0.891795 0.237770 0.530533 0.086330
C19   C     C_R   0.735123 0.255573 0.184196 0.084270
C20   C     C_R   0.881561 0.188986 0.180247 -0.242467
C21   C     C_R   0.029102 0.194507 0.240493 -0.066542
H8    H     H_    0.148415 0.146762 0.238664 0.101035
C22   C     C_R   0.018427 0.258016 0.306793 -0.171388
H9    H     H_    0.130445 0.257957 0.353596 0.124387
C23   C     C_R   0.858172 0.316560 0.315642 -0.196221
C24   C     C_R   0.722026 0.315608 0.251555 0.132124
C25   C     C_3   0.508327 0.310389 0.254729 -0.616337
C26   C     C_3   0.520811 0.247915 0.178358 0.450710
H10   H     H_    0.439462 0.378273 0.243835 0.248226
H11   H     H_    0.457674 0.273960 0.311547 0.163104
H12   H     H_    0.467189 0.177005 0.188841 0.011419
C27   C     C_R   0.499054 0.752946 0.684887 0.143921
C28   C     C_R   0.351315 0.687781 0.681001 -0.195356
C29   C     C_R   0.203417 0.694642 0.741078 -0.115215
H13   H     H_    0.083494 0.647362 0.739696 0.134322
C30   C     C_R   0.215847 0.758402 0.807179 -0.115029
H14   H     H_    0.104325 0.758830 0.854369 0.149340
C31   C     C_R   0.376762 0.816754 0.815209 -0.184417
C32   C     C_R   0.511611 0.815483 0.750167 0.158378
C33   C     C_3   0.725772 0.810461 0.751107 -0.442116
C34   C     C_3   0.711915 0.742738 0.678928 -0.416423
H15   H     H_    0.781817 0.779778 0.809617 0.236676
H16   H     H_    0.792716 0.876405 0.732768 0.164749
H17   H     H_    0.761301 0.672307 0.694615 0.221342
H18   H     H_    0.769588 0.770621 0.619368 0.165059
C35   C     C_R   0.505464 0.681367 0.257106 0.200819
C36   C     C_R   0.352625 0.682103 0.314238 -0.238291
C37   C     C_R   0.201680 0.744619 0.299458 -0.155268
H19   H     H_    0.079840 0.747308 0.341347 0.134267
C38   C     C_R   0.212935 0.808880 0.233929 -0.155782
H20   H     H_    0.098946 0.858934 0.227196 0.126594
C39   C     C_R   0.375678 0.812677 0.181400 -0.236944
C40   C     C_R   0.516980 0.745157 0.192473 0.228275
C41   C     C_3   0.728924 0.755284 0.202582 -0.470110
C42   C     C_3   0.716459 0.685329 0.272769 -0.472803
H21   H     H_    0.768887 0.825159 0.224317 0.174555
H22   H     H_    0.809782 0.729853 0.147308 0.232874
H23   H     H_    0.749990 0.714358 0.335203 0.186463
H24   H     H_    0.789307 0.619297 0.257900 0.212012
O11   O     O_R   0.229140 0.916090 0.913340 -0.608460
O12   O     O_R   0.558860 0.905090 0.086080 -0.598971
O13   O     O_R   0.729100 0.083920 0.086690 -0.592148
C43   C     C_R   0.389753 0.883046 0.114886 0.938352
O14   O     O_R   0.558860 0.905090 0.913930 -0.589741
O15   O     O_R   0.729100 0.083920 0.913310 -0.569783
C44   C     C_R   0.389937 0.882969 0.885198 0.942418
O16   O     O_R   0.229140 0.916080 0.086720 -0.601598
O17   O     O_3   0.395570 0.058660 0.000020 -0.224123
V3    V     V_3+5 0.670450 0.989140 0.000000 1.193338
O18   O     O_R   0.058810 0.094980 0.913910 -0.589769
C45   C     C_R   0.890655 0.116452 0.885033 0.950586
O19   O     O_R   0.058810 0.094980 0.086060 -0.572742
C46   C     C_R   0.889581 0.118113 0.113939 0.947094
V4    V     V_3+5 0.170450 0.010950 0.999970 1.199663
O20   O     O_3   0.895460 0.941370 0.999990 -0.283190
S1    S     S_3+6 0.427765 0.302162 0.086260 -0.033563
O21   O     O_2   0.212011 0.304965 0.091029 -0.302338
O22   O     O_2   0.503177 0.398634 0.079625 -0.295460
O23   O     O_3   0.494674 0.242517 0.001400 -0.528038
H25   H     H_    0.429313 0.273303 0.954137 0.364130
N1    N     N_R   0.755668 0.560716 0.893604 0.234977
O24   O     O_R   0.797115 0.593850 0.966825 -0.399913
O25   O     O_R   0.657238 0.610977 0.841935 -0.441167

loop_
_geom_bond_atom_site_label_1
_geom_bond_atom_site_label_2
_geom_bond_distance
_ccdc_geom_bond_type
O17   V3    2.161325 S    
V4    O20   2.164461 S    
C41   C42   1.519743 S    
S1    O21   1.502158 D    
C1    O6    1.299259 A    
S1    O23   1.678446 S    
C24   C25   1.488359 S    
C28   C29   1.410859 A    
C12   C15   1.413109 A    
C16   H6    1.082710 S    
C13   C14   1.417783 A    
C22   C23   1.408887 A    
C1    C28   1.480133 S    
C34   H17   1.109929 S    
C15   C16   1.393865 A    
O11   V4    1.999650 S    
O5    C3    1.297194 A    
C17   C18   1.393806 A    
V2    O10   2.164440 S    
C5    C6    1.404414 A    
C38   C39   1.410180 A    
C19   C24   1.391873 A    
O13   C46   1.298463 A    
O8    V2    1.999286 S    
C6    C7    1.396989 A    
C15   H5    1.081151 S    
C42   H23   1.111387 S    
O1    V2    2.000118 S    
C10   C14   1.420789 A    
C4    C14   1.488628 S    
O7    V1    2.161346 S    
C39   C43   1.481578 S    
C21   C22   1.410401 A    
C36   C37   1.408587 A    
C33   C34   1.523269 S    
O9    C4    1.298966 A    
O18   V4    2.000531 S    
H1    C17   1.082648 S    
C41   H21   1.111064 S    
O15   C45   1.300171 A    
O4    V1    2.000180 S    
C26   H12   1.110695 S    
C25   H10   1.111571 S    
C29   C30   1.411419 A    
V3    O20   1.711090 S    
C33   H15   1.109643 S    
C37   H19   1.080576 S    
C11   C12   1.417115 A    
O12   C43   1.302730 A    
O19   C46   1.301683 A    
O4    C2    1.300739 A    
C8    H4    1.082284 S    
C32   C33   1.490564 S    
C43   O16   1.296931 A    
C35   C42   1.489656 S    
C5    C10   1.415588 A    
C37   C38   1.408535 A    
O2    C1    1.299878 A    
C16   C17   1.390400 A    
O16   V4    2.001791 S    
O19   V4    1.999307 S    
C25   H11   1.110705 S    
C6    N1    1.436881 S    
C30   H14   1.082162 S    
N1    O25   1.299955 A    
C27   C32   1.389887 A    
C19   C26   1.497178 S    
O3    C4    1.297856 A    
C7    H3    1.082226 S    
C21   H8    1.081942 S    
O14   C44   1.302824 A    
O23   H25   0.990774 S    
O6    V2    1.999399 S    
C30   C31   1.411473 A    
C41   H22   1.111621 S    
C9    C11   1.415227 A    
C5    H2    1.082371 S    
C22   H9    1.082082 S    
O2    V1    2.001994 S    
C20   C46   1.482221 S    
O11   C44   1.297129 A    
C23   C24   1.397852 A    
C25   C26   1.527276 S    
C33   H16   1.106891 S    
O1    C2    1.298588 A    
O15   V3    1.999877 S    
C40   C41   1.489967 S    
C11   C45   1.488382 S    
O5    V1    2.000933 S    
O8    C3    1.301713 A    
S1    O22   1.503447 D    
C29   H13   1.081971 S    
C35   C40   1.393376 A    
C34   H18   1.111592 S    
O9    V2    2.000659 S    
C12   C13   1.424906 A    
C27   C28   1.400432 A    
O12   V3    2.000127 S    
O3    V1    1.999960 S    
V1    O10   1.711082 S    
C2    C36   1.481202 S    
C31   C32   1.400838 A    
C19   C20   1.406283 A    
O17   V4    1.712893 S    
N1    O24   1.301639 A    
C31   C44   1.482109 S    
O14   V3    2.001972 S    
O7    V2    1.713493 S    
C38   H20   1.081448 S    
O13   V3    2.001033 S    
C20   C21   1.412119 A    
C18   H7    1.082199 S    
C13   C18   1.415193 A    
C39   C40   1.400367 A    
C7    C8    1.390354 A    
C3    C23   1.479650 S    
C35   C36   1.401447 A    
C42   H24   1.111753 S    
C26   S1    1.795076 S    
C9    C10   1.423864 A    
C27   C34   1.489901 S    
O18   C45   1.295845 A    
C8    C9    1.411289 A    
