data_mof_unit_14664.cif
_audit_creation_date              2012-12-10T17:50:48-0500
_audit_creation_method            fapswitch 2.2
_symmetry_space_group_name_H-M    P1
_symmetry_Int_Tables_number       1
_space_group_crystal_system       triclinic
_cell_length_a                    14.692044
_cell_length_b                    14.69947
_cell_length_c                    15.901929
_cell_angle_alpha                 76.507469
_cell_angle_beta                  103.007386
_cell_angle_gamma                 115.61413
_cell_volume                      2980.92859578

loop_
_atom_site_label
_atom_site_type_symbol
_atom_type_description
_atom_site_fract_x
_atom_site_fract_y
_atom_site_fract_z
_atom_type_partial_charge
C1    C     C_R   0.879414 0.311591 0.514941 0.785471
C2    C     C_R   0.361375 0.917181 0.537536 0.079965
C3    C     C_R   0.678672 0.998419 0.577120 0.110220
C4    C     C_R   0.321962 0.991225 0.531416 0.111828
C5    C     C_R   0.534740 0.047082 0.561910 -0.009999
C6    C     C_R   0.467540 0.942079 0.563974 -0.012658
C7    C     C_R   0.509946 0.867135 0.593884 0.135184
C8    C     C_R   0.493015 0.117940 0.564746 0.152360
C9    C     C_R   0.614410 0.896539 0.598844 -0.207695
C10   C     C_R   0.387651 0.088808 0.549157 -0.205481
C11   C     C_R   0.721554 0.674631 0.353711 0.007714
C12   C     C_R   0.120363 0.688210 0.487411 0.797702
C13   C     C_R   0.302254 0.356458 0.661405 0.077400
C14   C     C_R   0.798948 0.638150 0.375571 0.373903
C15   C     C_R   0.210022 0.366255 0.627241 0.305378
C16   C     C_R   0.999713 0.499848 0.659927 0.818413
C17   C     C_R   0.000238 0.500129 0.340048 0.833151
C18   C     C_R   0.717066 0.517579 0.491598 -0.017291
C19   C     C_R   0.286894 0.495497 0.513151 -0.012443
C20   C     C_R   0.640027 0.556237 0.477271 -0.032505
C21   C     C_R   0.383408 0.488526 0.544090 -0.065486
C22   C     C_R   0.641450 0.633511 0.404763 0.043360
C23   C     C_R   0.781933 0.024410 0.574847 -0.182729
C24   C     C_R   0.389069 0.418182 0.620853 0.064851
C25   C     C_R   0.560333 0.518690 0.530574 0.048502
C26   C     C_R   0.473187 0.544996 0.501087 0.049538
C27   C     C_R   0.482545 0.629029 0.432659 0.137049
C28   C     C_R   0.567119 0.461185 0.614908 0.107384
C29   C     C_R   0.564780 0.670605 0.385696 -0.236854
C30   C     C_R   0.481611 0.410092 0.657262 -0.187653
C31   C     C_3   0.925002 0.416115 0.030642 0.133935
C32   C     C_3   0.073647 0.583607 0.969001 0.133120
C33   C     C_3   0.911194 0.496704 0.954357 0.184800
C34   C     C_R   0.216750 0.966150 0.509203 -0.185198
C35   C     C_3   0.087459 0.503025 0.045256 0.180832
C36   C     C_1   0.999156 0.499425 0.749326 -0.170514
C37   C     C_1   0.000477 0.500400 0.250573 -0.178151
C38   C     C_3   0.013460 0.415702 0.993139 -0.280628
C39   C     C_3   0.985196 0.584027 0.006508 -0.279762
C40   C     C_3   0.999325 0.498369 0.916327 0.094414
C41   C     C_3   0.999356 0.501353 0.083339 0.094824
C42   C     C_1   0.999057 0.498932 0.824740 -0.006806
C43   C     C_1   0.000087 0.500820 0.175050 -0.008662
C44   C     C_R   0.810194 0.202742 0.531534 -0.052771
C45   C     C_R   0.847286 0.125839 0.552803 -0.187226
C46   C     C_R   0.188757 0.795627 0.493652 -0.055802
C47   C     C_R   0.150307 0.868324 0.491954 -0.183422
C48   C     C_R   0.705993 0.175934 0.530325 -0.251750
C49   C     C_R   0.294168 0.822708 0.511593 -0.252174
C50   C     C_R   0.639866 0.075091 0.558343 0.081121
Cu1   Cu    Cu3+1 0.081740 0.475690 0.522610 0.934782
Cu2   Cu    Cu3+1 0.918260 0.524310 0.477390 0.960548
H1    H     H_    0.273524 0.542624 0.453439 0.189232
H2    H     H_    0.219045 0.576441 0.121521 0.213121
H3    H     H_    0.084491 0.326773 0.686663 0.260760
H4    H     H_    0.073812 0.246122 0.618742 0.224789
H5    H     H_    0.855145 0.675164 0.261554 0.214805
H6    H     H_    0.919006 0.761402 0.331244 0.206724
H7    H     H_    0.661460 0.729137 0.235290 0.228251
H8    H     H_    0.732336 0.818499 0.302252 0.223632
H9    H     H_    0.283749 0.295381 0.787803 0.238300
H10   H     H_    0.256260 0.209068 0.721341 0.236570
H11   H     H_    0.459823 0.756957 0.426209 0.223414
H12   H     H_    0.715427 0.452031 0.539591 0.169530
H13   H     H_    0.384156 0.682667 0.349930 0.216133
H14   H     H_    0.677600 0.497271 0.718601 0.241234
H15   H     H_    0.656835 0.388628 0.684293 0.217423
H16   H     H_    0.806010 0.280531 0.014899 0.213186
H17   H     H_    0.873714 0.284113 0.115134 0.224723
H18   H     H_    0.192535 0.719298 0.984629 0.212331
H19   H     H_    0.124919 0.715491 0.884358 0.226328
H20   H     H_    0.323025 0.769346 0.504404 0.169591
H21   H     H_    0.676920 0.234233 0.505047 0.158426
H22   H     H_    0.069073 0.849322 0.478449 0.151904
H23   H     H_    0.973685 0.652384 0.011257 0.153835
H24   H     H_    0.926252 0.143442 0.551112 0.139735
H25   H     H_    0.812132 0.966070 0.589884 0.134224
H26   H     H_    0.185762 0.021813 0.506402 0.131253
H27   H     H_    0.388769 0.758758 0.655516 0.238954
H28   H     H_    0.434699 0.714098 0.590495 0.235054
H29   H     H_    0.619496 0.212718 0.637082 0.223602
H30   H     H_    0.566840 0.272971 0.545609 0.210524
H31   H     H_    0.567722 0.733870 0.333804 0.145538
H32   H     H_    0.489056 0.363971 0.720314 0.183793
H33   H     H_    0.024969 0.347348 0.988377 0.153893
H34   H     H_    0.645496 0.838726 0.620036 0.160682
H35   H     H_    0.357032 0.143440 0.550982 0.157366
H36   H     H_    0.767299 0.485898 0.947369 0.232377
H37   H     H_    0.779893 0.423563 0.877594 0.211484
H38   H     H_    0.231149 0.513444 0.052045 0.232867
N1    N     N_R   0.795440 0.560790 0.443380 -0.203657
N2    N     N_3   0.663052 0.463723 0.663139 -0.607229
N3    N     N_3   0.841482 0.325529 0.064510 -0.587889
N4    N     N_3   0.157155 0.674184 0.935094 -0.585740
N5    N     N_3   0.453693 0.764896 0.634119 -0.589372
N6    N     N_3   0.552153 0.212729 0.597786 -0.607764
N7    N     N_R   0.204560 0.439210 0.556620 -0.210055
N8    N     N_3   0.813772 0.491669 0.903687 -0.586653
N9    N     N_3   0.184940 0.508095 0.095788 -0.580128
N10   N     N_3   0.121610 0.292617 0.664698 -0.618995
N11   N     N_3   0.883222 0.683408 0.327100 -0.514020
N12   N     N_3   0.727420 0.754496 0.280442 -0.627839
N13   N     N_3   0.307040 0.281218 0.736469 -0.606935
N14   N     N_3   0.416186 0.681422 0.415751 -0.646096
O1    O     O_R   0.977900 0.338120 0.529810 -0.593772
O2    O     O_R   0.022100 0.661880 0.470190 -0.562617
O3    O     O_R   0.839850 0.379180 0.491620 -0.588203
O4    O     O_R   0.160150 0.620820 0.508380 -0.582442
O5    O     O_R   0.069010 0.479460 0.640020 -0.587551
O6    O     O_R   0.930990 0.520540 0.359980 -0.547119
O7    O     O_R   0.930960 0.520530 0.601820 -0.564442
O8    O     O_R   0.069040 0.479470 0.398180 -0.581160

loop_
_geom_bond_atom_site_label_1
_geom_bond_atom_site_label_2
_ccdc_geom_bond_type
Cu1   N7    S    
C32   N4    S    
C21   C26   A    
Cu1   O8    S    
C23   C45   A    
C22   C29   A    
C27   C29   A    
C36   C42   T    
C8    N6    S    
C15   N10   S    
C17   O6    A    
C19   N7    A    
C39   C41   S    
H19   N4    S    
C25   C28   A    
C46   C49   A    
C26   C27   A    
C33   C39   S    
C45   H24   S    
C18   N1    A    
C19   C21   A    
C29   H31   S    
H17   N3    S    
C5    C6    A    
C11   C14   A    
C35   N9    S    
C20   C25   A    
C27   N14   S    
C33   N8    S    
C32   C39   S    
C3    C23   A    
Cu2   O3    S    
Cu1   O4    S    
C49   H20   S    
H3    N10   S    
C31   C33   S    
C39   H23   S    
C13   N13   S    
C19   H1    S    
C40   C42   S    
Cu2   O2    S    
Cu1   O5    S    
C38   C40   S    
C41   C43   S    
C2    C6    A    
C15   N7    A    
H8    N12   S    
C3    C50   A    
C16   O5    A    
C4    C34   A    
C10   H35   S    
C33   C40   S    
H30   N6    S    
C38   H33   S    
Cu1   Cu2   S    
C32   C35   S    
C35   C38   S    
C12   C46   S    
C12   O4    A    
H29   N6    S    
C14   N11   S    
H14   N2    S    
Cu2   O7    S    
C25   C26   A    
C31   N3    S    
C13   C24   A    
C37   C43   T    
C2    C4    A    
H27   N5    S    
C3    C9    A    
C2    C49   A    
C9    H34   S    
C1    C44   S    
Cu2   O6    S    
Cu1   O1    S    
C28   N2    S    
H6    N11   S    
C17   C37   S    
C23   H25   S    
H28   N5    S    
C35   C41   S    
C1    O3    A    
C20   C22   A    
C13   C15   A    
C5    C50   A    
H4    N10   S    
C4    C10   A    
C17   O8    A    
H38   N9    S    
H5    N11   S    
C44   C45   A    
H10   N13   S    
C7    C9    A    
C46   C47   A    
C31   C41   S    
H9    N13   S    
H7    N12   S    
C48   H21   S    
C47   H22   S    
H11   N14   S    
C5    C8    A    
C6    C7    A    
H18   N4    S    
C7    N5    S    
C11   C22   A    
H16   N3    S    
C31   C38   S    
H37   N8    S    
C28   C30   A    
H36   N8    S    
C34   H26   S    
C12   O2    A    
C18   H12   S    
C48   C50   A    
H15   N2    S    
C11   N12   S    
C18   C20   A    
C32   C40   S    
C30   H32   S    
H2    N9    S    
C24   C30   A    
C14   N1    A    
C8    C10   A    
C21   C24   A    
Cu2   N1    S    
C34   C47   A    
H13   N14   S    
C16   C36   S    
C44   C48   A    
C16   O7    A    
C1    O1    A    
