data_mof_unit_35637.cif
_audit_creation_date              2013-03-05T16:13:53-0500
_audit_creation_method            fapswitch 2.2
_symmetry_space_group_name_H-M    P1
_symmetry_Int_Tables_number       1
_space_group_crystal_system       triclinic
_cell_length_a                    20.234138
_cell_length_b                    22.717966
_cell_length_c                    6.947577
_cell_angle_alpha                 89.805013
_cell_angle_beta                  87.268255
_cell_angle_gamma                 89.955401
_cell_volume                      3190.00321532

loop_
_atom_site_label
_atom_site_type_symbol
_atom_site_description
_atom_site_fract_x
_atom_site_fract_y
_atom_site_fract_z
_atom_type_partial_charge
O1    O     O_R   0.751270 0.447300 0.600030 -0.590866
O2    O     O_R   0.248730 0.947300 0.399970 -0.594490
O3    O     O_R   0.613530 0.440160 0.952150 -0.585065
O4    O     O_R   0.386470 0.940160 0.047850 -0.585403
O5    O     O_R   0.613050 0.552700 0.122560 -0.589276
O6    O     O_R   0.386950 0.052700 0.877440 -0.589259
C1    C     C_R   0.591638 0.425344 0.786454 0.951692
C2    C     C_R   0.408460 0.925453 0.213984 0.953368
O7    O     O_R   0.750780 0.440350 0.929820 -0.603093
O8    O     O_R   0.249220 0.940350 0.070180 -0.601226
O9    O     O_R   0.751280 0.552900 0.100070 -0.598548
O10   O     O_R   0.248720 0.052900 0.899930 -0.600261
C3    C     C_R   0.774127 0.426402 0.758314 0.934957
C4    C     C_R   0.226138 0.926113 0.242350 0.937037
O11   O     O_R   0.613040 0.447100 0.622520 -0.577420
O12   O     O_R   0.386960 0.947100 0.377480 -0.577659
O13   O     O_3   0.682160 0.536920 0.777780 -0.274644
O14   O     O_3   0.317840 0.036920 0.222220 -0.275055
V1    V     V_3+5 0.682160 0.493150 0.052630 1.184659
V2    V     V_3+5 0.317840 0.993150 0.947370 1.183243
O15   O     O_R   0.750790 0.559840 0.429870 -0.602980
O16   O     O_R   0.249210 0.059840 0.570130 -0.603010
C5    C     C_R   0.773655 0.574110 0.257813 0.940174
C6    C     C_R   0.225945 0.073897 0.741556 0.944043
O17   O     O_R   0.613540 0.559650 0.452200 -0.589926
O18   O     O_R   0.386460 0.059650 0.547800 -0.589417
C7    C     C_R   0.591637 0.574427 0.286301 0.936862
C8    C     C_R   0.408329 0.074486 0.713243 0.937774
V3    V     V_3+5 0.682160 0.506850 0.552630 1.183455
V4    V     V_3+5 0.317840 0.006850 0.447370 1.182839
O19   O     O_3   0.682150 0.463080 0.277610 -0.259091
O20   O     O_3   0.317850 0.963080 0.722390 -0.260593
C9    C     C_R   0.579948 0.862451 0.232699 -0.149220
C10   C     C_R   0.419933 0.362045 0.786542 -0.158774
H1    H     H_    0.538686 0.949124 0.213648 0.118793
H2    H     H_    0.461135 0.448631 0.806080 0.117304
H3    H     H_    0.671179 0.778963 0.240589 0.154567
H4    H     H_    0.328849 0.278439 0.787473 0.144841
H5    H     H_    0.630203 0.879050 0.228528 0.135626
H6    H     H_    0.369615 0.378463 0.799742 0.128147
C11   C     C_R   0.462913 0.882388 0.218741 -0.134962
C12   C     C_R   0.537250 0.382214 0.783528 -0.133494
C13   C     C_R   0.472327 0.594602 0.307148 -0.232817
C14   C     C_R   0.527397 0.094992 0.679536 -0.230761
C15   C     C_R   0.418497 0.632060 0.334595 -0.161752
C16   C     C_R   0.580698 0.132746 0.647035 -0.156898
C17   C     C_R   0.426736 0.693275 0.337701 0.335854
C18   C     C_R   0.572190 0.193956 0.648976 0.332500
C19   C     C_R   0.490314 0.718248 0.290193 -0.071523
C20   C     C_R   0.509279 0.218475 0.707129 -0.071417
C21   C     C_R   0.546026 0.679039 0.277028 0.080515
C22   C     C_R   0.453876 0.179050 0.726358 0.082045
C23   C     C_R   0.501387 0.780282 0.259761 0.113150
C24   C     C_R   0.498478 0.280294 0.742247 0.113022
C25   C     C_R   0.567435 0.801792 0.248967 0.164000
C26   C     C_R   0.432453 0.301559 0.764485 0.171239
C27   C     C_R   0.620756 0.762738 0.250908 -0.191521
C28   C     C_R   0.379209 0.262403 0.768476 -0.203679
C29   C     C_R   0.610334 0.702374 0.258905 -0.169518
C30   C     C_R   0.389735 0.202131 0.755363 -0.168023
C31   C     C_R   0.449894 0.821675 0.231067 -0.130862
C32   C     C_R   0.550360 0.321642 0.765009 -0.127865
C33   C     C_R   0.528013 0.902430 0.222107 -0.167885
C34   C     C_R   0.471913 0.402073 0.792054 -0.167611
C35   C     C_R   0.536355 0.617099 0.286368 -0.163236
C36   C     C_R   0.463578 0.117198 0.711359 -0.166109
H7    H     H_    0.399554 0.808001 0.213498 0.147367
H8    H     H_    0.601132 0.307980 0.774268 0.146576
H9    H     H_    0.464275 0.547454 0.313577 0.135457
H10   H     H_    0.535493 0.047933 0.668196 0.136792
H11   H     H_    0.370215 0.612931 0.366967 0.168415
H12   H     H_    0.628535 0.113954 0.606380 0.171615
H13   H     H_    0.653419 0.674013 0.253114 0.108087
H14   H     H_    0.346817 0.173647 0.765954 0.108093
C37   C     C_R   0.171062 0.882579 0.260600 -0.121213
C38   C     C_R   0.830792 0.384526 0.743102 -0.118222
C39   C     C_R   0.143780 0.857931 0.096350 -0.149088
C40   C     C_R   0.847674 0.349784 0.901943 -0.145987
C41   C     C_R   0.091332 0.817622 0.114681 -0.141866
C42   C     C_R   0.902558 0.311960 0.889082 -0.146950
C43   C     C_R   0.064877 0.801003 0.298771 0.250640
C44   C     C_R   0.942308 0.308670 0.717140 0.256528
C45   C     C_R   0.092295 0.825458 0.461658 -0.118477
C46   C     C_R   0.925724 0.343602 0.559920 -0.121145
C47   C     C_R   0.144596 0.865645 0.443464 -0.147486
C48   C     C_R   0.870269 0.380534 0.571459 -0.172022
C49   C     C_R   0.890012 0.699496 0.374752 0.376061
C50   C     C_R   0.095521 0.185844 0.601722 0.364566
C51   C     C_R   0.837942 0.658465 0.388451 -0.289362
C52   C     C_R   0.151810 0.149167 0.594734 -0.293326
C53   C     C_R   0.934960 0.699148 0.210362 0.076882
C54   C     C_R   0.056421 0.190773 0.777161 0.087868
N1    N     N_2   0.011315 0.760422 0.328456 -0.045304
N2    N     N_2   0.000160 0.272739 0.697717 -0.043675
N3    N     N_2   0.988540 0.739815 0.178995 -0.069708
N4    N     N_2   0.999232 0.227788 0.801986 -0.054848
C55   C     C_R   0.828391 0.617663 0.240819 -0.167735
C56   C     C_R   0.169212 0.115765 0.755665 -0.176485
H15   H     H_    0.804195 0.659199 0.514330 0.171310
H16   H     H_    0.180871 0.145324 0.460315 0.180849
H17   H     H_    0.072813 0.813336 0.604211 0.137307
H18   H     H_    0.955871 0.341946 0.426945 0.144789
H19   H     H_    0.164105 0.883576 0.573322 0.136466
H20   H     H_    0.859166 0.406916 0.446911 0.134407
C57   C     C_R   0.871789 0.618618 0.077251 -0.168285
C58   C     C_R   0.129322 0.119853 0.925808 -0.150797
C59   C     C_R   0.924339 0.658583 0.063294 -0.108597
C60   C     C_R   0.073396 0.156114 0.934626 -0.099631
H21   H     H_    0.865766 0.587767 0.960856 0.139822
H22   H     H_    0.140336 0.093877 0.051332 0.143973
H23   H     H_    0.071679 0.799766 0.984981 0.136752
H24   H     H_    0.914584 0.286301 0.014321 0.152737
H25   H     H_    0.957578 0.657660 0.936553 0.172022
H26   H     H_    0.042663 0.157026 0.065872 0.197786
H27   H     H_    0.162783 0.869888 0.953219 0.136088
H28   H     H_    0.818550 0.351918 0.036636 0.151397
N5    N     N_R   0.893933 0.742464 0.523922 0.232856
O21   O     O_R   0.845747 0.779847 0.552283 -0.384712
O22   O     O_R   0.936156 0.735258 0.657431 -0.434883
N6    N     N_R   0.076834 0.214037 0.427113 0.220821
O23   O     O_R   0.122085 0.234831 0.306046 -0.419938
O24   O     O_R   0.016105 0.210577 0.374323 -0.437534
N7    N     N_R   0.372606 0.727574 0.417852 0.217466
O25   O     O_R   0.382143 0.763137 0.560390 -0.400570
O26   O     O_R   0.312300 0.715760 0.373317 -0.397830
N8    N     N_R   0.624878 0.228918 0.563207 0.217771
O27   O     O_R   0.612797 0.265335 0.424125 -0.400477
O28   O     O_R   0.686049 0.216968 0.598562 -0.389911

loop_
_geom_bond_atom_site_label_1
_geom_bond_atom_site_label_2
_geom_bond_distance
_ccdc_geom_bond_type
C9    C25   1.404513 A    
C10   C26   1.404656 A    
N8    O27   1.301797 A    
C44   N2    1.427933 S    
C49   C53   1.425717 A    
C15   H11   1.083026 S    
C46   H18   1.083278 S    
C14   C36   1.394058 A    
C11   C31   1.405961 A    
O4    C2    1.299209 A    
C48   H20   1.083154 S    
N7    O25   1.301749 A    
C17   C19   1.430082 A    
C57   C59   1.398363 A    
O9    V1    1.989255 S    
C9    H5    1.083878 S    
C51   H15   1.083766 S    
C6    C56   1.490068 S    
C46   C48   1.399973 A    
C49   N5    1.431099 S    
O3    C1    1.298547 A    
N5    O22   1.300527 A    
C58   H22   1.083175 S    
C40   C42   1.403292 A    
C27   C29   1.388155 A    
C28   C30   1.388198 A    
C54   N4    1.433980 S    
O13   V3    1.709037 S    
C21   C35   1.421673 A    
C15   C17   1.401120 A    
C60   H26   1.079191 S    
O7    C3    1.300789 A    
C59   H25   1.082496 S    
C22   C30   1.405222 A    
O5    C7    1.296927 A    
C23   C31   1.423596 A    
C54   C60   1.401548 A    
O6    C8    1.297262 A    
C50   C54   1.425836 A    
C14   C16   1.388044 A    
C19   C21   1.435879 A    
C20   C22   1.436385 A    
O3    V1    1.991394 S    
O14   V4    1.704776 S    
C50   N6    1.436271 S    
C45   H17   1.083156 S    
C12   C32   1.406369 A    
C16   H12   1.083092 S    
C47   H19   1.082788 S    
C9    C33   1.392864 A    
C55   C57   1.402748 A    
C18   N8    1.435290 S    
C18   C20   1.430153 A    
V1    O19   1.703685 S    
N1    N3    1.248618 D    
H4    C28   1.084166 S    
C42   H24   1.082871 S    
C52   H16   1.083353 S    
C43   C45   1.400622 A    
O7    V1    1.996527 S    
O11   V3    1.992004 S    
C16   C18   1.401071 A    
C23   C25   1.421864 A    
O17   V3    1.984331 S    
C24   C26   1.421921 A    
C53   C59   1.402522 A    
C2    C11   1.474385 S    
C42   C44   1.410128 A    
O8    C4    1.303035 A    
O8    V2    1.994334 S    
C41   C43   1.413031 A    
C1    O11   1.295567 A    
C24   C32   1.424005 A    
O15   V3    1.996928 S    
C51   C55   1.405076 A    
C8    C36   1.480448 S    
C1    C12   1.474958 S    
C7    C35   1.479619 S    
C43   N1    1.430392 S    
C31   H7    1.077750 S    
C17   N7    1.435400 S    
C3    C38   1.489386 S    
C13   C35   1.393979 A    
O10   V2    1.986237 S    
C10   C34   1.392899 A    
C39   C41   1.403156 A    
C20   C24   1.440982 A    
N2    N4    1.249675 D    
C37   C39   1.409024 A    
C45   C47   1.399049 A    
C50   C52   1.409761 A    
O18   V4    1.988504 S    
C44   C46   1.401454 A    
C25   C27   1.396834 A    
O16   C6    1.300370 A    
O1    C3    1.301228 A    
C11   C33   1.395327 A    
C12   C34   1.395231 A    
C22   C36   1.422122 A    
N6    O23   1.301351 A    
N6    O24   1.301519 A    
C37   C47   1.407483 A    
V2    O20   1.707945 S    
C30   H14   1.082929 S    
C57   H21   1.083236 S    
N8    O28   1.301547 A    
C2    O12   1.295269 A    
O16   V4    1.999123 S    
C5    C55   1.485933 S    
C40   H28   1.083065 S    
C13   H9    1.083990 S    
C38   C40   1.409632 A    
O5    V1    1.989596 S    
C32   H8    1.077736 S    
O17   C7    1.297470 A    
O6    V2    1.988832 S    
O10   C6    1.301927 A    
O18   C8    1.296891 A    
C56   C58   1.402534 A    
C41   H23   1.082393 S    
O2    V4    1.985951 S    
C4    C37   1.491143 S    
O15   C5    1.301138 A    
C13   C15   1.388081 A    
H2    C34   1.083558 S    
N5    O21   1.300854 A    
V4    O20   2.150984 S    
O1    V3    1.982941 S    
C58   C60   1.398273 A    
C19   C23   1.440447 A    
O9    C5    1.299795 A    
O13   V1    2.149929 S    
C26   C28   1.396866 A    
O14   V2    2.155932 S    
C14   H10   1.084017 S    
C29   H13   1.082929 S    
O2    C4    1.300575 A    
N7    O26   1.301463 A    
C53   N3    1.433203 S    
O4    V2    1.987212 S    
C21   C29   1.405372 A    
V3    O19   2.156988 S    
C38   C48   1.406474 A    
C49   C51   1.406906 A    
C10   H6    1.083932 S    
H1    C33   1.083561 S    
C39   H27   1.082760 S    
O12   V4    1.992773 S    
C52   C56   1.407562 A    
H3    C27   1.084146 S    
