data_mof_unit_44641.cif
_audit_creation_date              2012-12-10T18:18:24-0500
_audit_creation_method            fapswitch 2.2
_symmetry_space_group_name_H-M    P1
_symmetry_Int_Tables_number       1
_space_group_crystal_system       triclinic
_cell_length_a                    14.00318
_cell_length_b                    14.90039
_cell_length_c                    15.486568
_cell_angle_alpha                 90.353963
_cell_angle_beta                  66.649741
_cell_angle_gamma                 90.530334
_cell_volume                      2966.53043189

loop_
_atom_site_label
_atom_site_type_symbol
_atom_type_description
_atom_site_fract_x
_atom_site_fract_y
_atom_site_fract_z
_atom_type_partial_charge
C1    C     C_R   0.500510 0.673239 0.498979 0.925117
C2    C     C_R   0.495646 0.769310 0.504119 -0.094811
C3    C     C_R   0.554873 0.181489 0.426178 0.090118
C4    C     C_R   0.424380 0.810224 0.586759 0.110959
C5    C     C_R   0.526146 0.092228 0.418723 0.072576
C6    C     C_R   0.408962 0.904023 0.586390 0.059064
C7    C     C_R   0.467095 0.045943 0.502885 -0.096745
C8    C     C_R   0.464875 0.952037 0.502116 -0.102332
C9    C     C_R   0.416771 0.093368 0.588283 0.071550
C10   C     C_R   0.521740 0.906720 0.416780 0.072528
C11   C     C_R   0.551088 0.047709 0.331390 0.179818
C12   C     C_R   0.498331 0.326600 0.502343 0.933129
C13   C     C_R   0.345743 0.953193 0.667786 0.194598
C14   C     C_R   0.547131 0.953097 0.330645 0.184130
C15   C     C_R   0.365420 0.044946 0.672648 0.181005
C16   C     C_R   0.434268 0.501297 0.677239 0.867424
C17   C     C_R   0.565748 0.497995 0.323029 0.877878
C18   C     C_R   0.211779 0.423671 0.475388 -0.088544
C19   C     C_R   0.787600 0.575930 0.526000 -0.084790
C20   C     C_R   0.190883 0.575614 0.526565 -0.067457
C21   C     C_R   0.808682 0.424091 0.474675 -0.067855
C22   C     C_R   0.089916 0.577401 0.527459 0.005288
C23   C     C_R   0.380700 0.480047 0.109186 -0.213153
C24   C     C_R   0.908986 0.421883 0.475200 0.007358
C25   C     C_R   0.049935 0.499547 0.501541 0.083856
C26   C     C_R   0.948953 0.499727 0.501114 0.086499
C27   C     C_R   0.110858 0.421504 0.476087 0.018229
C28   C     C_R   0.887924 0.577704 0.526742 0.011017
C29   C     C_R   0.028269 0.654821 0.553571 -0.206360
C30   C     C_R   0.969961 0.344011 0.450530 -0.210710
C31   C     C_R   0.928134 0.654991 0.553158 -0.211406
C32   C     C_R   0.069970 0.343752 0.451201 -0.216549
C33   C     C_R   0.390759 0.502066 0.781156 -0.127252
C34   C     C_R   0.621362 0.479990 0.891013 -0.212775
C35   C     C_R   0.609736 0.490390 0.219748 -0.130895
C36   C     C_R   0.257924 0.468069 0.935558 -0.255987
C37   C     C_R   0.742531 0.515597 0.063286 -0.252083
C38   C     C_R   0.287377 0.474219 0.838105 0.132883
C39   C     C_R   0.711146 0.521055 0.161071 0.128998
C40   C     C_R   0.458796 0.525447 0.824879 0.120098
C41   C     C_R   0.545319 0.453462 0.178101 0.118207
C42   C     C_R   0.436446 0.494844 0.916685 0.058188
C43   C     C_R   0.566581 0.474073 0.083817 0.062110
C44   C     C_R   0.331346 0.477571 0.976159 0.026231
C45   C     C_R   0.301921 0.474239 0.074675 0.161935
C46   C     C_R   0.670782 0.494050 0.023245 0.024209
C47   C     C_R   0.515251 0.485086 0.951604 0.015523
C48   C     C_R   0.487125 0.477124 0.048874 0.015923
C49   C     C_3   0.187041 0.468817 0.140885 -0.425699
C50   C     C_3   0.162562 0.473100 0.246127 -0.862540
C51   C     C_3   0.814782 0.498200 0.857893 -0.422219
C52   C     C_3   0.839196 0.486984 0.753035 -0.860583
C53   C     C_3   0.471162 0.376790 0.226565 -0.896053
C54   C     C_3   0.539796 0.599428 0.783148 -0.887001
C55   C     C_3   0.789276 0.557594 0.197959 -0.382801
C56   C     C_R   0.700275 0.490764 0.924706 0.160231
C57   C     C_3   0.852001 0.482112 0.216249 -0.819047
C58   C     C_3   0.204425 0.454116 0.800509 -0.377136
C59   C     C_3   0.155326 0.540191 0.784458 -0.830178
C60   C     C_3   0.330002 0.242716 0.656631 -0.920888
C61   C     C_3   0.642553 0.774632 0.344032 -0.930593
C62   C     C_3   0.654311 0.222657 0.355123 -0.911420
C63   C     C_3   0.379156 0.755265 0.676721 -0.893368
C64   C     C_3   0.568887 0.099461 0.241975 -0.906087
C65   C     C_3   0.248274 0.915102 0.744004 -0.908960
C66   C     C_3   0.556084 0.903848 0.241547 -0.906499
C67   C     C_R   0.416021 0.187713 0.584314 0.109566
C68   C     C_3   0.349681 0.083242 0.768377 -0.912793
C69   C     C_R   0.549001 0.817180 0.421202 0.097581
C70   C     C_R   0.493006 0.230239 0.506230 -0.103635
H1    H     H_    0.259952 0.364513 0.455131 0.141934
H2    H     H_    0.822073 0.533336 0.019299 0.140800
H3    H     H_    0.359228 0.488490 0.183401 0.185502
H4    H     H_    0.641861 0.469464 0.817033 0.183386
H5    H     H_    0.199506 0.416200 0.266870 0.262530
H6    H     H_    0.189253 0.537955 0.264880 0.260347
H7    H     H_    0.077113 0.468035 0.285951 0.261230
H8    H     H_    0.145259 0.525120 0.124744 0.211419
H9    H     H_    0.154104 0.404672 0.127426 0.205564
H10   H     H_    0.814092 0.419674 0.738499 0.259944
H11   H     H_    0.800738 0.540299 0.728871 0.262081
H12   H     H_    0.739306 0.635010 0.546430 0.144390
H13   H     H_    0.924469 0.493174 0.712541 0.257111
H14   H     H_    0.844748 0.565264 0.867328 0.205036
H15   H     H_    0.859221 0.446246 0.877250 0.210343
H16   H     H_    0.396989 0.401250 0.280695 0.251320
H17   H     H_    0.453421 0.334923 0.175115 0.241854
H18   H     H_    0.507804 0.331815 0.261228 0.227574
H19   H     H_    0.559562 0.633246 0.838084 0.241142
H20   H     H_    0.612408 0.573651 0.727843 0.251827
H21   H     H_    0.508578 0.652607 0.752409 0.232735
H22   H     H_    0.904906 0.510467 0.247334 0.241356
H23   H     H_    0.222287 0.634645 0.547216 0.143112
H24   H     H_    0.800235 0.431651 0.265514 0.271560
H25   H     H_    0.899685 0.448021 0.149119 0.240520
H26   H     H_    0.844717 0.604074 0.145650 0.188851
H27   H     H_    0.751218 0.599138 0.261834 0.220069
H28   H     H_    0.115002 0.575844 0.852328 0.244025
H29   H     H_    0.214786 0.585800 0.735215 0.269228
H30   H     H_    0.097392 0.523267 0.754356 0.241131
H31   H     H_    0.235179 0.412831 0.735824 0.223654
H32   H     H_    0.141144 0.412374 0.851521 0.186334
H33   H     H_    0.291505 0.285008 0.621563 0.253326
H34   H     H_    0.777380 0.365080 0.454142 0.134248
H35   H     H_    0.265058 0.201330 0.704599 0.250610
H36   H     H_    0.362235 0.285738 0.697566 0.227642
H37   H     H_    0.694369 0.745146 0.374940 0.249086
H38   H     H_    0.616911 0.720719 0.308024 0.224824
H39   H     H_    0.691590 0.824145 0.291828 0.256804
H40   H     H_    0.702708 0.173124 0.302733 0.254271
H41   H     H_    0.636765 0.279881 0.318404 0.230943
H42   H     H_    0.703135 0.247143 0.391994 0.241541
H43   H     H_    0.396112 0.788550 0.733354 0.243592
H44   H     H_    0.294909 0.743234 0.697497 0.240762
H45   H     H_    0.057557 0.715265 0.574114 0.142648
H46   H     H_    0.413295 0.687929 0.670057 0.217757
H47   H     H_    0.555052 0.172225 0.254262 0.250874
H48   H     H_    0.649234 0.088431 0.189327 0.243782
H49   H     H_    0.512576 0.077946 0.211862 0.240717
H50   H     H_    0.208530 0.867781 0.713417 0.238254
H51   H     H_    0.265307 0.883984 0.801096 0.247740
H52   H     H_    0.190337 0.968698 0.776546 0.239243
H53   H     H_    0.499323 0.930507 0.214902 0.239598
H54   H     H_    0.635923 0.911410 0.186525 0.242867
H55   H     H_    0.535611 0.831772 0.253459 0.253592
H56   H     H_    0.940454 0.283434 0.430459 0.144274
H57   H     H_    0.375540 0.033815 0.807914 0.244490
H58   H     H_    0.397684 0.144333 0.762507 0.254951
H59   H     H_    0.266504 0.098044 0.810382 0.237435
H60   H     H_    0.882146 0.715503 0.573551 0.144351
H61   H     H_    0.115691 0.283058 0.431402 0.145555
H62   H     H_    0.177445 0.452715 0.978758 0.138813
N1    N     N_R   0.249980 0.499930 0.499960 -0.094638
N2    N     N_R   0.750020 0.500070 0.500040 -0.094032
O1    O     O_R   0.419720 0.632140 0.499980 -0.619605
O2    O     O_R   0.580280 0.367860 0.500020 -0.622487
O3    O     O_R   0.580270 0.632160 0.499970 -0.628004
O4    O     O_R   0.419730 0.367840 0.500030 -0.630807
O5    O     O_R   0.373870 0.499980 0.632250 -0.609518
O6    O     O_R   0.626130 0.500020 0.367750 -0.608023
O7    O     O_R   0.534420 0.500000 0.632240 -0.596464
O8    O     O_R   0.465580 0.500000 0.367760 -0.596695
Zn1   Zn    Zn3+2 0.392800 0.499980 0.500010 0.925168
Zn2   Zn    Zn3+2 0.607200 0.500020 0.499990 0.925988

loop_
_geom_bond_atom_site_label_1
_geom_bond_atom_site_label_2
_ccdc_geom_bond_type
C20   H23   S    
C30   H56   S    
C34   C56   A    
C23   C45   A    
C57   H22   S    
C59   H29   S    
C2    C4    A    
C61   H39   S    
C51   H15   S    
C1    O3    A    
C7    C8    A    
C13   C65   S    
C19   N2    A    
C4    C63   S    
C64   H49   S    
C22   C29   A    
C24   C26   A    
C54   H20   S    
C31   H60   S    
O4    Zn1   S    
C36   H62   S    
O2    Zn2   S    
C11   C14   A    
C64   H48   S    
C49   H8    S    
C18   N1    A    
C1    C2    S    
C61   H38   S    
C38   C58   S    
C21   H34   S    
O5    Zn1   S    
C39   C55   S    
C62   H41   S    
C60   C67   S    
C22   C25   A    
C53   H16   S    
C58   H32   S    
C65   H51   S    
C20   N1    A    
C17   O6    A    
C2    C69   A    
C43   C48   A    
C68   H58   S    
C63   H44   S    
C40   C42   A    
C29   H45   S    
C59   H30   S    
C41   C43   A    
C68   H59   S    
C42   C44   A    
C23   H3    S    
C35   C41   A    
N1    Zn1   S    
C33   C40   A    
C51   C52   S    
O6    Zn2   S    
C3    C70   A    
C54   H19   S    
C4    C6    A    
C11   C64   S    
C10   C14   A    
O7    Zn2   S    
C5    C7    A    
C6    C8    A    
C25   C26   A    
C64   H47   S    
C49   H9    S    
C17   O8    A    
C52   H13   S    
C35   C39   A    
C9    C67   A    
C50   H6    S    
C16   C33   S    
C47   C48   A    
C62   H40   S    
C13   C15   A    
C45   C49   S    
C29   C31   A    
C55   H27   S    
C14   C66   S    
C53   H17   S    
C58   H31   S    
C65   H52   S    
C19   C28   A    
C68   H57   S    
C41   C53   S    
C34   H4    S    
C63   H46   S    
O3    Zn2   S    
C20   C22   A    
C40   C54   S    
C57   H24   S    
C55   C57   S    
C12   O2    A    
C66   H54   S    
C36   C44   A    
C16   O5    A    
C21   C24   A    
C19   H12   S    
C50   H7    S    
C21   N2    A    
C60   H36   S    
C44   C45   A    
C3    C62   S    
C61   C69   S    
C18   H1    S    
C7    C9    A    
C12   C70   S    
C23   C48   A    
C27   C32   A    
O8    Zn1   S    
C28   C31   A    
C18   C27   A    
C51   C56   S    
C55   H26   S    
C3    C5    A    
C5    C11   A    
C25   C27   A    
C26   C28   A    
C33   C38   A    
C66   H55   S    
C67   C70   A    
C36   C38   A    
C16   O7    A    
C58   C59   S    
C54   H21   S    
C37   C39   A    
C1    O1    A    
C50   H5    S    
C6    C13   A    
C30   C32   A    
C60   H33   S    
C15   C68   S    
O1    Zn1   S    
C65   H50   S    
C53   H18   S    
C12   O4    A    
C42   C47   A    
C9    C15   A    
C52   H11   S    
C61   H37   S    
C43   C46   A    
C24   C30   A    
N2    Zn2   S    
C63   H43   S    
C10   C69   A    
C62   H42   S    
C8    C10   A    
C49   C50   S    
C57   H25   S    
C37   H2    S    
C46   C56   A    
C59   H28   S    
C66   H53   S    
C34   C47   A    
C17   C35   S    
C37   C46   A    
C52   H10   S    
C51   H14   S    
C32   H61   S    
C60   H35   S    
