data_mof_unit_31853.cif
_audit_creation_date              2012-12-10T20:59:33-0500
_audit_creation_method            fapswitch 2.2
_symmetry_space_group_name_H-M    P1
_symmetry_Int_Tables_number       1
_space_group_crystal_system       triclinic
_cell_length_a                    15.770317
_cell_length_b                    15.051833
_cell_length_c                    10.679022
_cell_angle_alpha                 90.012788
_cell_angle_beta                  88.049912
_cell_angle_gamma                 90.848957
_cell_volume                      2533.1564217

loop_
_atom_site_label
_atom_site_type_symbol
_atom_type_description
_atom_site_fract_x
_atom_site_fract_y
_atom_site_fract_z
_atom_type_partial_charge
C1    C     C_R   0.338645 0.499397 0.499235 0.873010
C2    C     C_1   0.176564 0.497329 0.469378 -0.058683
C3    C     C_1   0.250701 0.497981 0.485090 -0.198093
C4    C     C_1   0.749965 0.502631 0.489874 -0.250236
C5    C     C_R   0.488867 0.952474 0.388840 0.379500
C6    C     C_R   0.492252 0.046805 0.387982 0.370002
C7    C     C_R   0.500976 0.499857 0.256416 0.884327
C8    C     C_R   0.495700 0.904899 0.501984 -0.317335
C9    C     C_R   0.497060 0.094900 0.501088 -0.312009
C10   C     C_R   0.500120 0.953120 0.615684 0.398431
C11   C     C_R   0.500629 0.047431 0.614897 0.397969
C12   C     C_3   0.578115 0.519564 0.912910 -0.531930
C13   C     C_1   0.498523 0.807077 0.500625 0.235817
C14   C     C_1   0.498882 0.192867 0.500355 0.232763
C15   C     C_R   0.661310 0.500676 0.505200 0.903091
C16   C     C_R   0.487868 0.499449 0.741587 0.844708
C17   C     C_3   0.426971 0.561910 0.079233 -0.461998
C18   C     C_3   0.477426 0.403425 0.074291 -0.499956
C19   C     C_3   0.429829 0.574261 0.936210 -0.066190
C20   C     C_3   0.460107 0.402901 0.933500 -0.050035
C21   C     C_3   0.587422 0.528263 0.056834 0.962764
C22   C     C_3   0.499388 0.499013 0.119309 -0.005719
C23   C     C_R   0.960274 0.582717 0.414184 0.051096
C24   C     C_3   0.484989 0.498143 0.877898 0.016613
C25   C     C_3   0.433259 0.867913 0.768270 -0.294656
C26   C     C_3   0.430828 0.113142 0.778885 -0.280956
C27   C     C_3   0.340987 0.587931 0.881244 -0.424417
C28   C     C_3   0.298412 0.671993 0.933713 -0.355803
C29   C     C_3   0.218573 0.693281 0.863487 -0.909567
C30   C     C_3   0.368707 0.364562 0.917186 -0.439358
C31   C     C_3   0.340991 0.352181 0.782398 -0.289857
C32   C     C_3   0.256515 0.301726 0.778390 -0.954551
C33   C     C_3   0.684143 0.651733 0.040060 -0.328845
C34   C     C_R   0.952283 0.419735 0.453915 0.048654
C35   C     C_3   0.691231 0.485019 0.203488 -0.320839
C36   C     C_3   0.106890 0.660314 0.391337 -0.409012
C37   C     C_3   0.129905 0.707666 0.513302 -0.311888
C38   C     C_3   0.196296 0.780986 0.488669 -0.921340
C39   C     C_3   0.085819 0.332292 0.500653 -0.404092
C40   C     C_3   0.110116 0.278376 0.383337 -0.330876
C41   C     C_3   0.159254 0.195577 0.416801 -0.889539
C42   C     C_3   0.921616 0.672589 0.378640 -0.427353
C43   C     C_3   0.825046 0.684284 0.380043 -0.331050
C44   C     C_3   0.801956 0.777189 0.336233 -0.891381
C45   C     C_R   0.913034 0.503267 0.441458 0.056805
C46   C     C_3   0.897662 0.334372 0.454808 -0.404313
C47   C     C_3   0.861394 0.316684 0.325241 -0.329217
C48   C     C_3   0.795902 0.240959 0.330082 -0.885983
C49   C     C_3   0.568713 0.104649 0.223160 -0.226758
C50   C     C_3   0.399209 0.893104 0.249082 -0.251237
C51   C     C_R   0.040792 0.417757 0.466520 0.049831
C52   C     C_R   0.049855 0.578475 0.417615 0.033880
C53   C     C_R   0.087732 0.497668 0.450705 0.039115
C54   C     C_1   0.824441 0.504887 0.468585 -0.053977
H1    H     H_    0.433028 0.628580 0.123483 0.208562
H2    H     H_    0.375473 0.902135 0.736610 0.119245
H3    H     H_    0.429944 0.867422 0.872196 0.187901
H4    H     H_    0.397918 0.052166 0.814919 0.171234
H5    H     H_    0.390221 0.147768 0.711586 0.136802
H6    H     H_    0.439586 0.158333 0.859631 0.187661
H7    H     H_    0.235376 0.708080 0.763819 0.265261
H8    H     H_    0.172924 0.636377 0.868819 0.263409
H9    H     H_    0.187827 0.752515 0.905894 0.247928
H10   H     H_    0.280807 0.662377 0.034505 0.221682
H11   H     H_    0.342879 0.729718 0.925351 0.209775
H12   H     H_    0.530419 0.357666 0.092870 0.215650
H13   H     H_    0.347815 0.594846 0.777876 0.211721
H14   H     H_    0.297677 0.531145 0.900778 0.210262
H15   H     H_    0.259722 0.237529 0.829183 0.259169
H16   H     H_    0.204739 0.342231 0.820908 0.265644
H17   H     H_    0.242219 0.287000 0.679626 0.256078
H18   H     H_    0.333256 0.417894 0.738045 0.215269
H19   H     H_    0.389111 0.313258 0.728716 0.248300
H20   H     H_    0.367097 0.297306 0.960752 0.204609
H21   H     H_    0.321122 0.402942 0.972187 0.208580
H22   H     H_    0.671711 0.704177 0.970294 0.189670
H23   H     H_    0.364565 0.533218 0.111793 0.173261
H24   H     H_    0.725313 0.600832 0.994448 0.178286
H25   H     H_    0.719953 0.682867 0.116500 0.194626
H26   H     H_    0.665184 0.541890 0.257293 0.193872
H27   H     H_    0.759877 0.498252 0.184972 0.168202
H28   H     H_    0.684533 0.424318 0.261857 0.198740
H29   H     H_    0.256089 0.752144 0.449911 0.266513
H30   H     H_    0.172607 0.830423 0.421542 0.259277
H31   H     H_    0.210114 0.815464 0.577779 0.245645
H32   H     H_    0.072256 0.737241 0.557809 0.211637
H33   H     H_    0.155538 0.659566 0.580552 0.230879
H34   H     H_    0.421743 0.376945 0.130517 0.196482
H35   H     H_    0.165672 0.639983 0.339200 0.207467
H36   H     H_    0.078316 0.708568 0.327621 0.183811
H37   H     H_    0.219378 0.214526 0.461799 0.264381
H38   H     H_    0.120443 0.152469 0.481593 0.258302
H39   H     H_    0.174921 0.157389 0.330313 0.250986
H40   H     H_    0.052291 0.257726 0.333918 0.219378
H41   H     H_    0.150327 0.320110 0.318370 0.226543
H42   H     H_    0.143971 0.347248 0.552212 0.211366
H43   H     H_    0.047748 0.292031 0.569536 0.184697
H44   H     H_    0.828865 0.828485 0.398942 0.262894
H45   H     H_    0.464889 0.637969 0.916453 0.189974
H46   H     H_    0.826507 0.788948 0.238820 0.253458
H47   H     H_    0.731833 0.783532 0.338323 0.272015
H48   H     H_    0.795996 0.635694 0.315524 0.223371
H49   H     H_    0.798497 0.676056 0.477061 0.246842
H50   H     H_    0.946943 0.724256 0.442162 0.209474
H51   H     H_    0.944672 0.688132 0.281471 0.197839
H52   H     H_    0.825044 0.178892 0.363297 0.260267
H53   H     H_    0.741524 0.258293 0.393908 0.269959
H54   H     H_    0.771725 0.229241 0.234939 0.250432
H55   H     H_    0.830781 0.376810 0.289249 0.224701
H56   H     H_    0.503951 0.353367 0.890024 0.182205
H57   H     H_    0.913740 0.299299 0.257808 0.211387
H58   H     H_    0.932061 0.274117 0.480381 0.199756
H59   H     H_    0.845578 0.339777 0.527030 0.215293
H60   H     H_    0.599366 0.040098 0.201194 0.191971
H61   H     H_    0.609135 0.145109 0.285629 0.139916
H62   H     H_    0.564047 0.141637 0.133863 0.185417
H63   H     H_    0.366407 0.957259 0.236120 0.178123
H64   H     H_    0.365372 0.852676 0.322939 0.134938
H65   H     H_    0.396074 0.855643 0.159813 0.174083
H66   H     H_    0.600816 0.581394 0.864685 0.173753
H67   H     H_    0.620178 0.466234 0.875107 0.185126
H68   H     H_    0.432044 0.797697 0.736637 0.171991
N1    N     N_1   0.500020 0.270550 0.499960 -0.113667
N2    N     N_1   0.500020 0.729450 0.499960 -0.105131
O1    O     O_R   0.378020 0.573650 0.500000 -0.623420
O2    O     O_3   0.511393 0.093130 0.725760 -0.555012
O3    O     O_3   0.605562 0.618537 0.090598 -0.633348
O4    O     O_3   0.652732 0.468068 0.088595 -0.667934
O5    O     O_3   0.486251 0.091884 0.275891 -0.587782
O6    O     O_3   0.485193 0.906895 0.276668 -0.566048
O7    O     O_R   0.378020 0.426350 0.500000 -0.620474
O8    O     O_R   0.499990 0.573670 0.314770 -0.593425
O9    O     O_R   0.499990 0.426330 0.314770 -0.620265
O10   O     O_R   0.621980 0.573680 0.499940 -0.605970
O11   O     O_R   0.621980 0.426320 0.499940 -0.607811
O12   O     O_R   0.500010 0.573660 0.685180 -0.627649
O13   O     O_R   0.500010 0.426340 0.685180 -0.632460
O14   O     O_3   0.510341 0.909886 0.728553 -0.548903
Zn1   Zn    Zn3+2 0.500000 0.598370 0.499960 0.966418
Zn2   Zn    Zn3+2 0.500000 0.401630 0.499960 0.949610

loop_
_geom_bond_atom_site_label_1
_geom_bond_atom_site_label_2
_ccdc_geom_bond_type
C36   H35   S    
C39   C51   S    
C29   H9    S    
C40   C41   S    
C8    C13   S    
C23   C45   A    
C46   H58   S    
C38   H29   S    
C50   H63   S    
N2    Zn1   S    
C16   O13   A    
C25   H2    S    
C43   C44   S    
C6    C9    A    
C35   H27   S    
C15   O10   A    
C20   C30   S    
O1    Zn1   S    
O8    Zn1   S    
C34   C51   A    
C23   C42   S    
C28   C29   S    
C1    O1    A    
C7    O9    A    
C2    C3    T    
O12   Zn1   S    
C30   C31   S    
C30   H20   S    
C33   H24   S    
C31   H19   S    
C48   H53   S    
C15   O11   A    
C35   H26   S    
C33   O3    S    
C26   O2    S    
O7    Zn2   S    
C50   O6    S    
C12   H66   S    
C44   H44   S    
C48   H52   S    
C12   H67   S    
C20   C24   S    
C41   H37   S    
C34   C46   S    
C21   O3    S    
C19   C27   S    
C26   H5    S    
C17   H1    S    
C36   C52   S    
C4    C54   T    
C49   H60   S    
C16   C24   S    
C18   C22   S    
C21   C22   S    
C25   H3    S    
C6    O5    S    
C35   H28   S    
C32   H17   S    
O11   Zn2   S    
O13   Zn2   S    
C29   H7    S    
C38   H31   S    
C50   H65   S    
C37   H32   S    
C11   O2    S    
C27   H13   S    
O10   Zn1   S    
C13   N2    T    
C19   H45   S    
C33   H25   S    
C32   H16   S    
C47   H55   S    
C49   O5    S    
N1    Zn2   S    
C18   H34   S    
C1    C3    S    
C9    C14   S    
C37   C38   S    
C9    C11   A    
C33   H22   S    
C47   C48   S    
C49   H62   S    
C17   H23   S    
C34   C45   A    
C46   C47   S    
C21   O4    S    
C26   H4    S    
C7    O8    A    
C48   H54   S    
C20   H56   S    
C28   H10   S    
C31   H18   S    
C49   H61   S    
C45   C54   S    
C42   C43   S    
C40   H41   S    
C16   O12   A    
C39   C40   S    
C52   C53   A    
C25   H68   S    
C36   H36   S    
C29   H8    S    
C36   C37   S    
C14   N1    T    
C46   H59   S    
C38   H30   S    
C50   H64   S    
C37   H33   S    
C31   C32   S    
C40   H40   S    
C1    O7    A    
C2    C53   S    
C42   H50   S    
C5    C8    A    
C25   O14   S    
C44   H47   S    
C32   H15   S    
C18   H12   S    
C7    C22   S    
C12   C24   S    
C17   C22   S    
C41   H39   S    
C4    C15   S    
C28   H11   S    
C43   H48   S    
C30   H21   S    
C44   H46   S    
C23   C52   A    
C5    C6    A    
C47   H57   S    
C12   C21   S    
C17   C19   S    
C19   C24   S    
C18   C20   S    
C35   O4    S    
C42   H51   S    
C43   H49   S    
C39   H42   S    
C39   H43   S    
C10   C11   A    
C5    O6    S    
C41   H38   S    
O9    Zn2   S    
C8    C10   A    
C27   C28   S    
C10   O14   S    
C27   H14   S    
C51   C53   A    
C26   H6    S    
