data_mof_unit_55646.cif
_audit_creation_date              2012-12-10T20:30:59-0500
_audit_creation_method            fapswitch 2.2
_symmetry_space_group_name_H-M    P1
_symmetry_Int_Tables_number       1
_space_group_crystal_system       triclinic
_cell_length_a                    15.006979
_cell_length_b                    10.676956
_cell_length_c                    9.846871
_cell_angle_alpha                 90.144721
_cell_angle_beta                  90.046883
_cell_angle_gamma                 90.083896
_cell_volume                      1577.74560313

loop_
_atom_site_label
_atom_site_type_symbol
_atom_type_description
_atom_site_fract_x
_atom_site_fract_y
_atom_site_fract_z
_atom_type_partial_charge
C1    C     C_R   0.497545 0.259892 0.500022 0.880815
C2    C     C_R   0.906199 0.541580 0.380460 0.128238
C3    C     C_R   0.954430 0.457036 0.740682 -0.227281
C4    C     C_R   0.046937 0.459030 0.740150 -0.194086
C5    C     C_R   0.092771 0.488647 0.620625 0.121063
C6    C     C_R   0.046074 0.518355 0.500705 -0.013924
C7    C     C_R   0.091967 0.550081 0.380324 0.005327
C8    C     C_R   0.044146 0.577491 0.261397 -0.187672
C9    C     C_R   0.951719 0.572940 0.261511 -0.246284
C10   C     C_R   0.184706 0.486025 0.618501 -0.335429
C11   C     C_R   0.230666 0.514212 0.499101 -0.193726
C12   C     C_R   0.326575 0.503710 0.499729 0.912563
C13   C     C_R   0.184891 0.552725 0.381079 0.464057
C14   C     C_R   0.491732 0.064025 0.623743 0.124695
C15   C     C_R   0.484408 0.128358 0.501470 -0.099171
C16   C     C_R   0.460570 0.064233 0.382416 -0.220764
C17   C     C_R   0.460162 0.934677 0.382543 -0.241794
C18   C     C_R   0.483745 0.871308 0.501775 -0.102131
C19   C     C_R   0.491364 0.936313 0.623866 0.139952
C20   C     C_3   0.561998 0.929089 0.730713 -0.479181
C21   C     C_3   0.562574 0.071036 0.730469 -0.481491
C22   C     C_R   0.425091 0.466801 0.071116 0.278647
C23   C     C_R   0.497284 0.740012 0.500185 0.868701
C24   C     C_R   0.570982 0.544323 0.072206 -0.145874
C25   C     C_R   0.570989 0.544332 0.928149 -0.146243
C26   C     C_R   0.425046 0.466894 0.928457 0.218719
C27   C     C_3   0.378225 0.343800 0.922268 -0.524602
C28   C     C_3   0.378492 0.343621 0.076461 -0.504308
C29   C     C_R   0.673362 0.500602 0.500061 0.897630
C30   C     C_R   0.814128 0.535820 0.380868 -0.263006
C31   C     C_R   0.769091 0.504641 0.500285 -0.075208
C32   C     C_R   0.815359 0.479296 0.620325 -0.273650
C33   C     C_R   0.907496 0.483860 0.621467 0.120726
C34   C     C_R   0.953274 0.514989 0.500963 0.093210
H1    H     H_    0.777629 0.556596 0.288514 0.153312
H2    H     H_    0.447279 0.885153 0.288361 0.167529
H3    H     H_    0.536410 0.888507 0.826991 0.206035
H4    H     H_    0.625073 0.887170 0.692687 0.201454
H5    H     H_    0.537675 0.112309 0.826913 0.200980
H6    H     H_    0.625945 0.111906 0.692150 0.204723
H7    H     H_    0.628854 0.578213 0.874066 0.150720
H8    H     H_    0.310270 0.351903 0.878500 0.199280
H9    H     H_    0.419958 0.268724 0.876909 0.215465
H10   H     H_    0.310778 0.351605 0.121314 0.227950
H11   H     H_    0.779819 0.454918 0.712470 0.158396
H12   H     H_    0.420817 0.268707 0.120322 0.199839
H13   H     H_    0.919671 0.433413 0.833629 0.144148
H14   H     H_    0.082625 0.436550 0.832674 0.145710
H15   H     H_    0.220427 0.459469 0.709652 0.178886
H16   H     H_    0.077848 0.601261 0.167695 0.187426
H17   H     H_    0.915875 0.593497 0.168600 0.144859
H18   H     H_    0.447971 0.113011 0.288230 0.161429
N1    N     N_R   0.499390 0.499140 0.142800 -0.115650
N2    N     N_R   0.499390 0.499180 0.857150 -0.109666
O1    O     O_R   0.500010 0.316790 0.614690 -0.617978
O2    O     O_R   0.500000 0.316760 0.385350 -0.625018
O3    O     O_R   0.367850 0.499990 0.614680 -0.631474
O4    O     O_R   0.367840 0.499950 0.385340 -0.570591
O5    O     O_R   0.500000 0.683240 0.614650 -0.617012
O6    O     O_R   0.499990 0.683210 0.385310 -0.625931
O7    O     O_R   0.632160 0.500050 0.614660 -0.632100
O8    O     O_R   0.632150 0.500010 0.385320 -0.628546
Zn1   Zn    Zn3+2 0.500010 0.500020 0.653130 0.940716
Zn2   Zn    Zn3+2 0.499990 0.499980 0.346870 0.956660
H19   H     H_    0.628841 0.578216 0.126589 0.148438
O9    O     O_3   0.230579 0.586732 0.264606 -0.609797
C35   C     C_3   0.249428 0.716109 0.271635 -0.307792
H20   H     H_    0.187110 0.772467 0.273432 0.154540
H21   H     H_    0.287390 0.743028 0.179577 0.186255
H22   H     H_    0.291513 0.739457 0.361372 0.158280

loop_
_geom_bond_atom_site_label_1
_geom_bond_atom_site_label_2
_ccdc_geom_bond_type
C17   C18   A    
C7    C13   A    
C11   C12   S    
O2    Zn2   S    
C24   C25   A    
O3    Zn1   S    
C6    C7    A    
C1    C15   S    
C17   H2    S    
C8    H16   S    
C10   H15   S    
C20   H4    S    
C32   H11   S    
O5    Zn1   S    
C19   C20   S    
C21   H5    S    
C2    C30   A    
C30   C31   A    
O6    Zn2   S    
C35   H22   S    
C12   O4    A    
C32   C33   A    
C2    C34   A    
O9    C35   S    
C1    O1    A    
C5    C10   A    
C29   C31   S    
C22   C28   S    
C4    C5    A    
C25   N2    A    
C23   O5    A    
C20   H3    S    
C11   C13   A    
C27   H8    S    
C28   H12   S    
C26   C27   S    
C23   O6    A    
C21   H6    S    
C30   H1    S    
C35   H20   S    
C12   O3    A    
C24   H19   S    
C14   C21   S    
C3    H13   S    
C1    O2    A    
C33   C34   A    
C22   N1    A    
C13   O9    S    
O4    Zn2   S    
C5    C6    A    
C26   N2    A    
N1    Zn2   S    
C29   O7    A    
C6    C34   A    
C10   C11   A    
C3    C33   A    
C22   C26   A    
C15   C16   A    
C27   H9    S    
C7    C8    A    
C4    H14   S    
C20   C21   S    
C16   H18   S    
C18   C19   A    
N2    Zn1   S    
C25   H7    S    
C27   C28   S    
O7    Zn1   S    
C14   C15   A    
C16   C17   A    
O8    Zn2   S    
C24   N1    A    
C29   O8    A    
C2    C9    A    
C14   C19   A    
C28   H10   S    
C31   C32   A    
C3    C4    A    
C18   C23   S    
O1    Zn1   S    
C8    C9    A    
C35   H21   S    
C9    H17   S    
