data_mof_unit_15682.cif
_audit_creation_date              2012-12-11T16:06:32-0500
_audit_creation_method            fapswitch 2.2
_symmetry_space_group_name_H-M    P1
_symmetry_Int_Tables_number       1
_space_group_crystal_system       triclinic
_cell_length_a                    7.199053
_cell_length_b                    14.407531
_cell_length_c                    15.859808
_cell_angle_alpha                 90.00137
_cell_angle_beta                  89.986684
_cell_angle_gamma                 89.962157
_cell_volume                      1644.98806913

loop_
_atom_site_label
_atom_site_type_symbol
_atom_type_description
_atom_site_fract_x
_atom_site_fract_y
_atom_site_fract_z
_atom_type_partial_charge
O1    O     O_R   0.388780 0.834790 0.412340 -0.539487
O2    O     O_R   0.111220 0.165210 0.912340 -0.540553
O3    O     O_R   0.888780 0.665210 0.587660 -0.533786
O4    O     O_R   0.611220 0.334790 0.087660 -0.533979
O5    O     O_R   0.059040 0.845930 0.587040 -0.541997
O6    O     O_R   0.440960 0.154070 0.087040 -0.538895
O7    O     O_R   0.559040 0.654070 0.412960 -0.538184
O8    O     O_R   0.940960 0.345930 0.912960 -0.538185
C1    C     C_R   0.227700 0.868409 0.614960 0.702172
C2    C     C_R   0.272377 0.131988 0.115309 0.701012
C3    C     C_R   0.728422 0.630825 0.385601 0.690932
C4    C     C_R   0.771596 0.369176 0.885601 0.690577
O9    O     O_R   0.059070 0.845930 0.412970 -0.542492
O10   O     O_R   0.440930 0.154070 0.912970 -0.540948
O11   O     O_R   0.559070 0.654070 0.587030 -0.543714
O12   O     O_R   0.940930 0.345930 0.087030 -0.543558
O13   O     O_R   0.888760 0.665210 0.412340 -0.517006
O14   O     O_R   0.611240 0.334790 0.912340 -0.517207
O15   O     O_R   0.388760 0.834790 0.587660 -0.544045
O16   O     O_R   0.111240 0.165210 0.087660 -0.546052
C5    C     C_R   0.228061 0.868382 0.384943 0.691823
C6    C     C_R   0.271985 0.132064 0.884559 0.691242
C7    C     C_R   0.727627 0.632537 0.615739 0.667529
C8    C     C_R   0.772354 0.367462 0.115737 0.667771
O17   O     O_3   0.222280 0.690700 0.500000 -0.351707
O18   O     O_3   0.277720 0.309300 0.000000 -0.351816
O19   O     O_3   0.722280 0.809300 0.500000 -0.380160
O20   O     O_3   0.777720 0.190700 0.000000 -0.380448
V1    V     V_3+5 0.947430 0.761000 0.500000 1.446635
V2    V     V_3+5 0.552570 0.239000 0.000000 1.449871
V3    V     V_3+5 0.447430 0.739000 0.500000 1.442899
V4    V     V_3+5 0.052570 0.261000 0.000000 1.439045
C9    C     C_3   0.852507 0.602418 0.763034 -0.321915
C10   C     C_3   0.647752 0.397524 0.263111 -0.321715
C11   C     C_3   0.445762 0.960235 0.289720 -0.303587
C12   C     C_3   0.055550 0.048426 0.782675 -0.309289
H1    H     H_    0.993642 0.622895 0.741301 0.152545
H2    H     H_    0.506632 0.376935 0.241476 0.152538
H3    H     H_    0.521162 0.986891 0.346010 0.161753
H4    H     H_    0.967833 0.024881 0.836390 0.156337
H5    H     H_    0.783920 0.666067 0.787799 0.150154
H6    H     H_    0.716583 0.333933 0.287846 0.150397
H7    H     H_    0.517049 0.895427 0.269246 0.151500
H8    H     H_    0.997670 0.115711 0.760219 0.151220
C13   C     C_3   0.871713 0.529793 0.835110 -0.271985
C14   C     C_3   0.628506 0.470163 0.335181 -0.271771
C15   C     C_3   0.458656 0.032737 0.218272 -0.295929
C16   C     C_3   0.042452 0.976205 0.710988 -0.294414
H9    H     H_    0.824880 0.560722 0.895720 0.180794
H10   H     H_    0.675467 0.439274 0.395774 0.180901
H11   H     H_    0.543136 0.003808 0.165737 0.191286
H12   H     H_    0.971911 0.007999 0.655676 0.191673
H13   H     H_    0.020880 0.511591 0.843074 0.191256
H14   H     H_    0.479318 0.488301 0.343210 0.191388
H15   H     H_    0.533430 0.095160 0.241907 0.129925
H16   H     H_    0.954011 0.917289 0.732216 0.130545
H17   H     H_    0.974870 0.485615 0.636438 0.180043
H18   H     H_    0.524779 0.514242 0.136629 0.180208
H19   H     H_    0.214724 0.061719 0.393420 0.218617
H20   H     H_    0.252657 0.939374 0.893383 0.215417
H21   H     H_    0.984395 0.376703 0.741646 0.169820
H22   H     H_    0.515403 0.623224 0.241781 0.170397
H23   H     H_    0.226939 0.166894 0.285239 0.166566
H24   H     H_    0.241298 0.833889 0.785703 0.165347
C17   C     C_3   0.831153 0.471229 0.658745 -0.294234
C18   C     C_3   0.668543 0.528710 0.158800 -0.294008
C19   C     C_3   0.145158 0.031845 0.337224 -0.302182
C20   C     C_3   0.335988 0.965836 0.839650 -0.293265
C21   C     C_3   0.540905 0.538586 0.721698 -0.334382
C22   C     C_3   0.959101 0.461536 0.221555 -0.334330
C23   C     C_3   0.142538 0.900720 0.232949 -0.341723
C24   C     C_3   0.374585 0.095600 0.735219 -0.342249
C25   C     C_3   0.737707 0.562832 0.688010 0.038321
C26   C     C_3   0.762269 0.437167 0.188007 0.037738
C27   C     C_3   0.239794 0.938740 0.313105 0.037527
C28   C     C_3   0.260210 0.062079 0.812390 0.032337
H25   H     H_    0.457064 0.506382 0.670479 0.129510
H26   H     H_    0.042715 0.493807 0.170278 0.129528
H27   H     H_    0.993596 0.886665 0.246799 0.113552
H28   H     H_    0.522703 0.104656 0.753571 0.114708
H29   H     H_    0.467717 0.603480 0.740400 0.179671
H30   H     H_    0.032518 0.396690 0.240189 0.179514
H31   H     H_    0.206241 0.833073 0.215259 0.175028
H32   H     H_    0.323230 0.165008 0.715096 0.175205
C29   C     C_3   0.758253 0.440836 0.814734 0.026093
C30   C     C_3   0.741775 0.559167 0.314732 0.025120
C31   C     C_3   0.261919 0.060964 0.186635 0.044835
C32   C     C_3   0.238442 0.939795 0.685945 0.042950
C33   C     C_3   0.838111 0.399292 0.731799 -0.414894
C34   C     C_3   0.661686 0.600666 0.231842 -0.413360
C35   C     C_3   0.156031 0.102622 0.263376 -0.416030
C36   C     C_3   0.325388 0.894927 0.765906 -0.418265
C37   C     C_3   0.551885 0.470266 0.796951 0.278078
C38   C     C_3   0.948152 0.529830 0.296831 0.278020
C39   C     C_3   0.155911 0.971482 0.158791 0.272792
C40   C     C_3   0.362803 0.024456 0.661313 0.275214
H33   H     H_    0.469524 0.407458 0.780440 0.086372
H34   H     H_    0.030386 0.592676 0.280292 0.086429
H35   H     H_    0.012549 0.990882 0.139279 0.096276
H36   H     H_    0.505680 0.999214 0.647307 0.096171
H37   H     H_    0.753102 0.441463 0.604567 0.155725
H38   H     H_    0.746348 0.558497 0.104545 0.155793
H39   H     H_    0.997100 0.019790 0.354138 0.155911
H40   H     H_    0.482368 0.972250 0.861388 0.163058
H41   H     H_    0.757221 0.336560 0.713751 0.141750
H42   H     H_    0.742480 0.663406 0.213725 0.142040
H43   H     H_    0.012670 0.122714 0.244452 0.146964
H44   H     H_    0.467608 0.869015 0.751558 0.146611
Cl1   Cl    Cl    0.442251 0.521097 0.887946 -0.702228
Cl2   Cl    Cl    0.058009 0.479012 0.387750 -0.703142
Cl3   Cl    Cl    0.262340 0.917808 0.068997 -0.730366
Cl4   Cl    Cl    0.282164 0.080567 0.567377 -0.731496

loop_
_geom_bond_atom_site_label_1
_geom_bond_atom_site_label_2
_ccdc_geom_bond_type
O17   V3    S    
C32   C40   S    
O1    C5    A    
C31   C35   S    
O19   V1    S    
C9    C13   S    
C18   H38   S    
C21   H25   S    
C10   H6    S    
C17   H37   S    
C24   C28   S    
C11   C15   S    
C23   H27   S    
C19   H39   S    
C18   C34   S    
O7    C3    A    
C40   Cl4   S    
C11   C27   S    
C4    C29   S    
O9    V1    S    
C22   H26   S    
C22   C38   S    
O10   V2    S    
C21   C37   S    
C1    C32   S    
O4    C8    A    
C39   H35   S    
C23   C39   S    
C38   H34   S    
C3    C30   S    
C18   C26   S    
H22   C34   S    
O1    V3    S    
O13   V1    S    
O2    V4    S    
C1    O15   A    
O3    V1    S    
C22   C26   S    
C30   C38   S    
H19   C19   S    
O3    C7    A    
H18   C18   S    
C32   C36   S    
C2    O16   A    
C31   C39   S    
O2    C6    A    
C16   C32   S    
C21   C25   S    
C10   C14   S    
C6    C28   S    
C12   C28   S    
C23   H31   S    
O11   C7    A    
O15   V3    S    
O12   C8    A    
H23   C35   S    
C29   C37   S    
C7    C25   S    
H21   C33   S    
O5    V1    S    
C2    C31   S    
O7    V3    S    
O8    V4    S    
C35   H43   S    
C12   H4    S    
C34   H42   S    
C30   C34   S    
C17   C25   S    
C29   C33   S    
O18   V4    S    
C15   H11   S    
C38   Cl2   S    
C9    H1    S    
C15   C31   S    
C11   H3    S    
O5    C1    A    
C13   H9    S    
O8    C4    A    
C14   H14   S    
C19   C35   S    
O9    C5    A    
C20   C28   S    
C24   H32   S    
C10   C26   S    
O14   V2    S    
C9    C25   S    
O6    V2    S    
C12   H8    S    
C19   C27   S    
H24   C36   S    
C4    O14   A    
C37   H33   S    
C11   H7    S    
C15   H15   S    
O16   V4    S    
C16   H16   S    
C5    C27   S    
C3    O13   A    
C10   H2    S    
C20   H40   S    
H17   C17   S    
O6    C2    A    
O11   V3    S    
C17   C33   S    
O12   V4    S    
C14   H10   S    
C13   C29   S    
C9    H5    S    
O10   C6    A    
O20   V2    S    
C24   H28   S    
C39   Cl3   S    
C23   C27   S    
C8    C26   S    
C40   H36   S    
C20   C36   S    
C12   C16   S    
C22   H30   S    
C21   H29   S    
C13   H13   S    
C24   C40   S    
C16   H12   S    
H20   C20   S    
C33   H41   S    
C36   H44   S    
O4    V2    S    
C37   Cl1   S    
C14   C30   S    
