data_mof_unit_23881.cif
_audit_creation_date              2012-12-10T18:09:30-0500
_audit_creation_method            fapswitch 2.2
_symmetry_space_group_name_H-M    P1
_symmetry_Int_Tables_number       1
_space_group_crystal_system       triclinic
_cell_length_a                    15.204841
_cell_length_b                    15.156175
_cell_length_c                    9.43882
_cell_angle_alpha                 90.000013
_cell_angle_beta                  89.999989
_cell_angle_gamma                 89.943103
_cell_volume                      2175.14886083

loop_
_atom_site_label
_atom_site_type_symbol
_atom_type_description
_atom_site_fract_x
_atom_site_fract_y
_atom_site_fract_z
_atom_type_partial_charge
C1    C     C_R   0.119869 0.379600 0.499885 0.831782
C2    C     C_R   0.120400 0.619970 0.499852 0.868447
C3    C     C_R   0.619869 0.879600 0.500115 0.831782
C4    C     C_R   0.620400 0.119970 0.500148 0.868448
C5    C     C_3   0.063930 0.565887 0.083825 1.081700
C6    C     C_3   0.063818 0.565971 0.916308 1.111502
C7    C     C_3   0.563819 0.065970 0.083693 1.111498
C8    C     C_3   0.563931 0.065886 0.916175 1.081701
C9    C     C_R   0.880796 0.379242 0.500244 0.816890
C10   C     C_R   0.880137 0.620169 0.500230 0.827231
C11   C     C_R   0.380796 0.879242 0.499756 0.816890
C12   C     C_R   0.380137 0.120169 0.499770 0.827231
C13   C     C_3   0.795245 0.276448 0.654044 -0.403947
C14   C     C_3   0.840750 0.230931 0.408138 -0.372284
C15   C     C_3   0.787269 0.715834 0.655135 -0.371903
C16   C     C_3   0.843324 0.771863 0.420505 -0.329209
C17   C     C_3   0.340751 0.730931 0.591858 -0.372282
C18   C     C_3   0.295244 0.776450 0.345956 -0.403948
C19   C     C_3   0.343324 0.271863 0.579495 -0.329208
C20   C     C_3   0.287269 0.215834 0.344865 -0.371903
C21   C     C_3   0.268576 0.659479 0.592248 -0.430043
C22   C     C_3   0.224272 0.704831 0.346415 -0.362230
C23   C     C_3   0.271379 0.343705 0.579152 -0.456223
C24   C     C_3   0.215925 0.287138 0.345125 -0.433082
C25   C     C_3   0.724274 0.204829 0.653584 -0.362230
C26   C     C_3   0.768575 0.159480 0.407749 -0.430040
C27   C     C_3   0.715925 0.787138 0.654875 -0.433081
C28   C     C_3   0.771379 0.843705 0.420848 -0.456223
C29   C     C_3   0.725105 0.348868 0.441946 -0.440667
C30   C     C_3   0.726817 0.653229 0.427929 -0.427567
C31   C     C_3   0.225105 0.848868 0.558057 -0.440667
C32   C     C_3   0.226817 0.153229 0.572071 -0.427567
C33   C     C_3   0.812024 0.310272 0.501061 -0.001421
C34   C     C_3   0.810914 0.688834 0.500940 -0.024622
C35   C     C_3   0.312023 0.810272 0.498939 -0.001422
C36   C     C_3   0.310914 0.188834 0.499060 -0.024622
C37   C     C_3   0.189581 0.689072 0.499415 -0.081513
C38   C     C_3   0.188574 0.310197 0.499618 -0.021605
C39   C     C_3   0.689581 0.189072 0.500585 -0.081513
C40   C     C_3   0.688574 0.810197 0.500382 -0.021605
C41   C     C_3   0.152320 0.777664 0.557996 1.118278
C42   C     C_3   0.154238 0.224847 0.573236 1.097329
C43   C     C_3   0.652320 0.277664 0.442008 1.118276
C44   C     C_3   0.654238 0.724846 0.426764 1.097329
C45   C     C_3   0.912897 0.520797 0.083606 -0.336581
C46   C     C_3   0.912870 0.520668 0.916436 -0.353159
C47   C     C_3   0.026080 0.412399 0.083610 -0.342447
C48   C     C_3   0.026209 0.412443 0.916361 -0.302971
C49   C     C_3   0.412870 0.020669 0.083564 -0.353158
C50   C     C_3   0.412897 0.020798 0.916394 -0.336581
C51   C     C_3   0.526208 0.912443 0.083639 -0.302971
C52   C     C_3   0.526079 0.912399 0.916390 -0.342446
Cu1   Cu    Cu3+1 0.000100 0.500000 0.642410 1.025849
Cu2   Cu    Cu3+1 0.000100 0.500000 0.357590 0.998822
Cu3   Cu    Cu3+1 0.500100 0.000000 0.642410 0.998823
Cu4   Cu    Cu3+1 0.500100 0.000000 0.357590 1.025848
H1    H     H_    0.773523 0.331788 0.723409 0.194422
H2    H     H_    0.853273 0.252872 0.297412 0.194269
H3    H     H_    0.763158 0.657489 0.715384 0.183176
H4    H     H_    0.860306 0.754703 0.309133 0.214578
H5    H     H_    0.353275 0.752870 0.702585 0.194270
H6    H     H_    0.273521 0.831790 0.276593 0.194422
H7    H     H_    0.360306 0.254703 0.690867 0.214578
H8    H     H_    0.263158 0.157488 0.284616 0.183176
H9    H     H_    0.857031 0.249086 0.699817 0.214954
H10   H     H_    0.903124 0.202439 0.449538 0.239687
H11   H     H_    0.846634 0.741358 0.710742 0.231130
H12   H     H_    0.903875 0.798025 0.471559 0.246204
H13   H     H_    0.403124 0.702438 0.550457 0.239688
H14   H     H_    0.357029 0.749088 0.300180 0.214953
H15   H     H_    0.403875 0.298025 0.528441 0.246203
H16   H     H_    0.346633 0.241358 0.289258 0.231129
H17   H     H_    0.296063 0.596299 0.551397 0.183922
H18   H     H_    0.252405 0.642643 0.302897 0.238023
H19   H     H_    0.297020 0.404371 0.527083 0.189272
H20   H     H_    0.241365 0.347000 0.290361 0.215769
H21   H     H_    0.752407 0.142641 0.697100 0.238020
H22   H     H_    0.796063 0.096299 0.448597 0.183922
H23   H     H_    0.741365 0.847000 0.709639 0.215769
H24   H     H_    0.797020 0.904370 0.472917 0.189272
H25   H     H_    0.246998 0.647569 0.703146 0.277211
H26   H     H_    0.169742 0.725613 0.275251 0.278706
H27   H     H_    0.254644 0.361548 0.690319 0.232680
H28   H     H_    0.158109 0.263204 0.283823 0.213422
H29   H     H_    0.669744 0.225610 0.724751 0.278707
H30   H     H_    0.746996 0.147571 0.296851 0.277211
H31   H     H_    0.658109 0.763204 0.716177 0.213422
H32   H     H_    0.754644 0.861547 0.309681 0.232681
H33   H     H_    0.704229 0.406346 0.507316 0.164922
H34   H     H_    0.735615 0.373772 0.332269 0.180735
H35   H     H_    0.703063 0.593424 0.484687 0.165121
H36   H     H_    0.742124 0.632684 0.317389 0.178054
H37   H     H_    0.235617 0.873771 0.667735 0.180735
H38   H     H_    0.204228 0.906347 0.492689 0.164921
H39   H     H_    0.242124 0.132685 0.682611 0.178053
H40   H     H_    0.203062 0.093424 0.515313 0.165121
H41   H     H_    0.890246 0.586519 0.120855 0.213625
H42   H     H_    0.890089 0.586289 0.879066 0.211244
H43   H     H_    0.092568 0.392812 0.120837 0.213158
H44   H     H_    0.092825 0.393084 0.879352 0.243690
H45   H     H_    0.390090 0.086290 0.120934 0.211245
H46   H     H_    0.390246 0.086520 0.879145 0.213625
H47   H     H_    0.592823 0.893083 0.120648 0.243691
H48   H     H_    0.592566 0.892811 0.879163 0.213158
H49   H     H_    0.863679 0.472423 0.123077 0.191639
H50   H     H_    0.863738 0.472142 0.877178 0.189414
H51   H     H_    0.980163 0.360837 0.123039 0.194272
H52   H     H_    0.980481 0.360785 0.876673 0.209149
H53   H     H_    0.363738 0.972144 0.122822 0.189414
H54   H     H_    0.363679 0.972425 0.876923 0.191639
H55   H     H_    0.480479 0.860786 0.123327 0.209148
H56   H     H_    0.480161 0.860837 0.876961 0.194272
N1    N     N_3   0.001260 0.500000 0.143650 -0.223040
N2    N     N_3   0.001260 0.500000 0.856350 -0.242259
N3    N     N_3   0.501260 0.000000 0.143650 -0.242258
N4    N     N_3   0.501260 0.000000 0.856350 -0.223040
O1    O     O_R   0.091250 0.408820 0.620260 -0.551336
O2    O     O_R   0.091250 0.408820 0.379740 -0.590219
O3    O     O_R   0.091250 0.591180 0.620260 -0.479994
O4    O     O_R   0.091250 0.591180 0.379740 -0.509786
O5    O     O_R   0.591250 0.908820 0.620260 -0.590219
O6    O     O_R   0.591250 0.908820 0.379740 -0.551335
O7    O     O_R   0.591250 0.091180 0.620260 -0.509785
O8    O     O_R   0.591250 0.091180 0.379740 -0.479995
O9    O     O_R   0.908940 0.408800 0.620260 -0.598216
O10   O     O_R   0.908940 0.408800 0.379740 -0.603268
O11   O     O_R   0.908940 0.591200 0.620260 -0.577781
O12   O     O_R   0.908940 0.591200 0.379740 -0.580233
O13   O     O_R   0.408940 0.908800 0.620260 -0.603268
O14   O     O_R   0.408940 0.908800 0.379740 -0.598216
O15   O     O_R   0.408940 0.091200 0.620260 -0.580233
O16   O     O_R   0.408940 0.091200 0.379740 -0.577782
F1    F     F_    0.121652 0.766689 0.695081 -0.598176
F2    F     F_    0.082599 0.805795 0.474649 -0.686862
F3    F     F_    0.130558 0.242427 0.712352 -0.688892
F4    F     F_    0.080504 0.193601 0.502854 -0.703658
F5    F     F_    0.582600 0.305794 0.525358 -0.686860
F6    F     F_    0.621650 0.266691 0.304923 -0.598178
F7    F     F_    0.580504 0.693601 0.497147 -0.703658
F8    F     F_    0.630558 0.742427 0.287648 -0.688892
F9    F     F_    0.041786 0.649531 0.132028 -0.641369
F10   F     F_    0.041270 0.649540 0.868661 -0.585317
F11   F     F_    0.148337 0.547336 0.131299 -0.667578
F12   F     F_    0.148226 0.547828 0.868464 -0.660818
F13   F     F_    0.541272 0.149539 0.131339 -0.585318
F14   F     F_    0.541788 0.149530 0.867973 -0.641368
F15   F     F_    0.648227 0.047826 0.131535 -0.660820
F16   F     F_    0.648337 0.047334 0.868701 -0.667578

loop_
_geom_bond_atom_site_label_1
_geom_bond_atom_site_label_2
_ccdc_geom_bond_type
C16   C28   S    
Cu3   Cu4   S    
Cu3   O5    S    
C17   H13   S    
C12   O15   A    
Cu2   O4    S    
C19   H15   S    
C52   H56   S    
C13   C25   S    
C14   C33   S    
C41   F1    S    
C18   H14   S    
C7    C8    S    
C13   H9    S    
C45   C46   S    
Cu2   O10   S    
C26   H22   S    
C23   H27   S    
C49   N3    S    
C25   H21   S    
C32   C36   S    
C49   H53   S    
C38   C42   S    
C27   H23   S    
C19   C36   S    
C49   H45   S    
C5    C6    S    
Cu1   O1    S    
C26   C39   S    
C5    F11   S    
C13   H1    S    
Cu3   N4    S    
C28   C40   S    
C51   H47   S    
Cu2   N1    S    
C21   H17   S    
C50   H54   S    
C47   H43   S    
C4    O8    A    
C43   F6    S    
C42   F4    S    
C16   H4    S    
C7    N3    S    
C41   F2    S    
Cu1   O11   S    
C17   H5    S    
C15   C27   S    
C6    N2    S    
C20   C24   S    
C29   C33   S    
C19   H7    S    
Cu3   O13   S    
C28   H32   S    
C24   C38   S    
C16   H12   S    
C12   C36   S    
C12   O16   A    
C18   C35   S    
C15   C34   S    
Cu4   O8    S    
C3    O6    A    
C16   C34   S    
C46   H42   S    
C44   F8    S    
C29   C43   S    
C9    C33   S    
C30   C44   S    
C8    F16   S    
C14   H2    S    
C11   O13   A    
C29   H33   S    
C29   H34   S    
C45   H49   S    
C7    F15   S    
C52   N4    S    
C48   H44   S    
Cu3   O7    S    
C46   N2    S    
C51   C52   S    
C18   H6    S    
C30   H36   S    
C30   C34   S    
C24   H20   S    
C39   C43   S    
Cu1   Cu2   S    
C22   C37   S    
Cu2   O12   S    
C9    O9    A    
C4    O7    A    
C42   F3    S    
Cu4   O6    S    
C20   H8    S    
C19   C23   S    
C13   C33   S    
C5    F9    S    
C47   C48   S    
C4    C39   S    
C27   C40   S    
C26   H30   S    
C15   H11   S    
C25   H29   S    
C14   H10   S    
C10   C34   S    
C1    O1    A    
C14   C26   S    
C27   H31   S    
Cu4   O16   S    
Cu1   O9    S    
C1    C38   S    
C32   H40   S    
C21   H25   S    
C3    C40   S    
C50   H46   S    
C44   F7    S    
C47   H51   S    
Cu2   O2    S    
C31   C35   S    
C6    F10   S    
C22   H18   S    
C6    F12   S    
C10   O11   A    
C23   C38   S    
C11   O14   A    
C22   H26   S    
Cu1   N2    S    
C48   N2    S    
C47   N1    S    
C52   H48   S    
C51   H55   S    
C31   C41   S    
C5    N1    S    
C18   C22   S    
C15   H3    S    
C8    F14   S    
C23   H19   S    
C30   H35   S    
C2    O3    A    
Cu1   O3    S    
C10   O12   A    
C31   H38   S    
Cu3   O15   S    
C9    O10   A    
C51   N3    S    
C11   C35   S    
C24   H28   S    
C31   H37   S    
C25   C39   S    
C2    C37   S    
C48   H52   S    
C46   H50   S    
Cu4   N3    S    
C43   F5    S    
C50   N4    S    
C1    O2    A    
C37   C41   S    
C28   H24   S    
C17   C21   S    
C8    N4    S    
C20   C36   S    
C45   N1    S    
C40   C44   S    
C32   H39   S    
C21   C37   S    
C49   C50   S    
C32   C42   S    
C20   H16   S    
C45   H41   S    
C17   C35   S    
C2    O4    A    
Cu4   O14   S    
C3    O5    A    
C7    F13   S    
