data_mof_unit_47632.cif
_audit_creation_date              2012-12-10T18:33:43-0500
_audit_creation_method            fapswitch 2.2
_symmetry_space_group_name_H-M    P1
_symmetry_Int_Tables_number       1
_space_group_crystal_system       triclinic
_cell_length_a                    10.521297
_cell_length_b                    15.059479
_cell_length_c                    15.646747
_cell_angle_alpha                 82.220284
_cell_angle_beta                  89.828544
_cell_angle_gamma                 104.39728
_cell_volume                      2377.45731935

loop_
_atom_site_label
_atom_site_type_symbol
_atom_type_description
_atom_site_fract_x
_atom_site_fract_y
_atom_site_fract_z
_atom_type_partial_charge
C1    C     C_R   0.480461 0.441818 0.661518 0.870250
C2    C     C_R   0.491240 0.485642 0.044778 0.010570
C3    C     C_R   0.446363 0.389784 0.075616 -0.322964
C4    C     C_R   0.553633 0.610215 0.924384 -0.322983
C5    C     C_R   0.436606 0.322417 0.020970 0.441876
C6    C     C_R   0.563388 0.677583 0.979030 0.441883
C7    C     C_R   0.687088 0.842804 0.639905 -0.336226
C8    C     C_R   0.312909 0.157195 0.360096 -0.336212
C9    C     C_R   0.661109 0.755158 0.615995 0.308767
C10   C     C_R   0.338890 0.244842 0.384006 0.308773
C11   C     C_R   0.514514 0.793786 0.510499 -0.111741
C12   C     C_R   0.519538 0.558182 0.338482 0.870251
C13   C     C_R   0.485485 0.206214 0.489502 -0.111743
C14   C     C_R   0.540745 0.885408 0.530720 0.000861
C15   C     C_R   0.459252 0.114591 0.469282 0.000862
C16   C     C_R   0.742396 0.500626 0.500041 0.870545
C17   C     C_R   0.257604 0.499374 0.499959 0.870544
C18   C     C_R   0.627622 0.908080 0.597875 0.141727
C19   C     C_R   0.372374 0.091919 0.402127 0.141722
C20   C     C_R   0.484561 0.954733 0.487189 0.091929
C21   C     C_R   0.515434 0.045266 0.512813 0.091932
C22   C     C_R   0.600591 0.063295 0.581354 -0.235279
C23   C     C_R   0.479587 0.471450 0.810446 -0.203026
C24   C     C_R   0.399403 0.936704 0.418649 -0.235273
C25   C     C_R   0.655855 0.995878 0.622656 -0.197240
C26   C     C_R   0.344139 0.004120 0.377347 -0.197234
C27   C     C_3   0.930007 0.420894 0.475288 -0.118857
C28   C     C_3   0.069993 0.579106 0.524712 -0.118856
C29   C     C_3   0.015191 0.427183 0.555406 -0.186730
C30   C     C_3   0.984809 0.572816 0.444594 -0.186729
C31   C     C_3   0.122072 0.499223 0.499893 0.018351
C32   C     C_3   0.877928 0.500777 0.500107 0.018351
C33   C     C_3   0.039529 0.493178 0.419845 -0.164041
C34   C     C_R   0.520411 0.528550 0.189554 -0.203028
C35   C     C_3   0.960471 0.506822 0.580155 -0.164041
C36   C     C_R   0.468909 0.406988 0.753549 -0.053775
C37   C     C_R   0.531089 0.593012 0.246451 -0.053774
C38   C     C_R   0.439305 0.284653 0.874343 -0.153242
C39   C     C_R   0.560691 0.715346 0.125658 -0.153233
C40   C     C_R   0.449716 0.313033 0.785416 -0.227618
C41   C     C_R   0.550281 0.686967 0.214584 -0.227625
C42   C     C_3   0.482245 0.202196 0.111847 0.096416
C43   C     C_3   0.445237 0.097257 0.133809 -0.808188
C44   C     C_3   0.517769 0.797800 0.888132 0.096429
C45   C     C_R   0.482909 0.446275 0.899042 0.055372
C46   C     C_3   0.554744 0.902742 0.866189 -0.808221
C47   C     C_R   0.517089 0.553725 0.100958 0.055368
C48   C     C_R   0.454124 0.350560 0.931878 0.065313
C49   C     C_R   0.545872 0.649440 0.068122 0.065326
C50   C     C_R   0.508757 0.514358 0.955222 0.010579
H1    H     H_    0.031956 0.367823 0.600288 0.145043
H2    H     H_    0.130483 0.643880 0.544970 0.157190
H3    H     H_    0.075798 0.487857 0.354528 0.165927
H4    H     H_    0.924202 0.512143 0.645472 0.165928
H5    H     H_    0.518847 0.458404 0.215617 0.167053
H6    H     H_    0.481151 0.541596 0.784383 0.167052
H7    H     H_    0.559463 0.738254 0.258012 0.161808
H8    H     H_    0.440535 0.261746 0.741988 0.161807
H9    H     H_    0.420170 0.211343 0.897787 0.182180
H10   H     H_    0.579825 0.788656 0.102214 0.182187
H11   H     H_    0.413867 0.364856 0.141761 0.177485
H12   H     H_    0.968044 0.632177 0.399711 0.145043
H13   H     H_    0.586131 0.635142 0.858240 0.177473
H14   H     H_    0.721701 0.012791 0.674575 0.146311
H15   H     H_    0.278291 0.987207 0.325429 0.146305
H16   H     H_    0.478389 0.231546 0.173030 0.152236
H17   H     H_    0.584559 0.224280 0.083626 0.138133
H18   H     H_    0.450566 0.065043 0.074531 0.250524
H19   H     H_    0.513960 0.075336 0.181033 0.212059
H20   H     H_    0.343830 0.073048 0.162623 0.255923
H21   H     H_    0.415438 0.775694 0.916325 0.138138
H22   H     H_    0.521684 0.768467 0.826946 0.152245
H23   H     H_    0.552415 0.230738 0.537906 0.137971
H24   H     H_    0.656180 0.926974 0.837424 0.255943
H25   H     H_    0.486067 0.924659 0.818927 0.212065
H26   H     H_    0.549317 0.934938 0.925466 0.250513
H27   H     H_    0.447584 0.769262 0.462095 0.137970
H28   H     H_    0.754831 0.860083 0.690763 0.175637
H29   H     H_    0.245166 0.139916 0.309239 0.175633
H30   H     H_    0.627085 0.128977 0.605113 0.137333
H31   H     H_    0.372907 0.871021 0.394891 0.137332
H32   H     H_    0.869517 0.356120 0.455030 0.157190
I1    I     I_    0.233333 0.333970 0.317637 -0.407388
I2    I     I_    0.766668 0.666031 0.682362 -0.407398
N1    N     N_R   0.574200 0.731700 0.552740 -0.115904
N2    N     N_R   0.425800 0.268300 0.447260 -0.115906
O1    O     O_R   0.462600 0.383110 0.605620 -0.624474
O2    O     O_3   0.607403 0.771006 0.947165 -0.610073
O3    O     O_R   0.537400 0.616890 0.394380 -0.624473
O4    O     O_R   0.510210 0.531900 0.639510 -0.600586
O5    O     O_R   0.489790 0.468100 0.360490 -0.600586
O6    O     O_R   0.662240 0.425610 0.483080 -0.635216
O7    O     O_R   0.337760 0.574390 0.516920 -0.635216
O8    O     O_R   0.709860 0.574400 0.516970 -0.585339
O9    O     O_R   0.290140 0.425600 0.483030 -0.585340
O10   O     O_3   0.392587 0.228996 0.052837 -0.610066
Zn1   Zn    Zn3+2 0.468210 0.400660 0.477370 0.963102
Zn2   Zn    Zn3+2 0.531790 0.599340 0.522630 0.963102

loop_
_geom_bond_atom_site_label_1
_geom_bond_atom_site_label_2
_ccdc_geom_bond_type
C1    O1    A    
C30   C32   S    
C1    O4    A    
C23   C45   A    
C27   C29   S    
C34   C37   A    
C14   C18   A    
C12   O5    A    
C46   H26   S    
C23   H6    S    
C39   C41   A    
C27   C33   S    
C15   C19   A    
C4    H13   S    
C42   O10   S    
C24   C26   A    
C11   C14   A    
O8    Zn2   S    
C10   I1    S    
C6    O2    S    
C44   H21   S    
C12   C37   S    
C19   C26   A    
N2    Zn1   S    
N1    Zn2   S    
C2    C50   A    
C9    N1    A    
C20   C24   A    
C28   C35   S    
C43   H18   S    
C22   C25   A    
C13   N2    A    
C8    H29   S    
C31   C33   S    
C17   O9    A    
C11   H27   S    
C38   C48   A    
C34   H5    S    
C43   H19   S    
C21   C22   A    
C35   H4    S    
C18   C25   A    
C46   H25   S    
C44   C46   S    
O6    Zn1   S    
C3    H11   S    
C33   H3    S    
C5    C48   A    
C8    C19   A    
C40   H8    S    
C32   C35   S    
C14   C20   A    
C12   O3    A    
C36   C40   A    
C47   C49   A    
C4    C50   A    
C25   H14   S    
C24   H31   S    
C28   C31   S    
C7    C18   A    
O5    Zn1   S    
C7    H28   S    
C4    C6    A    
C39   C49   A    
C13   H23   S    
C16   O6    A    
C43   H20   S    
C13   C15   A    
C42   H17   S    
C17   C31   S    
C17   O7    A    
C42   C43   S    
C46   H24   S    
C5    O10   S    
C29   H1    S    
C45   C48   A    
C7    C9    A    
C10   N2    A    
C30   C33   S    
C27   C32   S    
C26   H15   S    
C27   H32   S    
C3    C5    A    
O9    Zn1   S    
C2    C47   A    
C16   C32   S    
C29   C35   S    
C16   O8    A    
O3    Zn2   S    
C30   H12   S    
C2    C3    A    
C22   H30   S    
C29   C31   S    
C38   C40   A    
C28   H2    S    
C45   C50   A    
C11   N1    A    
C39   H10   S    
C28   C30   S    
C44   H22   S    
C6    C49   A    
C37   C41   A    
C9    I2    S    
C41   H7    S    
C38   H9    S    
C15   C21   A    
C20   C21   A    
C8    C10   A    
C23   C36   A    
C42   H16   S    
C34   C47   A    
C44   O2    S    
O7    Zn2   S    
O4    Zn2   S    
C1    C36   S    
O1    Zn1   S    
