data_mof_unit_48219.cif
_audit_creation_date              2012-12-10T21:31:59-0500
_audit_creation_method            fapswitch 2.2
_symmetry_space_group_name_H-M    P1
_symmetry_Int_Tables_number       1
_space_group_crystal_system       triclinic
_cell_length_a                    15.456615
_cell_length_b                    16.157642
_cell_length_c                    16.449751
_cell_angle_alpha                 94.006437
_cell_angle_beta                  89.054769
_cell_angle_gamma                 110.222995
_cell_volume                      3845.39918596

loop_
_atom_site_label
_atom_site_type_symbol
_atom_type_description
_atom_site_fract_x
_atom_site_fract_y
_atom_site_fract_z
_atom_type_partial_charge
C1    C     C_R   0.503452 0.488907 0.346393 0.929356
C2    C     C_R   0.495882 0.510820 0.653551 0.909417
C3    C     C_R   0.896753 0.396849 0.534199 -0.231307
C4    C     C_R   0.098389 0.603261 0.551102 -0.230785
C5    C     C_R   0.937859 0.332340 0.538843 0.434934
C6    C     C_R   0.056920 0.667829 0.561059 0.451194
C7    C     C_R   0.517258 0.482519 0.258932 -0.317348
C8    C     C_R   0.477919 0.515385 0.740426 -0.297948
C9    C     C_R   0.582889 0.551830 0.219294 0.342470
C10   C     C_R   0.411555 0.444213 0.777313 0.326684
C11   C     C_R   0.588923 0.544729 0.134185 0.366342
C12   C     C_R   0.402026 0.448764 0.862163 0.310687
C13   C     C_R   0.528893 0.469362 0.089850 -0.013224
C14   C     C_R   0.458533 0.524218 0.908874 0.005984
C15   C     C_R   0.473224 0.395970 0.130766 0.448087
C16   C     C_R   0.513640 0.599687 0.870274 0.456051
C17   C     C_R   0.466784 0.403919 0.214927 -0.198342
C18   C     C_R   0.524351 0.593820 0.786447 -0.203785
C19   C     C_R   0.532959 0.777930 0.550100 0.419818
C20   C     C_R   0.465621 0.221310 0.451006 0.428243
C21   C     C_R   0.523899 0.861479 0.553731 0.322986
C22   C     C_R   0.476290 0.138452 0.446611 0.311864
C23   C     C_R   0.326183 0.444901 0.501902 0.918171
C24   C     C_R   0.673540 0.555047 0.497977 0.926057
C25   C     C_R   0.476251 0.883477 0.490753 0.021667
C26   C     C_R   0.528087 0.118112 0.507335 0.023880
C27   C     C_R   0.431199 0.817197 0.430245 0.226145
C28   C     C_R   0.575813 0.185674 0.565809 0.235498
C29   C     C_R   0.439355 0.731640 0.430513 0.432832
C30   C     C_R   0.565017 0.270253 0.566853 0.399412
C31   C     C_R   0.225636 0.411380 0.510563 -0.154327
C32   C     C_R   0.773512 0.590474 0.508590 -0.139539
C33   C     C_R   0.086031 0.304100 0.562282 0.438222
C34   C     C_R   0.907561 0.697116 0.578616 0.439908
C35   C     C_R   0.180576 0.330997 0.544982 -0.336061
C36   C     C_R   0.815539 0.671260 0.552780 -0.327997
C37   C     C_R   0.176696 0.467019 0.495258 0.413110
C38   C     C_R   0.822768 0.533935 0.490088 0.420868
C39   C     C_R   0.086658 0.447392 0.524990 -0.102924
C40   C     C_R   0.910152 0.553210 0.525736 -0.098248
C41   C     C_R   0.035578 0.359207 0.542694 -0.129674
C42   C     C_R   0.959373 0.641392 0.555983 -0.142388
C43   C     C_R   0.045790 0.513021 0.535338 0.018369
C44   C     C_R   0.950038 0.487283 0.531244 0.027824
H1    H     H_    0.774226 0.710986 0.572447 0.195078
H2    H     H_    0.220313 0.291255 0.562064 0.200943
H3    H     H_    0.822266 0.375751 0.534092 0.233513
H4    H     H_    0.172576 0.624009 0.557219 0.228878
H5    H     H_    0.420131 0.349056 0.245977 0.233744
H6    H     H_    0.571141 0.650193 0.757348 0.234884
N1    N     N_2   0.514940 0.471282 0.005879 -0.072667
N2    N     N_2   0.470842 0.520787 0.992917 -0.089982
N3    N     N_R   0.489120 0.713640 0.490430 -0.206599
N4    N     N_R   0.510880 0.286360 0.509570 -0.200613
N5    N     N_2   0.466821 0.968698 0.488991 -0.076114
N6    N     N_2   0.537910 0.032986 0.509137 -0.063629
O1    O     O_R   0.503890 0.423710 0.387290 -0.612543
O2    O     O_R   0.496110 0.576290 0.612710 -0.623031
O3    O     O_R   0.496910 0.560910 0.381140 -0.536575
O4    O     O_R   0.503090 0.439090 0.618860 -0.541236
O5    O     O_R   0.373240 0.392210 0.504830 -0.677864
O6    O     O_R   0.626760 0.607790 0.495170 -0.673211
O7    O     O_R   0.366260 0.529410 0.498680 -0.506272
O8    O     O_R   0.633740 0.470590 0.501320 -0.506452
Zn1   Zn    Zn3+2 0.504660 0.408390 0.504100 1.031033
Zn2   Zn    Zn3+2 0.495340 0.591610 0.495900 1.031650
S1    S     S_3+6 0.866126 0.221789 0.512035 0.095614
O9    O     O_2   0.918932 0.174865 0.461140 -0.221008
O10   O     O_2   0.830459 0.173272 0.587052 -0.175344
O11   O     O_3   0.775476 0.222293 0.457043 -0.559695
H7    H     H_    0.737011 0.159196 0.446859 0.399588
S2    S     S_3+6 0.131232 0.778744 0.553694 0.095634
O12   O     O_2   0.084698 0.828330 0.506764 -0.216171
O13   O     O_2   0.158727 0.823871 0.637017 -0.195714
O14   O     O_3   0.227329 0.779597 0.503985 -0.566805
H8    H     H_    0.266886 0.842748 0.505956 0.408003
O15   O     O_3   0.411190 0.235608 0.392195 -0.664839
H9    H     H_    0.391390 0.284635 0.412749 0.369060
O16   O     O_3   0.584920 0.762312 0.610233 -0.676135
H10   H     H_    0.607880 0.715657 0.588579 0.361474
O17   O     O_3   0.437235 0.080615 0.380652 -0.608675
H11   H     H_    0.477511 0.045805 0.365870 0.375117
O18   O     O_3   0.560910 0.918504 0.620730 -0.604883
H12   H     H_    0.522280 0.955521 0.632877 0.374366
O19   O     O_3   0.378724 0.837831 0.373139 -0.676342
H13   H     H_    0.328481 0.783214 0.353674 0.377000
O20   O     O_3   0.633239 0.167254 0.619628 -0.650748
H14   H     H_    0.683037 0.222932 0.637392 0.372391
O21   O     O_3   0.398397 0.665491 0.371381 -0.657014
H15   H     H_    0.397183 0.692664 0.319506 0.343280
O22   O     O_3   0.608107 0.337519 0.624389 -0.699177
H16   H     H_    0.613282 0.311284 0.675899 0.341681
O23   O     O_3   0.785444 0.462863 0.433940 -0.731074
H17   H     H_    0.836502 0.448602 0.406228 0.360455
O24   O     O_3   0.216128 0.536757 0.446580 -0.701059
H18   H     H_    0.166419 0.549752 0.418599 0.357830
S3    S     S_3+6 0.045505 0.220881 0.632619 0.146299
O25   O     O_2   0.976606 0.240550 0.689059 -0.182008
O26   O     O_2   0.001785 0.131567 0.588636 -0.179047
O27   O     O_3   0.134152 0.218605 0.689513 -0.465340
H19   H     H_    0.157628 0.175180 0.660066 0.375215
S4    S     S_3+6 0.939567 0.778154 0.661789 0.136958
O28   O     O_2   0.001267 0.756272 0.719852 -0.187920
O29   O     O_2   0.988173 0.868529 0.632406 -0.173398
O30   O     O_3   0.844754 0.779501 0.713019 -0.501592
H20   H     H_    0.825012 0.824114 0.687886 0.389131
O31   O     O_3   0.355039 0.370061 0.732702 -0.700238
H21   H     H_    0.347054 0.385841 0.676989 0.339284
O32   O     O_3   0.641984 0.626610 0.261293 -0.650855
H22   H     H_    0.650424 0.612931 0.317669 0.340866
S5    S     S_3+6 0.315895 0.361223 0.907921 0.147239
O33   O     O_2   0.301260 0.386248 0.995427 -0.203840
O34   O     O_2   0.226276 0.339122 0.862437 -0.160949
O35   O     O_3   0.347504 0.271329 0.902990 -0.490603
H23   H     H_    0.340132 0.249173 0.844938 0.399559
S6    S     S_3+6 0.674932 0.629047 0.084847 0.131143
O36   O     O_2   0.649263 0.710850 0.089738 -0.225243
O37   O     O_2   0.765577 0.649456 0.128154 -0.188389
O38   O     O_3   0.686764 0.597997 0.986759 -0.516023
H24   H     H_    0.732701 0.650609 0.964309 0.417182
O39   O     O_3   0.421270 0.317078 0.090483 -0.629195
H25   H     H_    0.444784 0.315205 0.034314 0.393320
O40   O     O_3   0.561479 0.678609 0.912734 -0.657671
H26   H     H_    0.535567 0.678235 0.968205 0.384180

loop_
_geom_bond_atom_site_label_1
_geom_bond_atom_site_label_2
_ccdc_geom_bond_type
O20   H14   S    
O23   H17   S    
C27   C29   A    
O24   H18   S    
C34   C42   A    
C5    S1    S    
C29   O21   S    
S3    O25   D    
O40   H26   S    
C39   C41   A    
N4    Zn1   S    
O15   H9    S    
C6    S2    S    
C30   N4    A    
C34   S4    S    
C20   O15   S    
C32   C36   A    
C19   C21   A    
C16   O40   S    
C1    O3    A    
O3    Zn2   S    
C2    O4    A    
N5    N6    D    
S6    O36   D    
C37   O24   S    
S4    O30   S    
C15   C17   A    
C3    H3    S    
C27   O19   S    
C21   C25   A    
C13   N1    S    
O2    Zn2   S    
C14   N2    S    
C21   O18   S    
C7    C17   A    
O31   H21   S    
O11   H7    S    
C14   C16   A    
C32   C38   A    
C33   S3    S    
C19   N3    A    
C23   O7    A    
O7    Zn2   S    
C24   O8    A    
C10   O31   S    
S2    O14   S    
S3    O26   D    
O17   H11   S    
C9    O32   S    
C3    C44   A    
O6    Zn2   S    
S1    O9    D    
C22   O17   S    
S2    O13   D    
C17   H5    S    
O22   H16   S    
S2    O12   D    
C39   C43   A    
O19   H13   S    
C8    C18   A    
N1    N2    D    
S1    O10   D    
C23   C31   S    
C19   O16   S    
O14   H8    S    
C24   C32   S    
C11   S6    S    
C1    O1    A    
O18   H12   S    
C23   O5    A    
O1    Zn1   S    
C28   O20   S    
C36   H1    S    
S5    O34   D    
S4    O29   D    
N3    Zn2   S    
C9    C11   A    
O39   H25   S    
C10   C12   A    
C20   N4    A    
C12   C14   A    
O4    Zn1   S    
C13   C15   A    
C43   C44   A    
C22   C26   A    
C31   C35   A    
C4    C6    A    
S3    O27   S    
C18   H6    S    
C4    H4    S    
C7    C9    A    
C5    C41   A    
C24   O6    A    
C15   O39   S    
S5    O33   D    
C1    C7    S    
C8    C10   A    
C2    C8    S    
C25   N5    S    
C20   C22   A    
C30   O22   S    
C3    C5    A    
C26   N6    S    
O38   H24   S    
C2    O2    A    
O35   H23   S    
C4    C43   A    
C25   C27   A    
O30   H20   S    
C26   C28   A    
S6    O38   S    
S1    O11   S    
C33   C41   A    
O8    Zn1   S    
C28   C30   A    
C37   C39   A    
O32   H22   S    
C38   C40   A    
C11   C13   A    
C29   N3    A    
C38   O23   S    
C40   C42   A    
O27   H19   S    
C33   C35   A    
S6    O37   D    
S5    O35   S    
C34   C36   A    
O5    Zn1   S    
S4    O28   D    
O16   H10   S    
C31   C37   A    
C40   C44   A    
C16   C18   A    
C6    C42   A    
O21   H15   S    
C35   H2    S    
C12   S5    S    
