data_mof_unit_51782.cif
_audit_creation_date              2013-03-05T16:12:51-0500
_audit_creation_method            fapswitch 2.2
_symmetry_space_group_name_H-M    P1
_symmetry_Int_Tables_number       1
_space_group_crystal_system       triclinic
_cell_length_a                    26.079132
_cell_length_b                    6.891401
_cell_length_c                    21.514512
_cell_angle_alpha                 89.479413
_cell_angle_beta                  96.226698
_cell_angle_gamma                 89.34991
_cell_volume                      3843.36042948

loop_
_atom_site_label
_atom_site_type_symbol
_atom_site_description
_atom_site_fract_x
_atom_site_fract_y
_atom_site_fract_z
_atom_type_partial_charge
O1    O     O_R   0.208650 0.594520 0.175450 -0.569870
O2    O     O_R   0.791350 0.405480 0.824550 -0.562957
O3    O     O_R   0.291350 0.094520 0.324550 -0.576746
O4    O     O_R   0.708650 0.905480 0.675450 -0.583869
O5    O     O_R   0.192980 0.260780 0.300160 -0.583590
O6    O     O_R   0.807020 0.739220 0.699840 -0.606623
O7    O     O_R   0.307020 0.760780 0.199840 -0.560916
O8    O     O_R   0.692980 0.239220 0.800160 -0.562482
C1    C     C_R   0.178619 0.434276 0.318301 1.012813
C2    C     C_R   0.821029 0.565908 0.681297 1.044746
C3    C     C_R   0.320306 0.932939 0.180205 0.979902
C4    C     C_R   0.679979 0.067135 0.820051 0.975574
O9    O     O_R   0.202550 0.264660 0.174420 -0.593122
O10   O     O_R   0.797450 0.735340 0.825580 -0.616520
O11   O     O_R   0.297450 0.764660 0.325580 -0.577631
O12   O     O_R   0.702550 0.235340 0.674420 -0.559529
O13   O     O_R   0.300990 0.096480 0.197920 -0.600274
O14   O     O_R   0.699010 0.903520 0.802080 -0.599401
O15   O     O_R   0.199010 0.596480 0.302080 -0.584968
O16   O     O_R   0.800990 0.403520 0.697920 -0.536212
C5    C     C_R   0.191245 0.435472 0.150328 1.028687
C6    C     C_R   0.809094 0.564038 0.849439 1.040165
C7    C     C_R   0.309069 0.931820 0.349118 1.052826
C8    C     C_R   0.691144 0.068446 0.650599 1.036245
O17   O     O_3   0.282290 0.427760 0.257860 -0.258132
O18   O     O_3   0.717710 0.572240 0.742140 -0.259337
O19   O     O_3   0.217710 0.927760 0.242140 -0.277575
O20   O     O_3   0.782290 0.072240 0.757860 -0.266486
V1    V     V_3+5 0.244010 0.152080 0.248540 1.255575
V2    V     V_3+5 0.755990 0.847920 0.751460 1.247053
V3    V     V_3+5 0.255990 0.652080 0.251460 1.283584
V4    V     V_3+5 0.744010 0.347920 0.748540 1.313037
C9    C     C_R   0.656034 0.070201 0.591230 -0.494441
C10   C     C_R   0.344287 0.930867 0.408226 -0.480455
C11   C     C_R   0.842931 0.541031 0.909975 -0.510206
C12   C     C_R   0.157083 0.450746 0.089814 -0.493014
C13   C     C_R   0.638105 0.209013 0.486143 0.294900
C14   C     C_R   0.362883 0.778103 0.510933 0.300118
C15   C     C_R   0.852153 0.412278 0.016939 0.262505
C16   C     C_R   0.148517 0.472214 0.975673 0.275039
C17   C     C_R   0.672919 0.164325 0.538841 0.223065
C18   C     C_R   0.327069 0.840118 0.460973 0.207864
C19   C     C_R   0.820732 0.473546 0.962931 0.188295
C20   C     C_R   0.179704 0.469087 0.033347 0.176135
C21   C     C_R   0.604190 0.003365 0.587978 0.559929
C22   C     C_R   0.396976 0.985204 0.409887 0.546442
C23   C     C_R   0.897726 0.555628 0.913254 0.511824
C24   C     C_R   0.102141 0.446547 0.087722 0.539387
C25   C     C_R   0.570559 0.027393 0.531197 0.051626
C26   C     C_R   0.431089 0.954719 0.465777 0.063117
C27   C     C_R   0.929874 0.466270 0.964276 0.054773
C28   C     C_R   0.070772 0.428312 0.029011 0.055750
C29   C     C_R   0.586159 0.153535 0.484703 -0.144698
C30   C     C_R   0.415347 0.826935 0.511705 -0.144030
C31   C     C_R   0.906315 0.402966 0.017150 -0.169403
C32   C     C_R   0.094561 0.450849 0.973283 -0.174920
C33   C     C_R   0.519693 0.946841 0.521307 -0.066565
C34   C     C_R   0.482010 0.033985 0.475533 -0.065445
C35   C     C_R   0.985038 0.441339 0.965501 -0.081676
C36   C     C_R   0.015761 0.399093 0.023575 -0.069659
C37   C     C_R   0.496313 0.201218 0.442756 0.400106
C38   C     C_R   0.505173 0.780561 0.554443 0.406023
C39   C     C_R   0.990573 0.310706 0.071519 0.410608
C40   C     C_R   0.010526 0.436933 0.910521 0.415662
C41   C     C_R   0.548482 0.242370 0.442030 -0.138771
C42   C     C_R   0.452853 0.739929 0.555094 -0.162498
C43   C     C_R   0.936853 0.318830 0.068362 -0.171997
C44   C     C_R   0.064190 0.449056 0.915243 -0.176033
H1    H     H_    0.558836 0.362442 0.413291 0.207651
H2    H     H_    0.442273 0.624446 0.585394 0.212875
H3    H     H_    0.918874 0.248960 0.105521 0.214160
H4    H     H_    0.082172 0.450728 0.872270 0.217659
C45   C     C_R   0.437557 0.811123 0.094993 -0.050642
C46   C     C_R   0.561629 0.179213 0.904138 -0.049679
C47   C     C_R   0.065603 0.308527 0.409975 -0.034333
C48   C     C_R   0.939089 0.679185 0.597375 -0.027900
H5    H     H_    0.464840 0.691957 0.093985 0.200781
H6    H     H_    0.532777 0.293653 0.903711 0.195320
H7    H     H_    0.040691 0.186060 0.414643 0.203600
H8    H     H_    0.966295 0.796234 0.596048 0.199562
C49   C     C_R   0.397273 0.795122 0.132951 -0.090182
C50   C     C_R   0.601610 0.198048 0.865838 -0.104502
C51   C     C_R   0.104527 0.294085 0.370013 -0.106381
C52   C     C_R   0.898544 0.697785 0.634797 -0.222254
H9    H     H_    0.394863 0.664305 0.160710 0.179516
H10   H     H_    0.602114 0.325348 0.836027 0.173350
H11   H     H_    0.108904 0.159837 0.345407 0.171379
H12   H     H_    0.895639 0.828737 0.661685 0.172591
C53   C     C_R   0.361225 0.947045 0.136140 -0.329388
C54   C     C_R   0.639793 0.052772 0.864887 -0.319023
C55   C     C_R   0.136412 0.452258 0.360546 -0.334287
C56   C     C_R   0.863149 0.547284 0.639111 -0.236171
C57   C     C_R   0.366031 0.116032 0.098399 0.428467
C58   C     C_R   0.637822 0.888848 0.905535 0.435717
C59   C     C_R   0.127632 0.628105 0.392508 0.459860
C60   C     C_R   0.869395 0.374697 0.604548 0.489379
C61   C     C_R   0.407467 0.133909 0.061378 0.293701
C62   C     C_R   0.596417 0.866855 0.942350 0.289067
C63   C     C_R   0.090876 0.638319 0.436070 0.273412
C64   C     C_R   0.908915 0.360961 0.564032 0.179821
C65   C     C_R   0.443059 0.979038 0.059090 -0.140877
C66   C     C_R   0.558421 0.014239 0.942174 -0.140096
C67   C     C_R   0.058822 0.478254 0.443781 -0.139889
C68   C     C_R   0.944417 0.512616 0.561598 -0.079013
C69   C     C_1   0.483919 0.988673 0.017944 0.186135
C70   C     C_1   0.517561 0.001233 0.983220 0.184007
C71   C     C_1   0.018813 0.487383 0.485926 0.194378
C72   C     C_1   0.985285 0.500284 0.520708 0.187009
O21   O     O_3   0.417811 0.044332 0.356391 -0.716393
H13   H     H_    0.390352 0.069119 0.321774 0.310123
O22   O     O_3   0.583218 0.939617 0.640858 -0.716541
H14   H     H_    0.609903 0.929363 0.677032 0.309865
O23   O     O_3   0.077998 0.477154 0.141072 -0.707316
H15   H     H_    0.103547 0.507191 0.176970 0.300000
O24   O     O_3   0.920599 0.664187 0.869691 -0.711373
H16   H     H_    0.894016 0.733905 0.841427 0.329104
N1    N     N_R   0.273156 0.802476 0.462190 0.268807
O25   O     O_R   0.239666 0.943253 0.451215 -0.279504
O26   O     O_R   0.257364 0.629331 0.474542 -0.289096
N2    N     N_R   0.725460 0.222965 0.539995 0.266229
O27   O     O_R   0.739243 0.389848 0.563685 -0.323304
O28   O     O_R   0.755838 0.131944 0.505657 -0.263733
N3    N     N_R   0.234617 0.487786 0.033887 0.255048
O29   O     O_R   0.258989 0.392726 0.993883 -0.256244
O30   O     O_R   0.259143 0.619166 0.068037 -0.350764
N4    N     N_R   0.765802 0.477567 0.963762 0.261026
O31   O     O_R   0.736904 0.362568 0.927887 -0.354392
O32   O     O_R   0.745776 0.570669 0.007794 -0.243670
N5    N     N_R   0.655508 0.314309 0.434497 0.262128
O33   O     O_R   0.645619 0.250349 0.377789 -0.294149
O34   O     O_R   0.680800 0.474962 0.443785 -0.263041
N6    N     N_R   0.345506 0.668753 0.561462 0.260682
O35   O     O_R   0.352729 0.481643 0.564482 -0.300534
O36   O     O_R   0.316195 0.751386 0.598963 -0.256859
N7    N     N_R   0.828372 0.350087 0.070813 0.263992
O37   O     O_R   0.795122 0.210192 0.066326 -0.275446
O38   O     O_R   0.837926 0.440140 0.123623 -0.283833
N8    N     N_R   0.172044 0.502903 0.919169 0.264260
O39   O     O_R   0.193400 0.668272 0.909010 -0.267477
O40   O     O_R   0.176904 0.359483 0.881236 -0.282000
N9    N     N_R   0.458877 0.343889 0.417038 0.249813
O41   O     O_R   0.468295 0.453254 0.370053 -0.356970
O42   O     O_R   0.418913 0.384446 0.446126 -0.396088
N10   N     N_R   0.542565 0.638870 0.580961 0.253142
O43   O     O_R   0.583198 0.599789 0.552927 -0.404165
O44   O     O_R   0.532621 0.528991 0.627596 -0.359483
N11   N     N_R   0.017645 0.182089 0.117324 0.259205
O45   O     O_R   0.053528 0.065592 0.101417 -0.386552
O46   O     O_R   0.001898 0.161817 0.172369 -0.334291
N12   N     N_R   0.984085 0.383995 0.850950 0.261878
O47   O     O_R   0.949361 0.249181 0.847877 -0.385754
O48   O     O_R   0.999489 0.449998 0.799306 -0.337639
O49   O     O_3   0.331136 0.267551 0.097169 -0.653016
H17   H     H_    0.296318 0.210464 0.094907 0.342971
O50   O     O_3   0.675521 0.746397 0.909969 -0.648816
H18   H     H_    0.709223 0.810919 0.909325 0.338582
O51   O     O_3   0.153433 0.794673 0.380682 -0.649961
H19   H     H_    0.141485 0.831670 0.336803 0.308347
O52   O     O_3   0.836746 0.221170 0.611441 -0.677898
H20   H     H_    0.852293 0.099693 0.597545 0.340376
N13   N     N_R   0.412436 0.308487 0.025156 0.246053
O53   O     O_R   0.371870 0.395792 0.996808 -0.235925
O54   O     O_R   0.457553 0.383013 0.020959 -0.390906
N14   N     N_R   0.593842 0.695865 0.980841 0.251398
O55   O     O_R   0.635160 0.625211 0.012777 -0.224283
O56   O     O_R   0.550253 0.607754 0.983372 -0.383112
N15   N     N_R   0.086238 0.813242 0.471456 0.242107
O57   O     O_R   0.127108 0.910708 0.491401 -0.246417
O58   O     O_R   0.041380 0.877118 0.483815 -0.389686
N16   N     N_R   0.911487 0.196715 0.523667 0.224380
O59   O     O_R   0.870865 0.145140 0.487358 -0.272343
O60   O     O_R   0.954928 0.104809 0.520476 -0.378646

loop_
_geom_bond_atom_site_label_1
_geom_bond_atom_site_label_2
_geom_bond_distance
_ccdc_geom_bond_type
C48   C68   1.401807 A    
C51   H11   1.081118 S    
C25   C29   1.415029 A    
O1    C5    1.291649 A    
N4    O31   1.300087 A    
O19   V1    1.698992 S    
C9    C21   1.428043 A    
O3    C7    1.294053 A    
O22   H14   0.987611 S    
C10   C18   1.408751 A    
C56   C60   1.425494 A    
C11   C23   1.427833 A    
C1    C55   1.506316 S    
N13   O53   1.300801 A    
C25   C33   1.438999 A    
N7    O37   1.301230 A    
N15   O58   1.300385 A    
C5    C12   1.497865 S    
C15   N7    1.436909 S    
O7    C3    1.318363 A    
C6    C11   1.497945 S    
O20   V4    2.133720 S    
C35   C40   1.418712 A    
O51   H19   0.991627 S    
C36   C39   1.418153 A    
C40   C44   1.395662 A    
O9    V1    1.974435 S    
N14   O55   1.300639 A    
N11   O46   1.301712 A    
O10   V2    1.974432 S    
C14   C18   1.405405 A    
N1    O26   1.301208 A    
O4    C8    1.296172 A    
C59   C63   1.413053 A    
N3    O30   1.300761 A    
C43   H3    1.081800 S    
N16   O59   1.301103 A    
C58   C62   1.415411 A    
O24   H16   0.988378 S    
C47   C67   1.402516 A    
O1    V3    1.985135 S    
O13   V1    1.971490 S    
C31   C43   1.404286 A    
O2    V4    1.985130 S    
C32   C44   1.404534 A    
C45   C49   1.403530 A    
O3    V1    1.973562 S    
C28   C36   1.443247 A    
N9    O41   1.301697 A    
C1    O15   1.304126 A    
C64   C68   1.408455 A    
C15   C31   1.412722 A    
N11   O45   1.301846 A    
C2    O16   1.303798 A    
N6    O35   1.301038 A    
C16   C32   1.411897 A    
C16   N8    1.434958 S    
O2    C6    1.289650 A    
C71   C72   1.214021 T    
C66   C70   1.458858 S    
C10   C22   1.425087 A    
C11   C19   1.410338 A    
C16   C20   1.407766 A    
O5    V1    1.969443 S    
C44   H4    1.081120 S    
C46   C66   1.403311 A    
C13   C29   1.408989 A    
C34   C37   1.420082 A    
O11   C7    1.288611 A    
O15   V3    1.974191 S    
C35   C36   1.434841 A    
O12   C8    1.288160 A    
C65   C69   1.459002 S    
C48   C52   1.402225 A    
C46   C50   1.403743 A    
C19   N4    1.434543 S    
C39   N11   1.440218 S    
N13   O54   1.300871 A    
N2    O28   1.300358 A    
C54   C58   1.427125 A    
C63   N15   1.442467 S    
O17   V1    2.157010 S    
C39   C43   1.395688 A    
O7    V3    1.973252 S    
C38   C42   1.397536 A    
C64   N16   1.438274 S    
C26   C34   1.436695 A    
C52   H12   1.082685 S    
N3    O29   1.301302 A    
N10   O44   1.301684 A    
C63   C67   1.410959 A    
N15   O57   1.301359 A    
O18   V4    1.682475 S    
C58   O50   1.376758 S    
C15   C19   1.405907 A    
C33   C38   1.420665 A    
C62   C66   1.410596 A    
O19   V3    2.133723 S    
C57   O49   1.375448 S    
C53   C57   1.428072 A    
O4    V2    1.973567 S    
C40   N12   1.440014 S    
N9    O42   1.301558 A    
O8    V4    1.973252 S    
C23   O24   1.382972 S    
O5    C1    1.323687 A    
C3    C53   1.505691 S    
C62   N14   1.440451 S    
O52   H20   0.988809 S    
C14   C30   1.411071 A    
C21   C25   1.431650 A    
O8    C4    1.317517 A    
C7    C10   1.485633 S    
O9    C5    1.299660 A    
C26   C30   1.414482 A    
N8    O40   1.301236 A    
O14   V2    1.971485 S    
C37   N9    1.441232 S    
O6    V2    1.969445 S    
O18   V2    2.157010 S    
C61   N13   1.442202 S    
N12   O48   1.301772 A    
C12   C20   1.412190 A    
C27   C35   1.444275 A    
C57   C61   1.416078 A    
C68   C72   1.455933 S    
C29   C41   1.401274 A    
N2    O27   1.300734 A    
O23   H15   0.988776 S    
O16   V4    1.974193 S    
C4    C54   1.502833 S    
N7    O38   1.301182 A    
C3    O13   1.306054 A    
N4    O32   1.301002 A    
C59   O51   1.372758 S    
O17   V3    1.682474 S    
C48   H8    1.082504 S    
C38   N10   1.441336 S    
N10   O43   1.301674 A    
O6    C2    1.322692 A    
C23   C27   1.436457 A    
C21   O22   1.384850 S    
C18   N1    1.435614 S    
O11   V3    1.995350 S    
C30   C42   1.402187 A    
O12   V4    1.995351 S    
C51   C55   1.405125 A    
C69   C70   1.215750 T    
C22   C26   1.428496 A    
C20   N3    1.438123 S    
C8    C9    1.488550 S    
C50   C54   1.405877 A    
C9    C17   1.409215 A    
O10   C6    1.302444 A    
N14   O56   1.300914 A    
N5    O33   1.301295 A    
C49   C53   1.406268 A    
O20   V2    1.698991 S    
C50   H10   1.083050 S    
O21   H13   0.987853 S    
C47   C51   1.402884 A    
C33   C34   1.436031 A    
C42   H2    1.081215 S    
N16   O60   1.300266 A    
C41   H1    1.082547 S    
C60   C64   1.423081 A    
C45   C65   1.402801 A    
C13   N5    1.438539 S    
C12   C24   1.429266 A    
C27   C31   1.417924 A    
C17   N2    1.430673 S    
C13   C17   1.403070 A    
C61   C65   1.411202 A    
N8    O39   1.301143 A    
C2    C56   1.503994 S    
C37   C41   1.394625 A    
C24   C28   1.435839 A    
C60   O52   1.382529 S    
C55   C59   1.427181 A    
N6    O36   1.300701 A    
C46   H6    1.083117 S    
C22   O21   1.384948 S    
C4    O14   1.305381 A    
O50   H18   0.990873 S    
C45   H5    1.082392 S    
N12   O47   1.301841 A    
C67   C71   1.455853 S    
C52   C56   1.405320 A    
O49   H17   0.990224 S    
N1    O25   1.300627 A    
C47   H7    1.081439 S    
C49   H9    1.083037 S    
C28   C32   1.416583 A    
C14   N6    1.433443 S    
C24   O23   1.384393 S    
N5    O34   1.301042 A    
