data_mof_unit_40751.cif
_audit_creation_date              2012-12-10T17:58:20-0500
_audit_creation_method            fapswitch 2.2
_symmetry_space_group_name_H-M    P1
_symmetry_Int_Tables_number       1
_space_group_crystal_system       triclinic
_cell_length_a                    9.517328
_cell_length_b                    10.951612
_cell_length_c                    15.304475
_cell_angle_alpha                 89.981668
_cell_angle_beta                  73.984217
_cell_angle_gamma                 90.274449
_cell_volume                      1533.25087556

loop_
_atom_site_label
_atom_site_type_symbol
_atom_type_description
_atom_site_fract_x
_atom_site_fract_y
_atom_site_fract_z
_atom_type_partial_charge
C1    C     C_R   0.999668 0.261850 0.500180 0.850085
C2    C     C_R   0.003300 0.737617 0.494798 0.859389
C3    C     C_R   0.547629 0.658556 0.080291 0.226421
C4    C     C_R   0.411476 0.533697 0.893985 0.223438
C5    C     C_R   0.692961 0.684058 0.032675 -0.281606
C6    C     C_R   0.267825 0.502896 0.939890 -0.294307
C7    C     C_R   0.889949 0.062143 0.471345 0.157720
C8    C     C_R   0.129301 0.936431 0.503185 0.190476
C9    C     C_R   0.896483 0.934944 0.464042 0.192366
C10   C     C_R   0.122023 0.063286 0.512212 0.153010
C11   C     C_R   0.010810 0.871325 0.485948 -0.227183
C12   C     C_R   0.001807 0.127525 0.496727 -0.237307
C13   C     C_R   0.542084 0.452781 0.571693 -0.038038
C14   C     C_R   0.458480 0.544466 0.427374 -0.042084
C15   C     C_R   0.393205 0.454352 0.572236 -0.037546
C16   C     C_R   0.606875 0.545246 0.427701 -0.025733
C17   C     C_R   0.917953 0.507482 0.672614 0.823136
C18   C     C_R   0.082064 0.498401 0.326818 0.820827
C19   C     C_R   0.872848 0.541304 0.769717 -0.094907
C20   C     C_R   0.125712 0.499081 0.226158 -0.106554
C21   C     C_R   0.900275 0.665688 0.896736 0.133312
C22   C     C_R   0.075339 0.466716 0.079832 0.126711
C23   C     C_R   0.957833 0.620416 0.807364 0.096052
C24   C     C_R   0.027154 0.467287 0.175674 0.109558
C25   C     C_R   0.731111 0.512017 0.819964 -0.258167
C26   C     C_R   0.269073 0.532844 0.180325 -0.270967
C27   C     C_R   0.665276 0.570365 0.902640 0.036860
C28   C     C_R   0.315411 0.544206 0.085201 0.040088
C29   C     C_R   0.753952 0.639097 0.944771 0.075948
C30   C     C_R   0.219316 0.503975 0.034847 0.085728
C31   C     C_R   0.512807 0.560927 0.944336 0.011801
C32   C     C_R   0.458434 0.586859 0.038502 0.002442
Cu1   Cu    Cu3+1 0.140660 0.500020 0.500000 0.948263
Cu2   Cu    Cu3+1 0.859340 0.499980 0.500000 0.946683
H1    H     H_    0.757574 0.740735 0.065056 0.181531
H2    H     H_    0.193449 0.479173 0.900218 0.179576
H3    H     H_    0.345442 0.546342 0.220017 0.196116
H4    H     H_    0.670767 0.445900 0.791960 0.183363
H5    H     H_    0.571888 0.413281 0.628736 0.134176
H6    H     H_    0.429666 0.580815 0.369043 0.123317
H7    H     H_    0.311639 0.416450 0.629709 0.119233
H8    H     H_    0.688506 0.581730 0.369801 0.137016
N1    N     N_R   0.352080 0.500030 0.499980 -0.147246
N2    N     N_R   0.647920 0.499970 0.500020 -0.153877
O1    O     O_R   0.118740 0.319660 0.500000 -0.574277
O2    O     O_R   0.881260 0.680340 0.500000 -0.549717
O3    O     O_R   0.881170 0.319630 0.500010 -0.580036
O4    O     O_R   0.118830 0.680370 0.499990 -0.541859
O5    O     O_R   0.055570 0.500030 0.629830 -0.557754
O6    O     O_R   0.944430 0.499970 0.370170 -0.557186
O7    O     O_R   0.818000 0.500000 0.629840 -0.589691
O8    O     O_R   0.182000 0.500000 0.370160 -0.605575
N3    N     N_3   0.879874 0.432022 0.221657 -0.598044
H9    H     H_    0.860815 0.343654 0.201736 0.206815
H10   H     H_    0.808067 0.491927 0.202882 0.206301
N4    N     N_3   0.099196 0.658664 0.753244 -0.571353
H11   H     H_    0.100132 0.753636 0.746450 0.210725
H12   H     H_    0.175430 0.633874 0.787263 0.218830
N5    N     N_3   0.986611 0.743840 0.937084 -0.622623
H13   H     H_    0.081285 0.697693 0.939191 0.232518
H14   H     H_    0.016477 0.821755 0.896682 0.211390
N6    N     N_3   0.979326 0.426465 0.027714 -0.617415
H15   H     H_    0.950517 0.335402 0.044072 0.213642
H16   H     H_    0.884728 0.479298 0.045149 0.230217
N7    N     N_2   0.488589 0.719448 0.164678 -0.454367
H17   H     H_    0.563553 0.737407 0.200609 0.234894
C33   C     C_3   0.400233 0.824776 0.159035 -0.693781
H18   H     H_    0.353459 0.863225 0.227966 0.215433
H19   H     H_    0.308340 0.798864 0.131031 0.244425
H20   H     H_    0.468282 0.896116 0.115180 0.226826
N8    N     N_2   0.447786 0.549178 0.797678 -0.448673
H21   H     H_    0.379994 0.503282 0.766555 0.233587
C34   C     C_3   0.477453 0.673940 0.765804 -0.654145
H22   H     H_    0.497487 0.676950 0.690831 0.236182
H23   H     H_    0.576092 0.710525 0.782049 0.241850
H24   H     H_    0.383432 0.733765 0.797673 0.205778
N9    N     N_2   0.767591 0.121514 0.453819 -0.432133
H25   H     H_    0.697135 0.166813 0.507120 0.258528
C35   C     C_3   0.785130 0.169949 0.363384 -0.648256
H26   H     H_    0.702860 0.126986 0.333829 0.209483
H27   H     H_    0.896168 0.151883 0.317856 0.218480
H28   H     H_    0.766447 0.269981 0.367007 0.257889
N10   N     N_2   0.254405 0.874330 0.515337 -0.373846
H29   H     H_    0.297084 0.909056 0.565259 0.265404
C36   C     C_3   0.365550 0.846029 0.431927 -0.642472
H30   H     H_    0.413003 0.929982 0.395106 0.205699
H31   H     H_    0.319282 0.790017 0.386077 0.233610
H32   H     H_    0.454938 0.794412 0.448321 0.215538
N11   N     N_2   0.787847 0.870965 0.433363 -0.386666
H33   H     H_    0.684417 0.907779 0.453363 0.265266
C37   C     C_3   0.832743 0.838808 0.337964 -0.661389
H34   H     H_    0.859439 0.922172 0.295169 0.221363
H35   H     H_    0.742452 0.789677 0.319867 0.195446
H36   H     H_    0.929804 0.778296 0.323132 0.224872
N12   N     N_2   0.234963 0.123306 0.541062 -0.429594
H37   H     H_    0.203897 0.181658 0.595819 0.250016
C38   C     C_3   0.367488 0.154504 0.471184 -0.623775
H38   H     H_    0.357336 0.134980 0.401890 0.218220
H39   H     H_    0.459925 0.102087 0.482916 0.219484
H40   H     H_    0.392524 0.252799 0.473945 0.236795

loop_
_geom_bond_atom_site_label_1
_geom_bond_atom_site_label_2
_ccdc_geom_bond_type
C27   C29   A    
C8    N10   S    
Cu1   O1    S    
C34   H22   S    
N12   H37   S    
C17   O7    A    
C38   H38   S    
C18   O8    A    
C23   N4    S    
N9    H25   S    
C2    O2    A    
Cu1   O8    S    
Cu2   O7    S    
N10   H29   S    
C21   N5    S    
C36   H30   S    
C37   H35   S    
Cu1   O5    S    
N4    H11   S    
N6    H16   S    
C20   C24   A    
C6    H2    S    
N7    C33   S    
Cu2   O2    S    
N11   C37   S    
C16   N2    A    
C18   C20   S    
C7    N9    S    
N3    H10   S    
N5    H13   S    
C34   H23   S    
C3    N7    S    
C1    C12   S    
C2    C11   S    
C38   H39   S    
C5    C29   A    
N9    C35   S    
C7    C12   A    
Cu2   O6    S    
N5    H14   S    
C36   H31   S    
C27   C31   A    
C33   H18   S    
Cu1   N1    S    
C28   C32   A    
Cu2   N2    S    
C15   H7    S    
C4    C6    A    
C9    N11   S    
C37   H34   S    
C35   H27   S    
C1    O3    A    
C2    O4    A    
C24   N3    S    
N3    H9    S    
C21   C29   A    
C33   H19   S    
C19   C23   A    
N6    H15   S    
C25   H4    S    
C22   N6    S    
C31   C32   A    
Cu1   Cu2   S    
C9    C11   A    
C10   C12   A    
N10   C36   S    
C13   C15   A    
C34   H24   S    
C14   C16   A    
C17   O5    A    
C16   H8    S    
C38   H40   S    
C18   O6    A    
N8    C34   S    
C36   H32   S    
C7    C9    A    
C22   C30   A    
C6    C30   A    
C3    C5    A    
C35   H28   S    
N12   C38   S    
C26   H3    S    
C25   C27   A    
C26   C28   A    
C33   H20   S    
C21   C23   A    
C15   N1    A    
N8    H21   S    
C37   H36   S    
C1    O1    A    
C20   C26   A    
C10   N12   S    
C8    C11   A    
C5    H1    S    
C28   C30   A    
C17   C19   S    
N4    H12   S    
C22   C24   A    
C13   N2    A    
C3    C32   A    
C19   C25   A    
C13   H5    S    
C4    C31   A    
C14   H6    S    
C35   H26   S    
C8    C10   A    
N7    H17   S    
Cu1   O4    S    
Cu2   O3    S    
N11   H33   S    
C4    N8    S    
C14   N1    A    
