data_mof_unit_18258.cif
_audit_creation_date              2012-12-10T20:44:42-0500
_audit_creation_method            fapswitch 2.2
_symmetry_space_group_name_H-M    P1
_symmetry_Int_Tables_number       1
_space_group_crystal_system       triclinic
_cell_length_a                    9.950621
_cell_length_b                    10.647223
_cell_length_c                    16.647457
_cell_angle_alpha                 88.544544
_cell_angle_beta                  96.016656
_cell_angle_gamma                 88.574695
_cell_volume                      1752.78525837

loop_
_atom_site_label
_atom_site_type_symbol
_atom_type_description
_atom_site_fract_x
_atom_site_fract_y
_atom_site_fract_z
_atom_type_partial_charge
C1    C     C_R   0.500146 0.261483 0.491710 0.870573
C2    C     C_R   0.621540 0.420285 0.787589 0.446498
C3    C     C_R   0.455371 0.394684 0.132937 -0.075836
C4    C     C_R   0.478538 0.389234 0.217632 0.393820
C5    C     C_R   0.420509 0.512230 0.093295 0.178610
C6    C     C_R   0.462633 0.501045 0.260285 -0.143331
C7    C     C_R   0.419139 0.613681 0.220140 -0.244546
C8    C     C_R   0.397817 0.619066 0.136869 -0.182377
C9    C     C_R   0.619013 0.061527 0.477008 -0.033752
C10   C     C_R   0.499822 0.133069 0.468298 -0.262420
C11   C     C_R   0.377376 0.074135 0.443863 0.401105
C12   C     C_R   0.519465 0.498594 0.653256 0.944903
C13   C     C_R   0.368685 0.945658 0.461857 -0.133825
C14   C     C_R   0.491049 0.874982 0.485697 -0.244155
C15   C     C_R   0.614323 0.933888 0.484401 0.001572
C16   C     C_3   0.740483 0.924901 0.542845 0.234205
C17   C     C_3   0.745248 0.067677 0.534347 0.192011
C18   C     C_R   0.082953 0.480774 0.570180 0.153850
C19   C     C_R   0.058951 0.536381 0.432711 -0.053752
C20   C     C_R   0.915580 0.541898 0.433847 -0.053288
C21   C     C_R   0.941776 0.480034 0.569730 0.235504
C22   C     C_3   0.945586 0.372889 0.628953 -0.530486
C23   C     C_R   0.497377 0.740914 0.498788 0.946684
C24   C     C_3   0.100525 0.372713 0.631056 -0.261354
C25   C     C_R   0.480443 0.501604 0.346964 0.852136
C26   C     C_R   0.534812 0.505301 0.740027 -0.036802
C27   C     C_R   0.459827 0.597447 0.775284 -0.287410
C28   C     C_R   0.465375 0.601840 0.858424 -0.152408
C29   C     C_R   0.545496 0.512800 0.906851 0.305364
C30   C     C_R   0.627267 0.425978 0.871804 -0.241609
H1    H     H_    0.825145 0.872773 0.518788 0.184370
H2    H     H_    0.731433 0.119110 0.590340 0.163741
H3    H     H_    0.906483 0.402030 0.685939 0.247629
H4    H     H_    0.896317 0.289010 0.602387 0.255569
H5    H     H_    0.689107 0.358477 0.910106 0.155391
H6    H     H_    0.404075 0.698156 0.253494 0.205315
H7    H     H_    0.404157 0.671885 0.884970 0.171634
H8    H     H_    0.370293 0.708127 0.105835 0.183381
H9    H     H_    0.395070 0.664444 0.738275 0.198048
N1    N     N_2   0.538907 0.502545 0.990596 -0.160920
N2    N     N_2   0.424001 0.528260 0.009830 -0.142389
N3    N     N_R   0.142860 0.499130 0.500540 -0.148951
N4    N     N_R   0.857210 0.499170 0.500530 -0.133844
O1    O     O_R   0.614690 0.316790 0.499990 -0.589375
O2    O     O_R   0.385350 0.316760 0.500000 -0.597287
O3    O     O_R   0.627460 0.498860 0.616130 -0.584592
O4    O     O_R   0.398120 0.498820 0.616130 -0.628793
O5    O     O_R   0.614650 0.683240 0.500000 -0.570186
O6    O     O_R   0.385310 0.683210 0.500010 -0.597726
O7    O     O_R   0.601880 0.501180 0.383870 -0.600513
O8    O     O_R   0.372540 0.501140 0.383870 -0.614152
Zn1   Zn    Zn3+2 0.653130 0.500020 0.499990 1.042041
Zn2   Zn    Zn3+2 0.346870 0.499980 0.500010 1.029572
O9    O     O_3   0.512207 0.274034 0.255982 -0.698825
H10   H     H_    0.527514 0.283027 0.315105 0.323173
C31   C     C_2   0.230696 0.896274 0.464098 1.086575
O10   O     O_2   0.199218 0.845303 0.525818 -0.625260
O11   O     O_R   0.133013 0.918776 0.398243 -0.688229
H11   H     H_    0.041474 0.885428 0.408282 0.342225
O12   O     O_3   0.717843 0.882035 0.620963 -0.728944
H12   H     H_    0.638409 0.928913 0.637886 0.333324
O13   O     O_3   0.856329 0.108971 0.496005 -0.682313
H13   H     H_    0.858850 0.064563 0.444372 0.368756
C32   C     C_2   0.115276 0.571903 0.357500 0.985278
O14   O     O_2   0.169316 0.672838 0.351290 -0.624629
O15   O     O_R   0.103633 0.490561 0.292693 -0.734512
H14   H     H_    0.143748 0.525792 0.243632 0.349886
C33   C     C_2   0.832866 0.605865 0.365463 0.963543
O16   O     O_2   0.777204 0.707102 0.375209 -0.638029
O17   O     O_R   0.821262 0.552214 0.289345 -0.743928
H15   H     H_    0.762346 0.605242 0.247386 0.347991
C34   C     C_2   0.166169 0.413990 0.712527 0.962570
O18   O     O_2   0.245636 0.344539 0.754782 -0.548226
O19   O     O_R   0.131078 0.531864 0.740694 -0.790846
H16   H     H_    0.176349 0.547537 0.796821 0.351826
C35   C     C_2   0.467155 0.278278 0.085936 0.998566
O20   O     O_2   0.397224 0.267272 0.021680 -0.596834
O21   O     O_R   0.557809 0.181021 0.114968 -0.712076
H17   H     H_    0.556091 0.107311 0.077523 0.345765
C36   C     C_2   0.158642 0.253375 0.597898 1.016685
O22   O     O_2   0.109081 0.214945 0.533129 -0.520371
O23   O     O_R   0.268272 0.187180 0.640132 -0.745375
H18   H     H_    0.295980 0.109442 0.611315 0.337560
O24   O     O_3   0.692837 0.329075 0.750848 -0.780285
H19   H     H_    0.747974 0.277261 0.793056 0.343114
O25   O     O_3   0.263330 0.140832 0.410526 -0.645431
H20   H     H_    0.292824 0.214618 0.380034 0.359827

loop_
_geom_bond_atom_site_label_1
_geom_bond_atom_site_label_2
_ccdc_geom_bond_type
C34   O19   S    
C18   C21   A    
C7    H6    S    
C2    O24   S    
C19   C20   A    
C7    C8    A    
C16   H1    S    
C26   C27   A    
C29   C30   A    
C30   H5    S    
C18   C24   S    
C28   C29   A    
C35   O21   S    
C18   N3    A    
N3    Zn2   S    
N4    Zn1   S    
C23   O6    A    
C6    C25   S    
C11   O25   S    
C15   C16   S    
O3    Zn1   S    
C31   O10   D    
C16   O12   S    
C25   O7    A    
C21   N4    A    
C24   C36   S    
C27   H9    S    
C16   C17   S    
O7    Zn1   S    
O17   H15   S    
C9    C10   A    
C19   N3    A    
O4    Zn2   S    
C13   C31   S    
O1    Zn1   S    
O15   H14   S    
O2    Zn2   S    
C13   C14   A    
C8    H8    S    
C12   O4    A    
C22   H4    S    
O19   H16   S    
C35   O20   D    
C12   O3    A    
O25   H20   S    
C34   O18   D    
O11   H11   S    
C12   C26   S    
O12   H12   S    
O8    Zn2   S    
C32   O15   S    
C14   C23   S    
C25   O8    A    
O13   H13   S    
C17   O13   S    
C1    O1    A    
C19   C32   S    
C2    C26   A    
O24   H19   S    
C3    C35   S    
C9    C17   S    
N1    N2    D    
C22   C24   S    
C4    C6    A    
C3    C4    A    
C20   N4    A    
C24   C34   S    
C22   H3    S    
C5    N2    S    
O9    H10   S    
C23   O5    A    
C4    O9    S    
O21   H17   S    
C20   C33   S    
C1    C10   S    
C36   O22   D    
C3    C5    A    
C5    C8    A    
C6    C7    A    
C2    C30   A    
C32   O14   D    
C9    C15   A    
C11   C13   A    
C1    O2    A    
C28   H7    S    
O6    Zn2   S    
C29   N1    S    
C36   O23   S    
C31   O11   S    
C33   O16   D    
C10   C11   A    
O5    Zn1   S    
C33   O17   S    
O23   H18   S    
C27   C28   A    
C17   H2    S    
C14   C15   A    
C21   C22   S    
