data_mof_unit_6665.cif
_audit_creation_date              2012-12-11T16:56:15-0500
_audit_creation_method            fapswitch 2.2
_symmetry_space_group_name_H-M    P1
_symmetry_Int_Tables_number       1
_space_group_crystal_system       triclinic
_cell_length_a                    6.972026
_cell_length_b                    14.489309
_cell_length_c                    16.230275
_cell_angle_alpha                 90.50274
_cell_angle_beta                  89.865648
_cell_angle_gamma                 90.007979
_cell_volume                      1639.51213331

loop_
_atom_site_label
_atom_site_type_symbol
_atom_type_description
_atom_site_fract_x
_atom_site_fract_y
_atom_site_fract_z
_atom_type_partial_charge
O1    O     O_R   0.505830 0.583360 0.413880 -0.547244
O2    O     O_R   0.175830 0.595460 0.585520 -0.542526
O3    O     O_R   0.005520 0.416640 0.586120 -0.539643
C1    C     C_R   0.344336 0.616162 0.615293 0.691701
O4    O     O_R   0.176120 0.594390 0.414490 -0.543273
O5    O     O_R   0.005810 0.415570 0.413870 -0.537732
C2    C     C_R   0.345624 0.619584 0.388641 0.664193
O6    O     O_R   0.505540 0.584430 0.586130 -0.540153
O7    O     O_3   0.339200 0.441330 0.500000 -0.366012
V1    V     V_3+5 0.064350 0.510880 0.500000 1.376610
O8    O     O_R   0.676100 0.404540 0.414480 -0.538215
C3    C     C_R   0.845215 0.382144 0.386148 0.698187
O9    O     O_R   0.675810 0.405610 0.585510 -0.538541
C4    C     C_R   0.844873 0.383792 0.613648 0.747265
V2    V     V_3+5 0.564340 0.489120 0.500000 1.384518
O10   O     O_3   0.839360 0.558670 0.500000 -0.382732
C5    C     C_2   0.721555 0.208777 0.786138 -0.131558
C6    C     C_2   0.885933 0.181693 0.822530 -0.314098
H1    H     H_    0.586335 0.180036 0.807171 0.137000
H2    H     H_    0.022850 0.209700 0.803561 0.127810
C7    C     C_2   0.708898 0.277254 0.718173 -0.137939
C8    C     C_2   0.861339 0.315587 0.680515 -0.313028
H3    H     H_    0.565549 0.296054 0.698354 0.135247
H4    H     H_    0.005780 0.297448 0.698541 0.130141
C9    C     C_R   0.725876 0.245291 0.192056 0.102897
C10   C     C_R   0.882368 0.185347 0.183588 -0.107910
C11   C     C_R   0.034765 0.196343 0.239615 -0.176532
H5    H     H_    0.157996 0.151361 0.235706 0.132752
C12   C     C_R   0.023144 0.260754 0.305004 -0.178394
H6    H     H_    0.138839 0.264324 0.349141 0.131652
C13   C     C_R   0.858136 0.315520 0.316600 -0.108921
C14   C     C_R   0.713969 0.308731 0.256956 0.099138
C15   C     C_3   0.504745 0.292045 0.267941 -0.414275
C16   C     C_3   0.517648 0.223254 0.196986 -0.396964
H7    H     H_    0.417648 0.354013 0.253327 0.173336
H8    H     H_    0.472149 0.259301 0.328044 0.172424
H9    H     H_    0.438541 0.245580 0.141216 0.174642
H10   H     H_    0.491844 0.150697 0.215812 0.169977
C17   C     C_R   0.497844 0.674783 0.746721 0.105360
C18   C     C_R   0.351508 0.679485 0.687678 -0.119273
C19   C     C_R   0.204076 0.744009 0.702665 -0.176507
H11   H     H_    0.084289 0.748016 0.660976 0.123151
C20   C     C_R   0.216173 0.808033 0.768511 -0.171033
H12   H     H_    0.104552 0.859453 0.775255 0.125001
C21   C     C_R   0.376467 0.809480 0.821588 -0.110444
C22   C     C_R   0.510988 0.738504 0.811043 0.101111
C23   C     C_3   0.724633 0.739447 0.807406 -0.402437
C24   C     C_3   0.710299 0.667612 0.738451 -0.402307
H13   H     H_    0.790787 0.712209 0.864481 0.172204
H14   H     H_    0.781059 0.806972 0.786362 0.175342
H15   H     H_    0.764011 0.598542 0.756731 0.166652
H16   H     H_    0.763427 0.691760 0.677978 0.179754
C25   C     C_R   0.522902 0.698652 0.274999 0.031034
C26   C     C_R   0.357553 0.690241 0.322669 -0.096762
C27   C     C_R   0.204459 0.748850 0.303535 -0.159683
H17   H     H_    0.083767 0.752839 0.344479 0.128866
C28   C     C_R   0.213722 0.808429 0.235455 -0.162097
H18   H     H_    0.097372 0.856376 0.225845 0.129897
C29   C     C_R   0.376808 0.810704 0.183752 -0.075470
C30   C     C_R   0.528657 0.750512 0.202453 0.034731
C31   C     C_3   0.732090 0.777087 0.217204 -0.396481
C32   C     C_3   0.711810 0.736695 0.302493 0.268798
H19   H     H_    0.755704 0.853040 0.216825 0.192353
H20   H     H_    0.831647 0.737417 0.176647 0.125279
H21   H     H_    0.816913 0.682108 0.318483 0.050283
O11   O     O_R   0.229930 0.912420 0.917160 -0.539033
O12   O     O_R   0.559420 0.902500 0.088780 -0.540443
O13   O     O_R   0.729660 0.081330 0.089380 -0.537100
C33   C     C_R   0.390202 0.879918 0.116803 0.689940
O14   O     O_R   0.559650 0.901420 0.917750 -0.539497
O15   O     O_R   0.729880 0.080250 0.917130 -0.536846
C34   C     C_R   0.390765 0.879379 0.888888 0.695548
O16   O     O_R   0.229700 0.913500 0.089410 -0.542088
O17   O     O_3   0.396250 0.055540 0.003280 -0.370351
V3    V     V_3+5 0.671130 0.986010 0.003260 1.399479
O18   O     O_R   0.059600 0.091310 0.917720 -0.544715
C35   C     C_R   0.891049 0.113150 0.889559 0.742106
O19   O     O_R   0.059370 0.092380 0.088750 -0.543676
C36   C     C_R   0.890558 0.114451 0.117358 0.693763
V4    V     V_3+5 0.171120 0.007820 0.003230 1.390856
O20   O     O_3   0.896130 0.938240 0.003240 -0.370624
O21   O     O_3   0.690005 0.812159 0.357995 -0.565137
C37   C     C_3   0.715475 0.787680 0.440867 0.110320
H22   H     H_    0.859420 0.756865 0.451131 0.106930
H23   H     H_    0.602440 0.738966 0.460577 0.131465
C38   C     C_3   0.696041 0.876196 0.492350 -0.299129
H24   H     H_    0.814015 0.924417 0.476109 0.196883
H25   H     H_    0.557351 0.910164 0.477697 0.205252
C39   C     C_3   0.701959 0.857678 0.584406 -0.860698
H26   H     H_    0.584016 0.810338 0.601954 0.238948
H27   H     H_    0.684178 0.923499 0.619131 0.235369
H28   H     H_    0.842016 0.827236 0.600874 0.221361

loop_
_geom_bond_atom_site_label_1
_geom_bond_atom_site_label_2
_ccdc_geom_bond_type
C27   H17   S    
C11   C12   A    
C16   H9    S    
C19   H11   S    
C1    O6    A    
C23   H13   S    
C21   C22   A    
O13   V3    S    
C10   C11   A    
O5    C3    A    
O19   V4    S    
C28   C29   A    
V2    O10   S    
C15   H8    S    
C31   H19   S    
O1    C2    A    
C22   C23   S    
O8    V2    S    
C24   H15   S    
O11   C34   A    
C37   H22   S    
C33   O16   A    
O1    V2    S    
C39   H27   S    
O7    V1    S    
C9    C16   S    
C9    C14   A    
C32   O21   S    
C29   C30   A    
O17   V4    S    
C7    C8    D    
C21   C34   S    
C19   C20   A    
C25   C30   A    
C5    C6    D    
C23   H14   S    
C7    H3    S    
O17   V3    S    
C38   H25   S    
C23   C24   S    
C1    C18   S    
O18   C35   A    
C17   C18   A    
O4    C2    A    
C38   H24   S    
V3    O20   S    
C9    C10   A    
C25   C26   A    
C5    C7    S    
C30   C31   S    
O12   C33   A    
C31   H20   S    
O2    C1    A    
C20   H12   S    
C12   H6    S    
C25   C32   S    
C13   C14   A    
C15   C16   S    
C39   H28   S    
C20   C21   A    
O3    C4    A    
C29   C33   S    
C17   C22   A    
C18   C19   A    
C37   H23   S    
O6    V2    S    
O9    V2    S    
C3    C13   S    
C8    H4    S    
O12   V3    S    
C5    H1    S    
O2    V1    S    
O15   C35   A    
C26   C27   A    
C32   H21   S    
C16   H10   S    
O18   V4    S    
V4    O20   S    
C38   C39   S    
O5    V1    S    
O8    C3    A    
O11   V4    S    
C10   C36   S    
C14   C15   S    
C4    C8    S    
C27   C28   A    
O7    V2    S    
O4    V1    S    
C12   C13   A    
O3    V1    S    
V1    O10   S    
O15   V3    S    
O19   C36   A    
C28   H18   S    
O13   C36   A    
C6    C35   S    
C15   H7    S    
O16   V4    S    
C6    H2    S    
C31   C32   S    
C24   H16   S    
C37   C38   S    
O21   C37   S    
O14   V3    S    
O14   C34   A    
C2    C26   S    
C39   H26   S    
O9    C4    A    
C17   C24   S    
C11   H5    S    
