data_mof_unit_59728.cif
_audit_creation_date              2012-10-26T21:21:08-0400
_audit_creation_method            fapswitch 2.2
_symmetry_space_group_name_H-M    P1
_symmetry_Int_Tables_number       1
_space_group_crystal_system       triclinic
_cell_length_a                    10.767612
_cell_length_b                    10.903005
_cell_length_c                    9.702057
_cell_angle_alpha                 89.284669
_cell_angle_beta                  89.933378
_cell_angle_gamma                 90.126456
_cell_volume                      1138.92261671

loop_
_atom_site_label
_atom_site_type_symbol
_atom_type_description
_atom_site_fract_x
_atom_site_fract_y
_atom_site_fract_z
_atom_type_partial_charge
C1    C     C_R   0.495711 0.265291 0.500950 0.563127
C2    C     C_2   0.480837 0.133423 0.505432 -0.175196
C3    C     C_2   0.427449 0.430174 0.923171 -0.010827
C4    C     C_R   0.262738 0.501977 0.500017 0.568363
C5    C     C_2   0.428722 0.428869 0.078861 -0.009640
C6    C     C_R   0.498865 0.734823 0.499044 0.550892
C7    C     C_R   0.737339 0.502172 0.499862 0.536041
C8    C     C_R   0.130532 0.715971 0.596853 -0.100961
C9    C     C_R   0.066043 0.818162 0.643597 -0.124893
C10   C     C_R   0.936809 0.818064 0.644872 -0.120431
C11   C     C_R   0.871315 0.715963 0.598900 -0.090392
C12   C     C_R   0.066029 0.611103 0.550550 -0.020187
C13   C     C_R   0.934856 0.611352 0.551143 0.012457
C14   C     C_3   0.133954 0.214392 0.495098 -0.128666
C15   C     C_3   0.275855 0.916917 0.264748 -0.110849
C16   C     C_R   0.128948 0.507179 0.499963 0.009254
C17   C     C_R   0.063690 0.406313 0.448093 0.246547
C18   C     C_R   0.934986 0.408738 0.445823 -0.126826
C19   C     C_R   0.871040 0.508329 0.499684 -0.040235
C20   C     C_2   0.452778 0.934331 0.392964 0.241092
C21   C     C_2   0.501950 0.867506 0.497025 -0.084500
C22   C     C_2   0.468660 0.068582 0.390049 -0.157216
Cu1   Cu    Cu3+1 0.500020 0.500020 0.638630 0.930222
Cu2   Cu    Cu3+1 0.499980 0.499980 0.361370 0.991676
H1    H     H_    0.473413 0.090696 0.606648 0.094032
H2    H     H_    0.184725 0.246642 0.587835 0.117699
H3    H     H_    0.186946 0.136437 0.452446 0.131220
H4    H     H_    0.561549 0.555659 0.893026 0.210382
H5    H     H_    0.366364 0.365298 0.131142 0.153481
H6    H     H_    0.771003 0.720636 0.599266 0.125459
H7    H     H_    0.272848 0.013017 0.225281 0.118529
H8    H     H_    0.222076 0.907708 0.362553 0.105630
H9    H     H_    0.229557 0.858477 0.187309 0.150832
H10   H     H_    0.547666 0.909804 0.583860 0.046325
H11   H     H_    0.362688 0.369038 0.872758 0.135933
H12   H     H_    0.556676 0.560456 0.105136 0.213181
H13   H     H_    0.230837 0.720783 0.595674 0.131153
H14   H     H_    0.116569 0.898047 0.678090 0.101568
H15   H     H_    0.887060 0.897826 0.680513 0.109054
H16   H     H_    0.884663 0.331278 0.404287 0.132610
H17   H     H_    0.467577 0.114410 0.289970 0.161406
H18   H     H_    0.040241 0.179503 0.524416 0.109148
N1    N     N_2   0.498640 0.498660 0.846910 -0.342876
N2    N     N_2   0.498610 0.498630 0.153040 -0.342504
O1    O     O_R   0.500020 0.321960 0.617040 -0.495495
O2    O     O_3   0.399289 0.876243 0.281016 -0.534443
O3    O     O_R   0.499980 0.321920 0.382900 -0.490858
O4    O     O_R   0.319670 0.500020 0.617100 -0.515100
O5    O     O_R   0.319630 0.499980 0.382950 -0.460921
O6    O     O_R   0.500020 0.678080 0.617100 -0.522775
O7    O     O_R   0.499980 0.678040 0.382960 -0.435781
O8    O     O_R   0.680370 0.500020 0.617050 -0.497408
O9    O     O_R   0.680330 0.499980 0.382900 -0.497271
O10   O     O_3   0.126217 0.307456 0.393252 -0.561063

loop_
_geom_bond_atom_site_label_1
_geom_bond_atom_site_label_2
_ccdc_geom_bond_type
C2    C22   D    
Cu1   Cu2   S    
C4    C16   S    
Cu1   O1    S    
C6    O7    A    
C9    C10   A    
H4    N1    S    
C5    H5    S    
C3    H11   S    
C4    O5    A    
C14   H18   S    
C3    N1    D    
C20   C21   D    
Cu2   O7    S    
C17   C18   A    
C8    C9    A    
C15   H8    S    
C6    O6    A    
C15   H7    S    
C14   H3    S    
C11   C13   A    
C1    O1    A    
Cu1   O8    S    
C16   C17   A    
C9    H14   S    
C14   O10   S    
C5    N2    D    
C20   C22   S    
C7    O8    A    
C1    C2    S    
C2    H1    S    
C7    C19   S    
C6    C21   S    
C4    O4    A    
Cu2   N2    S    
C20   O2    S    
H12   N2    S    
C22   H17   S    
C10   C11   A    
C13   C19   A    
C12   C16   A    
Cu1   O4    S    
Cu1   N1    S    
C12   C13   A    
C18   C19   A    
C8    H13   S    
Cu2   O5    S    
C7    O9    A    
C1    O3    A    
Cu1   O6    S    
C18   H16   S    
C21   H10   S    
C15   O2    S    
Cu2   O9    S    
Cu2   O3    S    
C17   O10   S    
C15   H9    S    
C14   H2    S    
C8    C12   A    
C11   H6    S    
C10   H15   S    
C3    C5    S    
