data_mof_unit_9985.cif
_audit_creation_date              2012-12-10T19:50:50-0500
_audit_creation_method            fapswitch 2.2
_symmetry_space_group_name_H-M    P1
_symmetry_Int_Tables_number       1
_space_group_crystal_system       triclinic
_cell_length_a                    23.556879
_cell_length_b                    10.893333
_cell_length_c                    22.356283
_cell_angle_alpha                 90.146199
_cell_angle_beta                  90.411399
_cell_angle_gamma                 87.023689
_cell_volume                      5729.01131347

loop_
_atom_site_label
_atom_site_type_symbol
_atom_type_description
_atom_site_fract_x
_atom_site_fract_y
_atom_site_fract_z
_atom_type_partial_charge
C1    C     C_R   0.498675 0.262102 0.500013 0.858800
C2    C     C_R   0.500111 0.737698 0.500239 0.857738
C3    C     C_R   0.239444 0.572366 0.453427 -0.173471
C4    C     C_R   0.759125 0.515767 0.443449 -0.138556
C5    C     C_R   0.298526 0.563604 0.453840 -0.323642
C6    C     C_R   0.700407 0.510746 0.445464 -0.287943
C7    C     C_R   0.328415 0.501343 0.500017 -0.234675
C8    C     C_R   0.672133 0.505663 0.500433 -0.166806
C9    C     C_R   0.297864 0.448493 0.547127 0.392763
C10   C     C_R   0.704031 0.506338 0.554428 0.410492
C11   C     C_R   0.238521 0.464470 0.548688 0.462042
C12   C     C_R   0.763925 0.511475 0.552377 0.374949
C13   C     C_R   0.208957 0.522620 0.500176 0.134237
C14   C     C_R   0.791099 0.515914 0.496172 0.194776
C15   C     C_R   0.352572 0.192583 0.350201 0.372535
C16   C     C_R   0.662084 0.803591 0.621738 0.405131
C17   C     C_R   0.380580 0.152822 0.402841 -0.303336
C18   C     C_R   0.624118 0.853093 0.577783 -0.330402
C19   C     C_R   0.439512 0.128225 0.403407 0.106311
C20   C     C_R   0.565971 0.868986 0.589708 0.111142
C21   C     C_R   0.470830 0.146786 0.351459 -0.293539
C22   C     C_R   0.544938 0.831651 0.644631 -0.298569
C23   C     C_R   0.390936 0.498719 0.499921 0.802640
C24   C     C_R   0.609322 0.501153 0.500248 0.866314
C25   C     C_R   0.443304 0.186039 0.298009 0.367494
C26   C     C_R   0.582034 0.784933 0.689487 0.361238
C27   C     C_R   0.383862 0.207258 0.297683 0.407929
C28   C     C_R   0.640490 0.769295 0.677439 0.434794
C29   C     C_R   0.464925 0.937676 0.458646 0.445288
C30   C     C_R   0.522349 0.061952 0.548727 0.440748
C31   C     C_R   0.498079 0.871332 0.501383 -0.262319
C32   C     C_R   0.496422 0.128340 0.500754 -0.267607
C33   C     C_R   0.527527 0.933802 0.546102 -0.096316
C34   C     C_R   0.467653 0.065385 0.455240 -0.096499
C35   C     C_R   0.542920 0.553187 0.873422 0.616193
C36   C     C_R   0.458361 0.441866 0.127308 0.656461
C37   C     C_R   0.458014 0.443676 0.872630 0.583233
C38   C     C_R   0.542671 0.553534 0.127719 0.548863
C39   C     C_R   0.457330 0.442510 0.935979 -0.072052
C40   C     C_R   0.543504 0.553667 0.064484 -0.065037
C41   C     C_R   0.500584 0.498218 0.968373 -0.073258
C42   C     C_R   0.500325 0.497482 0.032181 -0.075223
C43   C     C_R   0.544197 0.554113 0.937017 -0.139702
C44   C     C_R   0.456897 0.440995 0.063628 -0.153369
C45   C     C_R   0.876733 0.628119 0.494666 0.591650
C46   C     C_R   0.122610 0.413980 0.490036 0.580064
C47   C     C_R   0.414444 0.386023 0.967503 -0.233911
C48   C     C_R   0.586541 0.609582 0.033025 -0.239961
C49   C     C_R   0.413243 0.386324 0.030417 0.488844
C50   C     C_R   0.587985 0.608392 0.970212 0.491552
C51   C     C_R   0.544500 0.441932 0.256258 -0.221817
C52   C     C_R   0.456714 0.558854 0.744284 -0.262381
C53   C     C_R   0.543440 0.439534 0.319156 0.482864
C54   C     C_R   0.457393 0.562096 0.681332 0.511252
C55   C     C_R   0.456601 0.560257 0.318513 0.397589
C56   C     C_R   0.543024 0.436775 0.681227 0.381360
C57   C     C_R   0.456332 0.561419 0.255277 0.454853
C58   C     C_R   0.544607 0.438065 0.744858 0.429797
C59   C     C_R   0.500395 0.500335 0.223425 0.118244
C60   C     C_R   0.500408 0.498046 0.776832 0.158642
C61   C     C_R   0.882981 0.409166 0.489119 0.575066
C62   C     C_R   0.116832 0.632586 0.498899 0.587480
C63   C     C_R   0.942865 0.407029 0.492001 -0.157445
C64   C     C_R   0.056795 0.634768 0.499518 -0.149322
C65   C     C_R   0.969716 0.520395 0.494549 -0.125554
C66   C     C_R   0.029827 0.521727 0.494907 -0.127747
C67   C     C_R   0.936452 0.632334 0.496878 -0.171609
C68   C     C_R   0.062936 0.409958 0.489964 -0.160536
C69   C     C_R   0.976646 0.295506 0.491649 0.316742
C70   C     C_R   0.022982 0.745963 0.504242 0.307753
C71   C     C_R   0.035760 0.297265 0.486444 0.447725
C72   C     C_R   0.963551 0.744683 0.502819 0.468044
Cu1   Cu    Cu3+1 0.500000 0.499970 0.559570 0.972259
Cu2   Cu    Cu3+1 0.500000 0.500030 0.440430 0.955952
H1    H     H_    0.516435 0.129037 0.352919 0.167370
H2    H     H_    0.499613 0.839331 0.652294 0.159895
H3    H     H_    0.381278 0.340842 0.943488 0.199061
H4    H     H_    0.619731 0.654758 0.057010 0.198116
H5    H     H_    0.579048 0.393634 0.232837 0.198624
H6    H     H_    0.422505 0.607580 0.768036 0.197917
H7    H     H_    0.217158 0.616606 0.416130 0.188833
H8    H     H_    0.780084 0.519024 0.400567 0.177700
H9    H     H_    0.320878 0.604585 0.417475 0.222022
H10   H     H_    0.677083 0.510852 0.403550 0.227279
H11   H     H_    0.356089 0.136656 0.442554 0.162996
H12   H     H_    0.639300 0.879326 0.534324 0.161437
N1    N     N_R   0.851797 0.517976 0.492351 -0.467358
N2    N     N_R   0.147941 0.523397 0.496062 -0.468878
N3    N     N_R   0.500326 0.498652 0.842262 -0.425783
N4    N     N_R   0.500552 0.498231 0.158144 -0.433560
N5    N     N_R   0.500010 0.500010 0.350920 -0.294652
N6    N     N_R   0.499990 0.499990 0.649080 -0.296845
O1    O     O_R   0.500000 0.319610 0.550310 -0.591832
O2    O     O_R   0.500000 0.680390 0.449690 -0.570857
O3    O     O_R   0.499990 0.319670 0.449690 -0.609311
O4    O     O_R   0.500010 0.680330 0.550310 -0.615883
O5    O     O_R   0.417880 0.499930 0.550320 -0.562434
O6    O     O_R   0.582120 0.500070 0.449680 -0.585109
O7    O     O_R   0.417880 0.499990 0.449700 -0.575917
O8    O     O_R   0.582120 0.500010 0.550300 -0.529967
O9    O     O_2   0.843438 0.732626 0.494784 -0.502320
O10   O     O_2   0.155575 0.309577 0.484463 -0.488265
O11   O     O_2   0.855671 0.304228 0.481996 -0.504227
O12   O     O_2   0.144328 0.738060 0.501023 -0.503325
O13   O     O_2   0.583973 0.606912 0.843022 -0.458172
O14   O     O_2   0.418091 0.386341 0.158204 -0.400096
O15   O     O_2   0.416854 0.388984 0.841767 -0.529235
O16   O     O_2   0.583494 0.609606 0.158474 -0.550702
O17   O     O_3   0.953729 0.182451 0.497791 -0.635778
H13   H     H_    0.928308 0.188172 0.532942 0.346234
O18   O     O_3   0.046510 0.858363 0.510320 -0.637475
H14   H     H_    0.069106 0.854384 0.547923 0.351187
O19   O     O_3   0.472584 0.209915 0.245920 -0.535527
C73   C     C_3   0.514731 0.116660 0.233591 -0.299999
H15   H     H_    0.499830 0.022898 0.242206 0.146078
H16   H     H_    0.554227 0.132560 0.259248 0.177932
H17   H     H_    0.525427 0.121190 0.185435 0.197313
O20   O     O_3   0.562419 0.747787 0.744501 -0.537138
C74   C     C_3   0.526643 0.840897 0.770694 -0.261339
H18   H     H_    0.482731 0.838226 0.752533 0.154907
H19   H     H_    0.543274 0.934125 0.765223 0.139978
H20   H     H_    0.524282 0.823193 0.819411 0.214599
O21   O     O_3   0.430836 0.878266 0.418347 -0.577176
C75   C     C_3   0.379497 0.852384 0.446987 -0.288344
H21   H     H_    0.360844 0.931995 0.472746 0.159499
H22   H     H_    0.385841 0.772014 0.477184 0.147428
H23   H     H_    0.347936 0.828978 0.412293 0.211724
O22   O     O_3   0.547867 0.121796 0.595740 -0.570575
C76   C     C_3   0.510965 0.126430 0.645640 -0.244096
H24   H     H_    0.481085 0.050700 0.647529 0.125804
H25   H     H_    0.485258 0.214548 0.646284 0.190086
H26   H     H_    0.537145 0.122083 0.687097 0.193932
O23   O     O_3   0.370884 0.326124 0.058955 -0.550763
C77   C     C_3   0.320875 0.403133 0.058676 -0.228543
H27   H     H_    0.327925 0.493236 0.080447 0.175801
H28   H     H_    0.287970 0.357942 0.084748 0.191955
H29   H     H_    0.304022 0.417317 0.012461 0.141483
O24   O     O_3   0.630706 0.667585 0.941748 -0.542012
C78   C     C_3   0.680344 0.589401 0.942060 -0.245057
H30   H     H_    0.697218 0.575326 0.988273 0.144432
H31   H     H_    0.672799 0.499273 0.920552 0.158671
H32   H     H_    0.713430 0.633477 0.915758 0.187726
O25   O     O_3   0.587460 0.373462 0.346593 -0.730412
H33   H     H_    0.572398 0.334952 0.382398 0.362424
O26   O     O_3   0.413406 0.629267 0.654378 -0.697206
H34   H     H_    0.427713 0.664304 0.617371 0.356457
O27   O     O_3   0.411698 0.622205 0.345704 -0.705753
H35   H     H_    0.426448 0.658490 0.382372 0.385992
O28   O     O_3   0.585789 0.367563 0.653837 -0.685618
H36   H     H_    0.572520 0.341378 0.614673 0.405903
O29   O     O_3   0.411997 0.622042 0.224790 -0.517435
C79   C     C_3   0.426086 0.744870 0.215715 -0.289326
H37   H     H_    0.464823 0.749951 0.187801 0.156423
H38   H     H_    0.431886 0.793773 0.258953 0.183664
H39   H     H_    0.390534 0.793760 0.191346 0.183039
O30   O     O_3   0.585142 0.367424 0.776758 -0.586194
C80   C     C_3   0.640536 0.405424 0.765413 -0.107745
H40   H     H_    0.641757 0.502028 0.749481 0.222047
H41   H     H_    0.662069 0.342320 0.732696 0.192040
H42   H     H_    0.665450 0.398831 0.807679 0.149300
O31   O     O_3   0.067106 0.186259 0.484977 -0.497133
C81   C     C_3   0.067880 0.142170 0.425576 -0.065222
H43   H     H_    0.086280 0.209111 0.394544 0.110808
H44   H     H_    0.024672 0.119575 0.410074 0.177368
H45   H     H_    0.095237 0.056228 0.423909 0.210295
O32   O     O_3   0.932229 0.855584 0.506163 -0.482415
C82   C     C_3   0.924642 0.887007 0.566998 -0.162453
H46   H     H_    0.965561 0.909038 0.588553 0.157448
H47   H     H_    0.904560 0.812923 0.592301 0.124687
H48   H     H_    0.895719 0.970463 0.569676 0.184371
O33   O     O_3   0.324165 0.379372 0.592047 -0.639080
H49   H     H_    0.358431 0.335646 0.575393 0.314614
O34   O     O_3   0.675726 0.502222 0.608319 -0.679837
H50   H     H_    0.702908 0.502840 0.642226 0.383919
O35   O     O_3   0.210872 0.418340 0.597403 -0.645438
H51   H     H_    0.171095 0.452365 0.597931 0.323407
O36   O     O_3   0.794192 0.511695 0.605688 -0.726675
H52   H     H_    0.835298 0.516124 0.597969 0.327817
O37   O     O_3   0.356035 0.247236 0.246161 -0.499293
C83   C     C_3   0.344576 0.143739 0.210933 -0.133032
H53   H     H_    0.316951 0.080626 0.235033 0.138555
H54   H     H_    0.384464 0.093389 0.196448 0.153725
H55   H     H_    0.321423 0.175628 0.169996 0.197071
O38   O     O_3   0.676889 0.716688 0.719975 -0.549578
C84   C     C_3   0.695899 0.810643 0.757415 -0.201716
H56   H     H_    0.659979 0.858091 0.781748 0.176616
H57   H     H_    0.719761 0.878333 0.731707 0.146093
H58   H     H_    0.725359 0.768559 0.791408 0.184259
O39   O     O_3   0.293879 0.202062 0.347330 -0.560802
C85   C     C_3   0.274421 0.308576 0.378208 -0.184747
H59   H     H_    0.293347 0.391880 0.359699 0.177698
H60   H     H_    0.283095 0.300021 0.427003 0.160323
H61   H     H_    0.227671 0.320382 0.372231 0.198997
O40   O     O_3   0.719848 0.780518 0.611588 -0.542486
C86   C     C_3   0.743651 0.877526 0.580296 -0.224720
H62   H     H_    0.727214 0.969640 0.596148 0.142036
H63   H     H_    0.736692 0.867122 0.531400 0.193196
H64   H     H_    0.790221 0.872261 0.588298 0.207019

loop_
_geom_bond_atom_site_label_1
_geom_bond_atom_site_label_2
_ccdc_geom_bond_type
C44   C49   A    
C16   C28   A    
Cu1   O8    S    
C23   O7    A    
O33   H49   S    
C63   C65   A    
C37   O15   S    
C80   H40   S    
C73   H16   S    
C61   O11   S    
C11   C13   A    
C41   C42   A    
Cu2   O2    S    
C66   C68   A    
O27   H35   S    
C9    O33   S    
C22   H2    S    
O22   C76   S    
C77   H29   S    
O31   C81   S    
O21   C75   S    
C39   C41   A    
O34   H50   S    
C46   C68   A    
C46   O10   S    
C85   H59   S    
C24   O6    A    
C39   C47   A    
O30   C80   S    
C45   N1    A    
C27   O37   S    
C14   N1    S    
C81   H43   S    
C5    H9    S    
C78   H32   S    
C57   C59   A    
C58   C60   A    
O25   H33   S    
C29   O21   S    
O38   C84   S    
C61   C63   A    
C67   C72   A    
Cu1   Cu2   S    
C48   H4    S    
C69   C71   A    
O20   C74   S    
C62   C64   A    
C52   C60   A    
C85   H61   S    
C17   C19   A    
O19   C73   S    
C69   O17   S    
C63   C69   A    
C83   H54   S    
C65   C67   A    
C49   O23   S    
C53   N5    A    
C55   N5    A    
O29   C79   S    
C31   C33   A    
Cu1   O1    S    
C61   N1    A    
C62   O12   S    
C3    C13   A    
C83   H55   S    
C28   O38   S    
C76   H26   S    
C10   O34   S    
C40   C42   A    
C12   O36   S    
C15   O39   S    
C80   H41   S    
C38   C40   A    
C29   C31   A    
C41   C43   A    
C42   C44   A    
C26   C28   A    
C52   C54   A    
O26   H34   S    
C82   H48   S    
C81   H44   S    
C74   H19   S    
C30   O22   S    
C6    H10   S    
C36   O14   S    
C2    O2    A    
C16   O40   S    
C47   C49   A    
O24   C78   S    
C82   H46   S    
C5    C7    A    
C45   O9    S    
C84   H58   S    
C6    C8    A    
C60   N3    S    
C62   N2    A    
C29   C34   A    
C1    C32   S    
O37   C83   S    
C82   H47   S    
C2    C31   S    
C53   O25   S    
C59   N4    S    
C32   C34   A    
Cu2   N5    S    
Cu1   O5    S    
C86   H63   S    
C54   N6    A    
C35   O13   S    
C25   O19   S    
C81   H45   S    
C38   N4    A    
C15   C27   A    
O35   H51   S    
C79   H39   S    
C1    O3    A    
C16   C18   A    
C18   H12   S    
C74   H18   S    
C48   C50   A    
C9    C11   A    
C77   H27   S    
C10   C12   A    
C54   O26   S    
C55   O27   S    
C35   N3    A    
C4    C6    A    
C23   O5    A    
C20   C22   A    
C65   C66   A    
C80   H42   S    
C64   C70   A    
C75   H23   S    
C22   C26   A    
O32   C82   S    
C17   H11   S    
C45   C67   A    
C36   C44   A    
C51   C59   A    
C20   C33   S    
C35   C43   A    
C83   H53   S    
C75   H22   S    
C76   H24   S    
C74   H20   S    
C36   N4    A    
C40   C48   A    
C21   C25   A    
C85   H60   S    
Cu2   O6    S    
O18   H14   S    
C19   C21   A    
C24   O8    A    
C72   O32   S    
Cu2   O3    S    
C8    C10   A    
C3    H7    S    
C26   O20   S    
Cu1   N6    S    
C79   H38   S    
C3    C5    A    
C19   C34   S    
C77   H28   S    
C78   H30   S    
C50   O24   S    
C43   C50   A    
C73   H15   S    
Cu2   O7    S    
C37   N3    A    
C25   C27   A    
C21   H1    S    
C11   O35   S    
C46   N2    A    
C71   O31   S    
C86   H64   S    
C55   C57   A    
C12   C14   A    
C37   C39   A    
C4    C14   A    
C52   H6    S    
O28   H36   S    
C30   C32   A    
C78   H31   S    
C84   H56   S    
O23   C77   S    
C68   C71   A    
C7    C23   S    
C57   O29   S    
C13   N2    S    
C2    O4    A    
C8    C24   S    
C56   C58   A    
O40   C86   S    
C30   C33   A    
C18   C20   A    
C38   O16   S    
O39   C85   S    
C51   H5    S    
C73   H17   S    
C84   H57   S    
C70   O18   S    
C86   H62   S    
C7    C9    A    
C56   N6    A    
C4    H8    S    
C79   H37   S    
C1    O1    A    
O36   H52   S    
C58   O30   S    
O17   H13   S    
C47   H3    S    
C70   C72   A    
Cu1   O4    S    
C51   C53   A    
C56   O28   S    
C15   C17   A    
C64   C66   A    
C75   H21   S    
C76   H25   S    
