data_mof_unit_12714.cif
_audit_creation_date              2012-12-10T18:44:22-0500
_audit_creation_method            fapswitch 2.2
_symmetry_space_group_name_H-M    P1
_symmetry_Int_Tables_number       1
_space_group_crystal_system       triclinic
_cell_length_a                    12.886838
_cell_length_b                    10.881406
_cell_length_c                    9.809147
_cell_angle_alpha                 90.011549
_cell_angle_beta                  96.841296
_cell_angle_gamma                 89.774103
_cell_volume                      1365.70204221

loop_
_atom_site_label
_atom_site_type_symbol
_atom_type_description
_atom_site_fract_x
_atom_site_fract_y
_atom_site_fract_z
_atom_type_partial_charge
C1    C     C_R   0.493226 0.259676 0.500778 0.884953
C2    C     C_R   0.506669 0.740337 0.502997 0.884494
C3    C     C_R   0.514287 0.873563 0.512826 -0.158140
C4    C     C_R   0.485381 0.126465 0.508203 -0.157964
C5    C     C_R   0.589371 0.524680 0.085786 -0.106259
C6    C     C_R   0.410732 0.474641 0.914254 -0.092203
C7    C     C_R   0.589248 0.525205 0.941824 -0.096096
C8    C     C_R   0.410659 0.475392 0.058190 -0.110107
C9    C     C_R   0.298095 0.500309 0.473481 0.876138
C10   C     C_R   0.701917 0.499987 0.526468 0.876215
C11   C     C_R   0.813853 0.501803 0.541963 -0.052016
C12   C     C_R   0.186165 0.499778 0.457672 -0.049247
C13   C     C_R   0.021547 0.472744 0.317933 -0.230213
C14   C     C_R   0.978448 0.529912 0.681413 -0.227846
C15   C     C_R   0.129444 0.477434 0.329271 -0.212082
C16   C     C_R   0.870607 0.523941 0.670364 -0.215938
C17   C     C_R   0.135860 0.518993 0.574206 -0.294605
C18   C     C_R   0.864113 0.484114 0.425080 -0.286469
C19   C     C_R   0.028746 0.513342 0.564156 0.192313
C20   C     C_R   0.971212 0.489969 0.435062 0.189655
C21   C     C_R   0.480043 0.059354 0.384980 0.052471
C22   C     C_R   0.505833 0.935692 0.640377 0.043835
C23   C     C_R   0.519765 0.940603 0.391264 0.053095
C24   C     C_R   0.493523 0.064396 0.638403 0.044119
H1    H     H_    0.820144 0.465935 0.325838 0.153810
H2    H     H_    0.179853 0.537526 0.673360 0.150216
H3    H     H_    0.831824 0.538005 0.761245 0.150431
H4    H     H_    0.168290 0.462112 0.238663 0.155753
H5    H     H_    0.977746 0.454855 0.218619 0.133611
H6    H     H_    0.022269 0.547606 0.780762 0.133763
H7    H     H_    0.660945 0.544079 0.150998 0.138765
H8    H     H_    0.339358 0.453768 0.849187 0.129552
H9    H     H_    0.660515 0.545681 0.898536 0.123696
H10   H     H_    0.339221 0.456243 0.101578 0.134674
N1    N     N_R   0.499970 0.499970 0.857200 -0.068604
N2    N     N_R   0.500030 0.500030 0.142800 -0.074578
O1    O     O_R   0.499990 0.316750 0.614620 -0.630483
O2    O     O_R   0.500010 0.683250 0.385380 -0.611635
O3    O     O_R   0.499990 0.316780 0.385290 -0.612817
O4    O     O_R   0.500010 0.683220 0.614710 -0.631358
O5    O     O_R   0.346360 0.499970 0.595710 -0.640439
O6    O     O_R   0.653640 0.500030 0.404290 -0.630105
O7    O     O_R   0.346360 0.499990 0.366380 -0.629697
O8    O     O_R   0.653640 0.500010 0.633620 -0.639680
Zn1   Zn    Zn3+2 0.500000 0.499980 0.653120 0.918560
Zn2   Zn    Zn3+2 0.500000 0.500020 0.346880 0.936665
C25   C     C_3   0.422544 0.106173 0.249463 -0.411953
C26   C     C_3   0.309926 0.146283 0.264459 -0.310821
C27   C     C_3   0.248284 0.172396 0.124650 -0.912039
H11   H     H_    0.288959 0.242007 0.067911 0.253704
H12   H     H_    0.239309 0.086779 0.062708 0.262397
H13   H     H_    0.169397 0.207870 0.138972 0.250459
H14   H     H_    0.269692 0.072315 0.315856 0.218223
H15   H     H_    0.309706 0.230562 0.328145 0.223134
H16   H     H_    0.465775 0.180722 0.204945 0.231786
H17   H     H_    0.416440 0.031913 0.172230 0.190255
C28   C     C_3   0.510735 0.868773 0.780057 -0.348804
C29   C     C_3   0.399940 0.831683 0.810172 -0.308254
C30   C     C_3   0.398220 0.796599 0.959850 -0.911287
H18   H     H_    0.460842 0.729356 0.992459 0.280327
H19   H     H_    0.410323 0.879552 0.024332 0.242590
H20   H     H_    0.321394 0.756089 0.974601 0.252127
H21   H     H_    0.344168 0.908974 0.785967 0.199897
H22   H     H_    0.369487 0.753336 0.745467 0.252674
H23   H     H_    0.567413 0.791730 0.791430 0.206863
H24   H     H_    0.549391 0.924111 0.865790 0.184722
C31   C     C_3   0.577516 0.893761 0.273949 -0.413121
C32   C     C_3   0.690118 0.853821 0.324559 -0.310518
C33   C     C_3   0.751961 0.827300 0.204320 -0.902975
H25   H     H_    0.711485 0.757334 0.135148 0.252876
H26   H     H_    0.760854 0.912683 0.144778 0.259734
H27   H     H_    0.830872 0.792103 0.243663 0.254555
H28   H     H_    0.730232 0.928033 0.388327 0.216930
H29   H     H_    0.690318 0.769772 0.388634 0.224109
H30   H     H_    0.534401 0.819191 0.215712 0.231959
H31   H     H_    0.583752 0.968002 0.198691 0.189854
C34   C     C_3   0.488430 0.131389 0.776478 -0.349055
C35   C     C_3   0.599214 0.168232 0.841610 -0.307088
C36   C     C_3   0.600817 0.202980 0.991899 -0.912370
H32   H     H_    0.538323 0.270377 0.004981 0.280421
H33   H     H_    0.588438 0.119892 0.052169 0.242323
H34   H     H_    0.677697 0.243169 0.031051 0.251993
H35   H     H_    0.654946 0.090918 0.834712 0.199527
H36   H     H_    0.629816 0.246675 0.786798 0.253666
H37   H     H_    0.431899 0.208591 0.769919 0.208092
H38   H     H_    0.449489 0.076151 0.849903 0.184886

loop_
_geom_bond_atom_site_label_1
_geom_bond_atom_site_label_2
_ccdc_geom_bond_type
C6    H8    S    
C11   C18   A    
C10   O6    A    
C3    C23   A    
C19   C20   A    
C28   H24   S    
C22   C28   S    
C28   C29   S    
C34   C35   S    
C26   H15   S    
C17   H2    S    
C13   H5    S    
C8    N2    A    
C4    C24   A    
C32   H29   S    
C5    N2    A    
C6    N1    A    
O6    Zn2   S    
C23   C31   S    
C33   H26   S    
C35   H35   S    
C32   C33   S    
C27   H12   S    
C12   C17   A    
N2    Zn2   S    
C18   C20   A    
C1    O1    A    
C16   H3    S    
C34   H37   S    
C30   H18   S    
C7    H9    S    
O4    Zn1   S    
C18   H1    S    
C14   H6    S    
C9    C12   S    
C5    C7    A    
C29   H22   S    
C26   H14   S    
C30   H19   S    
C9    O7    A    
C10   O8    A    
C31   C32   S    
C36   H33   S    
C35   C36   S    
C6    C8    A    
C29   C30   S    
C33   H27   S    
C35   H36   S    
C11   C16   A    
C2    O2    A    
C25   C26   S    
C12   C15   A    
C27   H13   S    
C8    H10   S    
O3    Zn2   S    
C26   C27   S    
C34   H38   S    
C13   C15   A    
C14   C16   A    
C31   H30   S    
O1    Zn1   S    
N1    Zn1   S    
O8    Zn1   S    
C25   H16   S    
C29   H21   S    
C30   H20   S    
C13   C20   A    
C7    N1    A    
C14   C19   A    
C28   H23   S    
C36   H34   S    
C9    O5    A    
C1    C4    S    
C21   C23   A    
C2    C3    S    
C32   H28   S    
C4    C21   A    
C15   H4    S    
C17   C19   A    
C22   C24   A    
C33   H25   S    
O7    Zn2   S    
O2    Zn2   S    
C10   C11   S    
C1    O3    A    
C36   H32   S    
C2    O4    A    
C24   C34   S    
C27   H11   S    
O5    Zn1   S    
C3    C22   A    
C31   H31   S    
C5    H7    S    
C25   H17   S    
C21   C25   S    
