data_mof_unit_17421.cif
_audit_creation_date              2012-12-10T20:58:02-0500
_audit_creation_method            fapswitch 2.2
_symmetry_space_group_name_H-M    P1
_symmetry_Int_Tables_number       1
_space_group_crystal_system       triclinic
_cell_length_a                    18.173137
_cell_length_b                    18.226977
_cell_length_c                    18.430792
_cell_angle_alpha                 120.175723
_cell_angle_beta                  89.945998
_cell_angle_gamma                 119.702752
_cell_volume                      4326.7780015

loop_
_atom_site_label
_atom_site_type_symbol
_atom_type_description
_atom_site_fract_x
_atom_site_fract_y
_atom_site_fract_z
_atom_type_partial_charge
C1    C     C_R   0.360625 0.220129 0.361009 0.516326
C2    C     C_3   0.792352 0.942092 0.686949 -0.104412
C3    C     C_2   0.906689 0.698721 0.314964 0.294639
C4    C     C_2   0.495240 0.149413 0.400926 0.264159
C5    C     C_2   0.184696 0.336006 0.067264 0.267394
C6    C     C_2   0.292499 0.138136 0.642032 0.225142
C7    C     C_2   0.213600 0.855497 0.859992 0.216638
C8    C     C_2   0.006862 0.857576 0.099451 0.264744
C9    C     C_2   0.172229 0.325317 0.259891 0.286888
C10   C     C_2   0.853182 0.482640 0.557149 0.258836
C11   C     C_2   0.053586 0.336739 0.170916 0.223204
C12   C     C_2   0.277200 0.776866 0.564796 0.268630
C13   C     C_3   0.697489 0.897865 0.700408 -0.040147
C14   C     C_2   0.390496 0.777278 0.809640 0.219294
C15   C     C_2   0.128673 0.564580 0.742992 0.255863
C16   C     C_2   0.320021 0.286644 0.888443 0.270214
C17   C     C_2   0.327193 0.692829 0.261381 0.202253
C18   C     C_R   0.640569 0.780952 0.639399 0.452861
C19   C     C_3   0.799212 0.103227 0.804002 -0.037483
C20   C     C_3   0.767192 0.061343 0.862128 -0.068751
C21   C     C_3   0.853277 0.061840 0.754072 -0.215564
C22   C     C_3   0.640222 0.409320 0.202324 -0.236468
C23   C     C_3   0.700048 0.409892 0.143742 -0.267620
C24   C     C_3   0.744480 0.602003 0.310716 -0.231150
C25   C     C_3   0.771531 0.488412 0.330787 -0.100850
C26   C     C_3   0.330007 0.614035 0.343902 -0.223466
C27   C     C_3   0.697736 0.498509 0.301860 0.046066
C28   C     C_3   0.800033 0.501987 0.201017 0.012325
C29   C     C_3   0.809334 0.608381 0.254379 0.004303
C30   C     C_R   0.358332 0.499973 0.639891 0.525942
C31   C     C_3   0.827724 0.483976 0.267335 -0.244112
C32   C     C_R   0.484267 0.190087 0.550226 -0.069950
C33   C     C_R   0.441784 0.146104 0.461601 0.048560
C34   C     C_R   0.348204 0.098830 0.432055 -0.009715
C35   C     C_R   0.299716 0.096043 0.491108 -0.043810
C36   C     C_R   0.342887 0.140332 0.579350 0.033818
C37   C     C_3   0.303704 0.502436 0.301263 -0.073159
C38   C     C_R   0.435281 0.187184 0.608302 -0.165463
C39   C     C_R   0.241508 0.943556 0.284285 -0.141194
C40   C     C_R   0.193432 0.892276 0.195908 0.017076
C41   C     C_R   0.201842 0.949332 0.161647 -0.046800
C42   C     C_R   0.640441 0.499466 0.359467 0.554247
C43   C     C_R   0.258164 0.056403 0.217190 -0.135156
C44   C     C_R   0.305743 0.107706 0.305781 0.018481
C45   C     C_R   0.298367 0.050622 0.339621 -0.054185
C46   C     C_R   0.202297 0.900173 0.009432 -0.110695
C47   C     C_R   0.160474 0.855838 0.920858 0.041884
C48   C     C_3   0.201019 0.500285 0.197566 -0.073291
C49   C     C_R   0.068728 0.812613 0.891535 -0.089340
C50   C     C_R   0.019442 0.813428 0.949784 -0.094511
C51   C     C_R   0.060697 0.857396 0.038766 0.047474
C52   C     C_R   0.153415 0.901131 0.068658 0.010880
C53   C     C_R   0.922271 0.655190 0.586887 -0.118426
C54   C     C_R   0.641900 0.500895 0.640763 0.533788
C55   C     C_R   0.872472 0.587850 0.611186 0.040184
C56   C     C_R   0.843087 0.623131 0.685279 0.054074
C57   C     C_R   0.864797 0.724265 0.732803 -0.103729
C58   C     C_R   0.913549 0.789402 0.706978 -0.104615
C59   C     C_3   0.143028 0.439048 0.236300 -0.152991
C60   C     C_R   0.942189 0.754908 0.634137 -0.079155
C61   C     C_R   0.841432 0.553781 0.769786 -0.105536
C62   C     C_R   0.799371 0.498381 0.805817 0.043049
C63   C     C_R   0.705550 0.445128 0.788310 -0.030889
C64   C     C_R   0.656560 0.449466 0.735370 -0.151559
C65   C     C_R   0.698498 0.503930 0.698550 0.052557
C66   C     C_R   0.360300 0.502253 0.359697 0.514658
C67   C     C_R   0.792492 0.558465 0.717166 0.014695
C68   C     C_R   0.630230 0.282535 0.781126 -0.066952
C69   C     C_R   0.582155 0.225183 0.814056 -0.104958
C70   C     C_3   0.272442 0.614706 0.282114 -0.128333
C71   C     C_R   0.558352 0.268953 0.888738 -0.093897
C72   C     C_R   0.582480 0.370074 0.930544 -0.119028
C73   C     C_R   0.630984 0.427894 0.898139 -0.087443
C74   C     C_R   0.655537 0.384593 0.823531 0.047627
C75   C     C_R   0.331262 0.769353 0.683299 -0.109700
C76   C     C_R   0.328468 0.715450 0.718366 0.024005
C77   C     C_R   0.266283 0.606065 0.666245 0.043357
C78   C     C_3   0.317284 0.461084 0.207608 -0.111230
C79   C     C_R   0.209830 0.554201 0.580826 -0.117980
C80   C     C_R   0.213138 0.609166 0.547442 -0.080859
C81   C     C_3   0.654223 0.942960 0.675768 -0.095443
C82   C     C_R   0.273779 0.717135 0.598456 0.072017
C83   C     C_R   0.188637 0.532224 0.747406 0.003065
C84   C     C_R   0.179499 0.482808 0.790014 0.039631
C85   C     C_R   0.219396 0.427913 0.771452 -0.039115
C86   C     C_R   0.278055 0.437239 0.723478 -0.134649
C87   C     C_R   0.296690 0.496734 0.691038 0.048232
C88   C     C_R   0.251661 0.544961 0.702640 0.003768
C89   C     C_R   0.264593 0.359247 0.837613 -0.094479
C90   C     C_3   0.251591 0.451460 0.142029 -0.007281
C91   C     C_R   0.246380 0.277455 0.842013 0.081479
C92   C     C_3   0.717474 0.062534 0.732883 -0.255606
C93   C     C_R   0.158596 0.187104 0.800355 0.015443
C94   C     C_R   0.090401 0.178842 0.754959 -0.083634
C95   C     C_R   0.108970 0.260026 0.750048 -0.038783
C96   C     C_R   0.196260 0.351030 0.791373 0.048693
C97   C     C_R   0.857145 0.500338 0.142784 0.515906
C98   C     C_R   0.133839 0.494761 0.856969 0.533392
C99   C     C_R   0.857099 0.219349 0.861566 0.505349
C100  C     C_R   0.137400 0.779878 0.141129 0.499206
C101  C     C_R   0.855868 0.499691 0.862017 0.534506
C102  C     C_3   0.203174 0.433980 0.291870 -0.120453
C103  C     C_3   0.713854 0.938202 0.802553 -0.026848
C104  C     C_R   0.140939 0.500687 0.142213 0.450592
C105  C     C_2   0.560615 0.908851 0.680365 0.212003
C106  C     C_2   0.626913 0.887353 0.821085 0.177221
C107  C     C_2   0.716270 0.102222 0.915224 0.288625
C108  C     C_2   0.415982 0.524732 0.217213 0.291908
C109  C     C_2   0.785894 0.905539 0.591102 0.206045
C110  C     C_2   0.766719 0.903501 0.824840 0.264615
C111  C     C_2   0.300790 0.504531 0.097069 0.326431
C112  C     C_2   0.781192 0.626094 0.189665 0.207577
C113  C     C_2   0.737655 0.398465 0.338038 0.231359
H1    H     H_    0.300484 0.382386 0.179735 0.149463
H2    H     H_    0.675473 0.413442 0.091246 0.129410
H3    H     H_    0.691664 0.608094 0.289102 0.114391
H4    H     H_    0.555647 0.226653 0.574802 0.169447
H5    H     H_    0.228136 0.059596 0.467978 0.170184
H6    H     H_    0.273258 0.933763 0.032584 0.111855
H7    H     H_    0.035048 0.778103 0.823446 0.158977
H8    H     H_    0.945457 0.630269 0.530636 0.109935
H9    H     H_    0.843545 0.752470 0.789932 0.128202
H10   H     H_    0.584801 0.409582 0.722983 0.137419
H11   H     H_    0.521088 0.224488 0.914135 0.130715
H12   H     H_    0.647802 0.914956 0.605200 0.199268
H13   H     H_    0.563696 0.403693 0.988150 0.128828
H14   H     H_    0.649473 0.506211 0.931059 0.139328
H15   H     H_    0.377729 0.852953 0.722886 0.084159
H16   H     H_    0.167087 0.567442 0.482383 0.146261
H17   H     H_    0.308466 0.395345 0.709966 0.147508
H18   H     H_    0.332602 0.428120 0.867565 0.118276
H19   H     H_    0.317759 0.642965 0.408780 0.172851
H20   H     H_    0.142867 0.122596 0.802212 0.164100
H21   H     H_    0.023596 0.108025 0.721343 0.112584
H22   H     H_    0.235038 0.643949 0.321344 0.174221
H23   H     H_    0.681030 0.097841 0.764567 0.116128
H24   H     H_    0.198488 0.470016 0.359954 0.153415
H25   H     H_    0.121958 0.486762 0.284472 0.156505
H26   H     H_    0.549031 0.936045 0.743604 0.065651
H27   H     H_    0.741866 0.088061 0.688998 0.164421
H28   H     H_    0.562335 0.830083 0.769171 0.131726
H29   H     H_    0.652996 0.081162 0.881999 0.082521
H30   H     H_    0.450499 0.605525 0.242575 0.160508
H31   H     H_    0.766072 0.827171 0.542417 0.139438
H32   H     H_    0.735506 0.821375 0.792493 0.120055
H33   H     H_    0.693482 0.335166 0.108516 0.173441
H34   H     H_    0.826299 0.912235 0.701865 0.120610
H35   H     H_    0.290760 0.557759 0.095849 0.113177
H36   H     H_    0.711600 0.576020 0.147820 0.117777
H37   H     H_    0.817436 0.559617 0.398516 0.136431
H38   H     H_    0.785975 0.389102 0.359649 0.125095
H39   H     H_    0.818716 0.407793 0.228917 0.145220
H40   H     H_    0.900246 0.542770 0.307360 0.162621
H41   H     H_    0.779640 0.668093 0.382118 0.174551
H42   H     H_    0.955874 0.731571 0.287778 0.175788
H43   H     H_    0.469563 0.221618 0.676157 0.102247
H44   H     H_    0.462793 0.110983 0.331240 0.120586
H45   H     H_    0.885827 0.100707 0.721161 0.175005
H46   H     H_    0.155191 0.279222 0.082023 0.076798
H47   H     H_    0.327168 0.171845 0.709697 0.111053
H48   H     H_    0.236362 0.900078 0.310362 0.154968
H49   H     H_    0.263340 0.099830 0.191050 0.153929
H50   H     H_    0.284306 0.888053 0.883648 0.094643
H51   H     H_    0.948740 0.779628 0.925028 0.151762
H52   H     H_    0.038396 0.894903 0.169090 0.126438
H53   H     H_    0.980127 0.805631 0.614291 0.161315
H54   H     H_    0.174289 0.274116 0.196832 0.098266
H55   H     H_    0.885849 0.464571 0.507854 0.102585
H56   H     H_    0.908978 0.083699 0.803113 0.149710
H57   H     H_    0.929452 0.866904 0.743742 0.136771
H58   H     H_    0.913223 0.594026 0.782371 0.156166
H59   H     H_    0.648019 0.247851 0.722988 0.121899
H60   H     H_    0.563144 0.146757 0.781565 0.104826
H61   H     H_    0.034570 0.303991 0.100620 0.144059
H62   H     H_    0.326103 0.860207 0.604496 0.132605
H63   H     H_    0.432916 0.861149 0.847513 0.110400
H64   H     H_    0.161204 0.470992 0.540975 0.146643
H65   H     H_    0.155540 0.637376 0.751365 0.135169
H66   H     H_    0.387975 0.355687 0.917672 0.126445
H67   H     H_    0.829241 0.097195 0.913088 0.209755
H68   H     H_    0.056100 0.250614 0.711470 0.129220
H69   H     H_    0.403248 0.667968 0.360983 0.183665
H70   H     H_    0.293000 0.707767 0.227931 0.124082
H71   H     H_    0.590005 0.418496 0.180592 0.162763
H72   H     H_    0.601993 0.332883 0.192024 0.194031
O1    O     O_3   0.500000 0.500000 0.500000 -0.453920
O2    O     O_R   0.113800 0.731630 0.056520 -0.538129
O3    O     O_R   0.819390 0.439310 0.886160 -0.536950
O4    O     O_R   0.383400 0.268380 0.323710 -0.538359
O5    O     O_R   0.115110 0.560720 0.179280 -0.551014
O6    O     O_R   0.941380 0.560750 0.885620 -0.529478
O7    O     O_R   0.115110 0.439270 0.057830 -0.518706
O8    O     O_R   0.942690 0.268390 0.886930 -0.539458
O9    O     O_R   0.114340 0.731630 0.178520 -0.553807
O10   O     O_R   0.820160 0.439310 0.057830 -0.529030
O11   O     O_R   0.113800 0.560730 0.885620 -0.507082
O12   O     O_R   0.383400 0.560740 0.616060 -0.531495
O13   O     O_R   0.555060 0.731630 0.615290 -0.519888
O14   O     O_R   0.383950 0.439280 0.616600 -0.552528
O15   O     O_R   0.677590 0.560710 0.444390 -0.549574
O16   O     O_R   0.556370 0.439260 0.616600 -0.549428
O17   O     O_R   0.382640 0.439290 0.322940 -0.521632
O18   O     O_R   0.678360 0.560700 0.616060 -0.535969
O19   O     O_R   0.382640 0.560750 0.444390 -0.529243
O20   O     O_2   0.497063 0.852922 0.612505 -0.503789
O21   O     O_2   0.628836 0.907926 0.895537 -0.426314
O22   O     O_2   0.746258 0.159638 0.996363 -0.461159
O23   O     O_R   0.555060 0.439270 0.322940 -0.511788
O24   O     O_2   0.457259 0.485065 0.195192 -0.487753
O25   O     O_2   0.801478 0.961491 0.566841 -0.497364
O26   O     O_2   0.843078 0.964378 0.877446 -0.511485
O27   O     O_2   0.347540 0.482335 0.055908 -0.494642
O28   O     O_2   0.834643 0.695968 0.183639 -0.480255
O29   O     O_2   0.657992 0.336391 0.320508 -0.469999
O30   O     O_2   0.932321 0.733322 0.393284 -0.529823
O31   O     O_2   0.576628 0.195421 0.428111 -0.435233
O32   O     O_2   0.162515 0.304368 0.989448 -0.460521
O33   O     O_2   0.211958 0.098732 0.619052 -0.498978
O34   O     O_R   0.383950 0.268380 0.445700 -0.533605
O35   O     O_2   0.179290 0.818949 0.782852 -0.515174
O36   O     O_2   0.926171 0.815722 0.072327 -0.456811
O37   O     O_2   0.145351 0.294462 0.306158 -0.464631
O38   O     O_2   0.800350 0.414636 0.565336 -0.441029
O39   O     O_2   0.999827 0.291195 0.197596 -0.429447
O40   O     O_2   0.225416 0.734132 0.492767 -0.532408
O41   O     O_2   0.396307 0.736790 0.843593 -0.473145
O42   O     O_2   0.047877 0.507311 0.725342 -0.476850
O43   O     O_2   0.305941 0.217484 0.894588 -0.496520
O44   O     O_2   0.408794 0.740533 0.281906 -0.495535
O45   O     O_R   0.677590 0.731610 0.615290 -0.578953
O46   O     O_3   0.997750 0.500010 0.002220 -0.454543
O47   O     O_R   0.942690 0.560750 0.179280 -0.549225
O48   O     O_R   0.114340 0.439270 0.886160 -0.544569
O49   O     O_R   0.820160 0.268410 0.886930 -0.536681
Zn1   Zn    Zn3+2 0.456040 0.586770 0.543190 0.977176
Zn2   Zn    Zn3+2 0.456820 0.413240 0.543960 0.965365
Zn3   Zn    Zn3+2 0.631110 0.586750 0.543190 0.945202
Zn4   Zn    Zn3+2 0.456040 0.413240 0.369660 1.001042
Zn5   Zn    Zn3+2 0.041710 0.413240 0.959030 0.974707
Zn6   Zn    Zn3+2 0.866640 0.413270 0.959030 0.973696
Zn7   Zn    Zn3+2 0.040930 0.586780 0.958260 0.984244
Zn8   Zn    Zn3+2 0.041710 0.586770 0.132560 0.949890

loop_
_geom_bond_atom_site_label_1
_geom_bond_atom_site_label_2
_ccdc_geom_bond_type
C28   C97   S    
C25   C31   S    
C55   C56   A    
C2    C109  S    
C93   C94   A    
C4    O31   D    
C13   C81   S    
C73   C74   A    
C113  H38   S    
C29   C112  S    
C95   C96   A    
C24   C27   S    
C38   H43   S    
C32   H4    S    
O2    Zn7   S    
C108  O24   D    
O12   Zn1   S    
C20   H67   S    
C20   C103  S    
C78   H1    S    
C85   C86   A    
C78   C90   S    
C40   C100  S    
C12   O40   D    
C13   C18   S    
C106  H28   S    
C103  C110  S    
O47   Zn8   S    
C90   C111  S    
C78   C108  S    
C28   C29   S    
C19   C21   S    
C81   H12   S    
C14   O41   D    
O19   Zn1   S    
C93   H20   S    
O13   Zn1   S    
C37   C102  S    
C34   C35   A    
C85   C96   S    
C49   H7    S    
C105  H26   S    
C68   C74   A    
C54   O18   A    
C48   C104  S    
C46   C52   A    
C56   C57   A    
O46   Zn5   S    
C75   H15   S    
C21   H45   S    
C3    C29   S    
C2    C13   S    
C17   H70   S    
C111  O27   D    
O8    Zn5   S    
C14   H63   S    
C19   C92   S    
C57   H9    S    
O15   Zn3   S    
C81   C92   S    
C9    O37   D    
C5    O32   D    
C110  O26   D    
C77   C88   S    
C9    C102  S    
C65   C67   A    
C104  O7    A    
C18   O13   A    
C22   H71   S    
C79   H64   S    
C20   C107  S    
C42   O23   A    
C61   H58   S    
C32   C38   A    
C13   C103  S    
C110  H32   S    
C41   C52   S    
C107  O22   D    
C5    C90   S    
C16   H66   S    
C39   C45   A    
C62   C101  S    
C66   O19   A    
C61   C62   A    
C53   C55   A    
C83   C88   A    
C17   C70   S    
O1    Zn4   S    
C41   C43   A    
C92   H23   S    
C69   H60   S    
C113  O29   D    
C11   C59   S    
O4    Zn4   S    
C31   H40   S    
C53   C60   A    
C24   H41   S    
C39   H48   S    
C50   C51   A    
C3    O30   D    
O1    Zn2   S    
C77   C79   A    
C23   H33   S    
C81   C105  S    
C69   C71   A    
C63   C64   A    
C50   H51   S    
C51   C52   A    
O6    Zn7   S    
O10   Zn6   S    
C9    H54   S    
O46   Zn8   S    
C76   C77   A    
C80   C82   A    
C18   O45   A    
O23   Zn4   S    
C39   C40   A    
C54   C65   S    
C99   O49   A    
C17   O44   D    
C86   C87   A    
C86   H17   S    
O16   Zn2   S    
C15   C83   S    
O46   Zn7   S    
C59   H25   S    
C5    H46   S    
C2    H34   S    
C73   H14   S    
C7    H50   S    
C4    H44   S    
C60   H53   S    
C98   O11   A    
C15   O42   D    
C25   H37   S    
C35   C36   A    
C14   C76   S    
C103  C106  S    
C75   C76   A    
C43   H49   S    
C106  O21   D    
C62   C63   A    
O3    Zn6   S    
C25   C113  S    
C91   C93   A    
O1    Zn3   S    
C61   C67   A    
C1    C44   S    
C83   C84   A    
C104  O5    A    
C37   C66   S    
C100  O2    A    
C2    C21   S    
C3    H42   S    
C33   C34   A    
C12   C82   S    
C1    O34   A    
C34   C45   S    
O49   Zn6   S    
C112  O28   D    
C84   C85   A    
C107  H29   S    
C105  O20   D    
C10   C55   S    
C8    C51   S    
C10   O38   D    
C16   C91   S    
C12   H62   S    
C101  O6    A    
C7    O35   D    
C26   H69   S    
C56   C67   S    
C40   C41   A    
O5    Zn8   S    
C22   C27   S    
C43   C44   A    
C70   H22   S    
C26   C70   S    
C49   C50   A    
C71   H11   S    
C23   C28   S    
C109  O25   D    
C92   H27   S    
C26   H19   S    
C44   C45   A    
C48   C59   S    
O1    Zn1   S    
O45   Zn3   S    
C4    C33   S    
C16   O43   D    
C11   H61   S    
C19   C99   S    
C80   H16   S    
O9    Zn8   S    
C58   H57   S    
C22   C23   S    
C59   C102  S    
O34   Zn2   S    
C68   C69   A    
C28   C31   S    
C95   H68   S    
C48   C70   S    
C72   C73   A    
O7    Zn5   S    
C11   O39   D    
O17   Zn4   S    
C6    H47   S    
C26   C37   S    
C24   H3    S    
C63   C74   S    
C100  O9    A    
C47   C49   A    
C54   O16   A    
C37   C78   S    
C99   O8    A    
C89   H18   S    
O11   Zn7   S    
C66   O17   A    
C84   C98   S    
C64   C65   A    
C6    O33   D    
C19   C20   S    
C42   O15   A    
O48   Zn5   S    
C71   C72   A    
C53   H8    S    
O14   Zn2   S    
C32   C33   A    
C31   H39   S    
C68   H59   S    
C27   C42   S    
C97   O10   A    
C57   C58   A    
C98   O48   A    
C22   H72   S    
C21   H56   S    
C36   C38   A    
C94   H21   S    
C6    C36   S    
C46   H6    S    
C30   O14   A    
C109  H31   S    
C94   C95   A    
O18   Zn3   S    
C46   C47   A    
C8    H52   S    
C23   H2    S    
C79   C80   A    
C97   O47   A    
C64   H10   S    
C24   C29   S    
C30   O12   A    
C87   C88   A    
C10   H55   S    
C89   C91   A    
C75   C82   A    
C15   H65   S    
C72   H13   S    
C112  H36   S    
O46   Zn6   S    
C35   H5    S    
C48   C90   S    
C101  O3    A    
C89   C96   A    
C30   C87   S    
C111  H35   S    
C58   C60   A    
C102  H24   S    
C108  H30   S    
C8    O36   D    
C7    C47   S    
C25   C27   S    
C1    O4    A    
