data_mof_unit_38415.cif
_audit_creation_date              2012-12-10T17:18:57-0500
_audit_creation_method            fapswitch 2.2
_symmetry_space_group_name_H-M    P1
_symmetry_Int_Tables_number       1
_space_group_crystal_system       triclinic
_cell_length_a                    10.188846
_cell_length_b                    10.838294
_cell_length_c                    13.603107
_cell_angle_alpha                 92.068171
_cell_angle_beta                  100.366014
_cell_angle_gamma                 95.989707
_cell_volume                      1467.28905244

loop_
_atom_site_label
_atom_site_type_symbol
_atom_type_description
_atom_site_fract_x
_atom_site_fract_y
_atom_site_fract_z
_atom_type_partial_charge
C1    C     C_R   0.052162 0.732110 0.491088 0.948815
C2    C     C_R   0.945596 0.267450 0.503953 0.950570
C3    C     C_R   0.428338 0.476615 0.130008 -0.266973
C4    C     C_R   0.506985 0.349086 0.893367 -0.264670
C5    C     C_R   0.296319 0.503880 0.100847 0.060526
C6    C     C_R   0.639557 0.322792 0.922972 0.077836
C7    C     C_2   0.078302 0.863237 0.478025 -0.387510
C8    C     C_2   0.910981 0.134652 0.498293 -0.383026
C9    C     C_2   0.975988 0.931534 0.473707 -0.147130
C10   C     C_2   0.998932 0.063511 0.470887 -0.148121
C11   C     C_2   0.430842 0.511598 0.508155 -0.145516
C12   C     C_2   0.569122 0.488806 0.491423 -0.141989
C13   C     C_R   0.093318 0.511541 0.686002 0.875339
C14   C     C_R   0.905491 0.484423 0.314133 0.871399
C15   C     C_R   0.139046 0.505799 0.793565 -0.064974
C16   C     C_R   0.848719 0.455389 0.208607 -0.061305
C17   C     C_R   0.111922 0.535982 0.965285 -0.200094
C18   C     C_R   0.845844 0.346933 0.049728 -0.199932
C19   C     C_R   0.061659 0.539358 0.863279 -0.197064
C20   C     C_R   0.913619 0.388715 0.145439 -0.208274
C21   C     C_R   0.262360 0.462373 0.825941 -0.255653
C22   C     C_R   0.717465 0.479860 0.175742 -0.253954
C23   C     C_R   0.313042 0.453914 0.927420 0.070508
C24   C     C_R   0.642938 0.427111 0.085365 0.067609
C25   C     C_R   0.239504 0.497317 0.998555 0.153427
C26   C     C_R   0.709872 0.365109 0.018665 0.149139
C27   C     C_R   0.440733 0.413447 0.958929 0.037982
C28   C     C_R   0.504611 0.439607 0.059016 0.042061
H1    H     H_    0.674070 0.540397 0.222662 0.159096
H2    H     H_    0.321475 0.441234 0.770621 0.163855
H3    H     H_    0.014993 0.366652 0.170516 0.180620
H4    H     H_    0.964281 0.571144 0.839173 0.165133
H5    H     H_    0.051918 0.566627 0.017574 0.170326
H6    H     H_    0.899386 0.298173 0.001450 0.168541
H7    H     H_    0.468813 0.482379 0.209257 0.142194
H8    H     H_    0.455411 0.313761 0.819820 0.145296
H9    H     H_    0.093310 0.102553 0.451771 0.187528
H10   H     H_    0.875045 0.891194 0.478336 0.188710
H11   H     H_    0.816881 0.095188 0.517435 0.148651
H12   H     H_    0.179015 0.904013 0.473480 0.148547
H13   H     H_    0.578327 0.415320 0.437583 0.163595
H14   H     H_    0.421611 0.585365 0.561729 0.167209
H15   H     H_    0.665021 0.622749 0.589637 0.160740
H16   H     H_    0.334964 0.377076 0.410502 0.156205
N1    N     N_2   0.322180 0.446120 0.460900 -0.198869
N2    N     N_2   0.677820 0.553880 0.539100 -0.190523
O1    O     O_R   0.935190 0.693030 0.507870 -0.610026
O2    O     O_R   0.064810 0.306970 0.492130 -0.610409
O3    O     O_R   0.142080 0.658430 0.482770 -0.609635
O4    O     O_R   0.857920 0.341570 0.517230 -0.606628
O5    O     O_R   0.969700 0.527180 0.651960 -0.606034
O6    O     O_R   0.030300 0.472820 0.348040 -0.610101
O7    O     O_R   0.176600 0.492580 0.626860 -0.613256
O8    O     O_R   0.823400 0.507420 0.373140 -0.615816
Zn1   Zn    Zn3+2 0.861850 0.523100 0.516760 0.936147
Zn2   Zn    Zn3+2 0.138150 0.476900 0.483240 0.926766
N3    N     N_3   0.223028 0.545211 0.174504 -0.470205
H17   H     H_    0.271596 0.529259 0.246650 0.197424
H18   H     H_    0.223297 0.641414 0.170834 0.184213
N4    N     N_3   0.704053 0.256596 0.855019 -0.463546
H19   H     H_    0.643240 0.243175 0.784030 0.187023
H20   H     H_    0.714874 0.168300 0.881764 0.178204

loop_
_geom_bond_atom_site_label_1
_geom_bond_atom_site_label_2
_ccdc_geom_bond_type
N2    Zn1   S    
C16   C22   A    
C11   C12   S    
C4    H8    S    
C13   O7    A    
C12   H13   S    
C8    H11   S    
C23   C27   A    
O3    Zn2   S    
C24   C28   A    
C9    C10   S    
C18   C20   A    
O4    Zn1   S    
C18   C26   A    
C13   C15   S    
C5    N3    S    
C7    H12   S    
C17   C25   A    
C7    C9    D    
C23   C25   A    
O1    Zn1   S    
C14   O8    A    
C16   C20   A    
C15   C19   A    
C18   H6    S    
N3    H17   S    
C6    C26   A    
C17   H5    S    
C10   H9    S    
C5    C25   A    
C19   H4    S    
C12   N2    D    
C3    C28   A    
C22   H1    S    
C24   C26   A    
O5    Zn1   S    
C21   C23   A    
C13   O5    A    
H15   N2    S    
C22   C24   A    
N3    H18   S    
C4    C6    A    
C11   N1    D    
C3    H7    S    
C17   C19   A    
C6    N4    S    
C15   C21   A    
C4    C27   A    
H16   N1    S    
C11   H14   S    
N4    H20   S    
C21   H2    S    
O7    Zn2   S    
C2    C8    S    
C27   C28   A    
O2    Zn2   S    
O8    Zn1   S    
C1    O1    A    
C9    H10   S    
C2    O4    A    
C2    O2    A    
C14   C16   S    
C1    C7    S    
C1    O3    A    
C8    C10   D    
C14   O6    A    
O6    Zn2   S    
N1    Zn2   S    
N4    H19   S    
C3    C5    A    
C20   H3    S    
