data_mof_unit_23249.cif
_audit_creation_date              2012-12-10T19:24:33-0500
_audit_creation_method            fapswitch 2.2
_symmetry_space_group_name_H-M    P1
_symmetry_Int_Tables_number       1
_space_group_crystal_system       triclinic
_cell_length_a                    17.756465
_cell_length_b                    16.567293
_cell_length_c                    10.960685
_cell_angle_alpha                 90.179291
_cell_angle_beta                  94.359933
_cell_angle_gamma                 90.409993
_cell_volume                      3214.94162592

loop_
_atom_site_label
_atom_site_type_symbol
_atom_type_description
_atom_site_fract_x
_atom_site_fract_y
_atom_site_fract_z
_atom_type_partial_charge
C1    C     C_R   0.355917 0.499703 0.499622 0.974660
C2    C     C_R   0.644787 0.500269 0.494429 0.911676
C3    C     C_R   0.887218 0.497786 0.490602 -0.077412
C4    C     C_R   0.116615 0.496580 0.503638 -0.083402
C5    C     C_1   0.968226 0.496294 0.498826 -0.008991
C6    C     C_1   0.035837 0.496175 0.503197 -0.015465
C7    C     C_R   0.571699 0.828825 0.517479 0.269336
C8    C     C_R   0.452080 0.170302 0.415185 0.221784
C9    C     C_R   0.439605 0.831758 0.449914 0.215373
C10   C     C_R   0.563306 0.172389 0.558129 0.221927
C11   C     C_R   0.563941 0.744702 0.544180 0.407440
C12   C     C_R   0.446927 0.255420 0.428511 0.328150
C13   C     C_R   0.436977 0.746070 0.460251 0.343550
C14   C     C_R   0.556896 0.258341 0.566296 0.365210
C15   C     C_R   0.507759 0.874227 0.477571 -0.153899
C16   C     C_R   0.509845 0.127296 0.482412 -0.136682
C17   C     C_1   0.510301 0.963746 0.477684 -0.024084
C18   C     C_1   0.510935 0.037812 0.479447 -0.022445
C19   C     C_R   0.498709 0.499888 0.262010 0.860834
C20   C     C_R   0.494893 0.500300 0.737779 0.795941
C21   C     C_R   0.400930 0.618346 0.108356 0.366810
C22   C     C_R   0.467902 0.349100 0.891608 0.373060
C23   C     C_R   0.464688 0.651137 0.889426 0.406617
C24   C     C_R   0.559464 0.368253 0.110287 0.375057
C25   C     C_R   0.377847 0.686862 0.039871 0.137008
C26   C     C_R   0.496456 0.280416 0.954847 0.156978
C27   C     C_R   0.412742 0.705461 0.932170 0.144484
C28   C     C_R   0.550743 0.290828 0.055038 0.048238
C29   C     C_R   0.469963 0.572278 0.938759 -0.113813
C30   C     C_R   0.514650 0.432089 0.061069 -0.037354
C31   C     C_R   0.453694 0.563633 0.061406 -0.147112
C32   C     C_R   0.489493 0.426926 0.937620 -0.162039
C33   C     C_R   0.484921 0.500556 0.871328 -0.102946
C34   C     C_R   0.490765 0.499511 0.127808 -0.093347
C35   C     C_R   0.850208 0.571918 0.499695 0.140450
C36   C     C_R   0.161337 0.518509 0.610735 0.161566
C37   C     C_R   0.150125 0.476041 0.395332 0.156046
C38   C     C_R   0.845886 0.425929 0.468282 0.138614
C39   C     C_R   0.770500 0.573652 0.495161 0.305357
C40   C     C_R   0.240826 0.520419 0.608748 0.262734
C41   C     C_R   0.229484 0.476317 0.394667 0.292811
C42   C     C_R   0.766087 0.427689 0.461088 0.317506
C43   C     C_R   0.728390 0.500600 0.484270 -0.212820
C44   C     C_R   0.273791 0.498875 0.500972 -0.182643
Cu1   Cu    Cu3+1 0.500000 0.580420 0.500000 1.016626
Cu2   Cu    Cu3+1 0.500000 0.419580 0.500000 1.020490
N1    N     N_R   0.500000 0.701220 0.500000 -0.267898
N2    N     N_R   0.500000 0.298780 0.500000 -0.251912
O1    O     O_R   0.391260 0.567930 0.500000 -0.534340
O2    O     O_R   0.608740 0.432070 0.500000 -0.501747
O3    O     O_R   0.608740 0.567930 0.500000 -0.566614
O4    O     O_R   0.391260 0.432070 0.500000 -0.562141
O5    O     O_R   0.500000 0.567910 0.319660 -0.566704
O6    O     O_R   0.500000 0.432090 0.680340 -0.575407
O7    O     O_R   0.500000 0.567910 0.680340 -0.573472
O8    O     O_R   0.500000 0.432090 0.319660 -0.544337
N3    N     N_2   0.596828 0.224944 0.097345 -0.443638
H1    H     H_    0.605241 0.181857 0.031743 0.266787
C45   C     C_3   0.578819 0.190147 0.212329 -0.674010
H2    H     H_    0.622484 0.145330 0.242453 0.230157
H3    H     H_    0.523310 0.158908 0.201078 0.232865
H4    H     H_    0.577708 0.237203 0.284357 0.252462
N4    N     N_2   0.395361 0.777372 0.864722 -0.411892
H5    H     H_    0.341092 0.798816 0.865718 0.241495
C46   C     C_3   0.453612 0.839221 0.865305 -0.568708
H6    H     H_    0.431454 0.897537 0.897063 0.185896
H7    H     H_    0.470906 0.847254 0.770848 0.240540
H8    H     H_    0.504078 0.823514 0.926755 0.233431
N5    N     N_2   0.464040 0.202748 0.927906 -0.391509
H9    H     H_    0.467153 0.162926 0.000093 0.258858
C47   C     C_3   0.483385 0.165993 0.815272 -0.607750
H10   H     H_    0.456171 0.105545 0.804900 0.216520
H11   H     H_    0.545478 0.158596 0.816886 0.238772
H12   H     H_    0.462331 0.203074 0.736187 0.261177
N6    N     N_2   0.320392 0.736775 0.082295 -0.393712
H13   H     H_    0.274419 0.743795 0.020026 0.241374
C48   C     C_3   0.346650 0.811981 0.138359 -0.625865
H14   H     H_    0.356938 0.857637 0.067751 0.211776
H15   H     H_    0.399646 0.802812 0.197045 0.244153
H16   H     H_    0.302647 0.835662 0.195286 0.254271
O9    O     O_3   0.363590 0.602131 0.211205 -0.685393
H17   H     H_    0.362841 0.543082 0.222535 0.345589
O10   O     O_3   0.411634 0.338272 0.798687 -0.698254
H18   H     H_    0.383692 0.389552 0.786180 0.341609
O11   O     O_3   0.519804 0.682374 0.822042 -0.720931
H19   H     H_    0.566529 0.651798 0.845408 0.305770
O12   O     O_3   0.614374 0.385063 0.203211 -0.698009
H20   H     H_    0.651811 0.341071 0.208375 0.369440
N7    N     N_2   0.892793 0.645167 0.513832 -0.438903
H21   H     H_    0.939970 0.641895 0.574559 0.257963
C49   C     C_3   0.908329 0.683121 0.399663 -0.673377
H22   H     H_    0.945710 0.644304 0.348094 0.223785
H23   H     H_    0.937057 0.742048 0.418791 0.228437
H24   H     H_    0.854940 0.694161 0.342736 0.246013
N8    N     N_2   0.126980 0.538762 0.720109 -0.438650
H25   H     H_    0.077782 0.571344 0.706881 0.256391
C50   C     C_3   0.120167 0.471827 0.803031 -0.676603
H26   H     H_    0.080873 0.425344 0.760730 0.225777
H27   H     H_    0.097607 0.493749 0.888765 0.222664
H28   H     H_    0.176251 0.444290 0.826660 0.250377
N9    N     N_2   0.104515 0.455267 0.286825 -0.438602
H29   H     H_    0.057316 0.420878 0.300736 0.257338
C51   C     C_3   0.088229 0.522330 0.205091 -0.677898
H30   H     H_    0.053380 0.567755 0.249355 0.224607
H31   H     H_    0.056467 0.500196 0.120246 0.218909
H32   H     H_    0.141430 0.551273 0.179580 0.255372
N10   N     N_2   0.884069 0.351616 0.452272 -0.435219
H33   H     H_    0.930779 0.355943 0.402139 0.259394
C52   C     C_3   0.898568 0.305876 0.563599 -0.689781
H34   H     H_    0.938419 0.339395 0.628854 0.227343
H35   H     H_    0.924028 0.247025 0.541933 0.232149
H36   H     H_    0.845124 0.293941 0.606960 0.234707
O13   O     O_3   0.732261 0.645799 0.498193 -0.686966
H37   H     H_    0.767671 0.691695 0.512993 0.366935
O14   O     O_3   0.288172 0.542705 0.709674 -0.767253
H38   H     H_    0.258270 0.563685 0.775225 0.356742
O15   O     O_3   0.265813 0.454949 0.292215 -0.761523
H39   H     H_    0.229056 0.434301 0.227040 0.358566
O16   O     O_3   0.723404 0.360028 0.427093 -0.708998
H40   H     H_    0.755933 0.316516 0.399176 0.348000
O17   O     O_3   0.642459 0.864473 0.533927 -0.731170
H41   H     H_    0.642363 0.918121 0.494510 0.334550
O18   O     O_3   0.399355 0.132344 0.334340 -0.746191
H42   H     H_    0.413725 0.075700 0.320649 0.333478
O19   O     O_3   0.372911 0.870964 0.414116 -0.756377
H43   H     H_    0.382412 0.928615 0.397744 0.343938
O20   O     O_3   0.620308 0.134983 0.629825 -0.751192
H44   H     H_    0.622792 0.076973 0.609413 0.344546
N11   N     N_2   0.621098 0.706421 0.622995 -0.336089
H45   H     H_    0.604806 0.652564 0.657629 0.297515
C53   C     C_3   0.664243 0.753038 0.717141 -0.559677
H46   H     H_    0.687387 0.712355 0.791030 0.175420
H47   H     H_    0.628138 0.798520 0.758753 0.233024
H48   H     H_    0.713733 0.782120 0.679114 0.270087
N12   N     N_2   0.384762 0.295786 0.367404 -0.342772
H49   H     H_    0.381232 0.286729 0.273981 0.265046
C54   C     C_3   0.313401 0.279697 0.419551 -0.554823
H50   H     H_    0.267360 0.312479 0.367808 0.227369
H51   H     H_    0.316107 0.299295 0.516826 0.231723
H52   H     H_    0.298491 0.214582 0.414467 0.239721
N13   N     N_2   0.365142 0.708623 0.438422 -0.332679
H53   H     H_    0.337155 0.724562 0.356409 0.305250
C55   C     C_3   0.317153 0.716466 0.539179 -0.550152
H54   H     H_    0.264240 0.681403 0.518277 0.206893
H55   H     H_    0.301845 0.780457 0.553549 0.233389
H56   H     H_    0.346179 0.692837 0.625031 0.259576
N14   N     N_2   0.603838 0.302642 0.654613 -0.362294
H57   H     H_    0.579777 0.312758 0.735677 0.244907
C56   C     C_3   0.684083 0.286752 0.669660 -0.531198
H58   H     H_    0.715127 0.344833 0.683174 0.200475
H59   H     H_    0.704072 0.255685 0.588438 0.262976
H60   H     H_    0.697074 0.248905 0.751976 0.216458

loop_
_geom_bond_atom_site_label_1
_geom_bond_atom_site_label_2
_ccdc_geom_bond_type
C19   O8    A    
C55   H56   S    
C37   N9    S    
O12   H20   S    
C4    C36   A    
N9    H29   S    
Cu2   O4    S    
C11   N1    A    
N14   H57   S    
C12   N2    A    
C53   H48   S    
N4    C46   S    
C50   H26   S    
C56   H58   S    
O18   H42   S    
Cu1   Cu2   S    
C7    C11   A    
C54   H51   S    
C22   C32   A    
C23   C29   A    
N14   C56   S    
C38   C42   A    
C1    O4    A    
N13   C55   S    
O11   H19   S    
C5    C6    T    
C42   O16   S    
N3    C45   S    
C40   O14   S    
Cu1   O3    S    
O14   H38   S    
C29   C33   A    
C15   C17   S    
C8    C16   A    
Cu1   N1    S    
C38   N10   S    
N5    C47   S    
C9    C13   A    
C36   C40   A    
C2    O2    A    
C55   H55   S    
N8    H25   S    
C3    C38   A    
C46   H7    S    
C12   N12   S    
N10   H33   S    
C3    C35   A    
N7    C49   S    
C52   H34   S    
C48   H14   S    
C19   O5    A    
C7    C15   A    
Cu1   O5    S    
C45   H2    S    
N9    C51   S    
C37   C41   A    
N10   C52   S    
C56   H59   S    
C7    O17   S    
C20   O7    A    
C11   N11   S    
C50   H27   S    
O9    H17   S    
C48   H15   S    
C54   H52   S    
Cu2   N2    S    
C45   H3    S    
C30   C34   A    
C10   O20   S    
N12   H49   S    
C20   O6    A    
C10   C14   A    
C52   H36   S    
C49   H22   S    
C47   H11   S    
C39   C43   A    
C39   O13   S    
C28   N3    S    
C14   N14   S    
C9    O19   S    
C25   N6    S    
C35   C39   A    
N6    H13   S    
C49   H23   S    
C21   C31   A    
C1    C44   S    
O10   H18   S    
Cu1   O1    S    
C2    C43   S    
C8    C12   A    
C46   H8    S    
Cu2   O6    S    
C17   C18   T    
C31   C34   A    
C51   H31   S    
N6    C48   S    
O17   H41   S    
C27   N4    S    
C20   C33   S    
C35   N7    S    
C4    C6    S    
C21   O9    S    
C23   C27   A    
C23   O11   S    
O19   H43   S    
C41   C44   A    
C56   H60   S    
C42   C43   A    
O20   H44   S    
C3    C5    S    
C50   H28   S    
C13   N1    A    
O13   H37   S    
C48   H16   S    
N12   C54   S    
C21   C25   A    
C45   H4    S    
C13   N13   S    
C24   C28   A    
C53   H47   S    
C19   C34   S    
C47   H12   S    
C14   N2    A    
O16   H40   S    
N8    C50   S    
C8    O18   S    
C25   C27   A    
C54   H50   S    
Cu2   O2    S    
C26   C28   A    
C22   O10   S    
C52   H35   S    
C55   H54   S    
N11   H45   S    
C47   H10   S    
C29   C31   A    
C10   C16   A    
N13   H53   S    
C32   C33   A    
C49   H24   S    
C30   C32   A    
C36   N8    S    
N3    H1    S    
C51   H32   S    
C9    C15   A    
N5    H9    S    
C24   O12   S    
C24   C30   A    
C2    O3    A    
N4    H5    S    
C40   C44   A    
C4    C37   A    
Cu1   O7    S    
C16   C18   S    
C46   H6    S    
C22   C26   A    
Cu2   O8    S    
C51   H30   S    
C26   N5    S    
C41   O15   S    
N7    H21   S    
O15   H39   S    
C1    O1    A    
C53   H46   S    
N11   C53   S    
