data_mof_unit_5651.cif
_audit_creation_date              2012-10-26T20:33:19-0400
_audit_creation_method            fapswitch 2.2
_symmetry_space_group_name_H-M    P1
_symmetry_Int_Tables_number       1
_space_group_crystal_system       triclinic
_cell_length_a                    17.647535
_cell_length_b                    10.826628
_cell_length_c                    9.598013
_cell_angle_alpha                 91.359287
_cell_angle_beta                  89.339386
_cell_angle_gamma                 90.863426
_cell_volume                      1832.98930355

loop_
_atom_site_label
_atom_site_type_symbol
_atom_type_description
_atom_site_fract_x
_atom_site_fract_y
_atom_site_fract_z
_atom_type_partial_charge
C1    C     C_R   0.498862 0.262658 0.498717 0.554608
C2    C     C_R   0.115205 0.474577 0.507622 -0.008654
C3    C     C_R   0.500971 0.067293 0.620765 0.046911
C4    C     C_R   0.355959 0.502081 0.500931 0.561249
C5    C     C_R   0.491132 0.129792 0.498103 -0.074282
C6    C     C_R   0.468342 0.062079 0.379488 -0.150363
C7    C     C_R   0.463078 0.932964 0.382142 0.250321
C8    C     C_R   0.483838 0.870630 0.504757 -0.037937
C9    C     C_R   0.492387 0.941458 0.628306 -0.116332
C10   C     C_3   0.547440 0.936805 0.748925 0.183887
C11   C     C_3   0.560267 0.076783 0.731238 0.574845
C12   C     C_R   0.885312 0.464680 0.492339 0.046027
C13   C     C_R   0.563683 0.530985 0.072510 0.052259
C14   C     C_R   0.441543 0.447380 0.075367 0.372275
C15   C     C_R   0.438744 0.456720 0.926301 0.379462
C16   C     C_R   0.496182 0.737616 0.501606 0.534803
C17   C     C_R   0.564853 0.525887 0.926072 0.145974
C18   C     C_3   0.613417 0.639270 0.919437 0.138115
C19   C     C_3   0.608025 0.648961 0.078037 -0.225931
C20   C     C_R   0.644412 0.496987 0.499147 0.541967
C21   C     C_R   0.844004 0.438358 0.613448 -0.182712
C22   C     C_R   0.765466 0.447817 0.615385 -0.121527
C23   C     C_1   0.966322 0.462139 0.496145 0.041624
C24   C     C_R   0.727415 0.486027 0.496806 -0.030514
C25   C     C_R   0.768961 0.510638 0.374692 -0.133373
C26   C     C_R   0.848431 0.498105 0.370150 0.295827
C27   C     C_3   0.366258 0.833690 0.272424 -0.083979
C28   C     C_3   0.446892 0.851051 0.884859 -0.124898
C29   C     C_3   0.589281 0.168377 0.947386 -0.032882
C30   C     C_3   0.659615 0.067444 0.555693 -0.160222
C31   C     C_3   0.374951 0.265786 0.108949 -0.097154
C32   C     C_3   0.313886 0.497534 0.891262 -0.105807
C33   C     C_3   0.727503 0.716957 0.838307 -0.137934
C34   C     C_1   0.034228 0.465009 0.500779 0.064268
C35   C     C_3   0.858297 0.487684 0.128001 -0.123296
C36   C     C_3   0.076812 0.708581 0.676944 -0.102333
C37   C     C_3   0.286077 0.753969 0.658704 -0.128788
C38   C     C_3   0.133681 0.211334 0.331500 -0.102461
C39   C     C_R   0.150146 0.591401 0.528957 0.266218
C40   C     C_R   0.229485 0.602358 0.524985 0.253041
C41   C     C_R   0.273398 0.495677 0.503707 -0.059739
C42   C     C_R   0.238236 0.379724 0.487730 -0.159467
C43   C     C_R   0.159113 0.368691 0.485936 0.227299
Cu1   Cu    Cu3+1 0.500000 0.499980 0.640670 1.016444
Cu2   Cu    Cu3+1 0.500000 0.500020 0.359330 0.988845
H1    H     H_    0.872696 0.411533 0.707031 0.113340
H2    H     H_    0.401499 0.908182 0.841307 0.121709
H3    H     H_    0.431122 0.832543 0.993835 0.172596
H4    H     H_    0.631177 0.239531 0.913441 0.147875
H5    H     H_    0.618496 0.081246 0.971934 0.144103
H6    H     H_    0.562342 0.203675 0.045012 0.103122
H7    H     H_    0.642943 0.131008 0.472858 0.134411
H8    H     H_    0.639358 0.972218 0.530469 0.078946
H9    H     H_    0.722425 0.065297 0.554848 0.146951
H10   H     H_    0.348992 0.215851 0.197528 0.110386
H11   H     H_    0.429893 0.221329 0.082825 0.135012
H12   H     H_    0.598192 0.880766 0.725585 0.079198
H13   H     H_    0.335576 0.253983 0.020279 0.156115
H14   H     H_    0.270066 0.487263 0.809783 0.128903
H15   H     H_    0.331835 0.596665 0.896183 0.063785
H16   H     H_    0.286345 0.471765 0.991062 0.146895
H17   H     H_    0.724635 0.788668 0.923286 0.116663
H18   H     H_    0.706423 0.753756 0.739112 0.122902
H19   H     H_    0.787978 0.693504 0.821897 0.139915
H20   H     H_    0.585561 0.712999 0.862186 0.153041
H21   H     H_    0.663309 0.639775 0.130184 0.137290
H22   H     H_    0.739516 0.541697 0.284488 0.113031
H23   H     H_    0.734586 0.425050 0.709661 0.192582
H24   H     H_    0.816648 0.556343 0.093810 0.137767
H25   H     H_    0.831494 0.394203 0.135709 0.110186
H26   H     H_    0.902900 0.481483 0.045846 0.138872
H27   H     H_    0.064755 0.807335 0.699555 0.152487
H28   H     H_    0.115737 0.677387 0.759209 0.080072
H29   H     H_    0.022225 0.656853 0.684251 0.113008
H30   H     H_    0.294852 0.855641 0.662740 0.141529
H31   H     H_    0.341229 0.711959 0.681163 0.127913
H32   H     H_    0.243751 0.730816 0.741096 0.097157
H33   H     H_    0.193854 0.188998 0.307947 0.108319
H34   H     H_    0.573536 0.728241 0.116121 0.161236
H35   H     H_    0.112547 0.279343 0.256326 0.120061
H36   H     H_    0.099848 0.124933 0.316736 0.154007
H37   H     H_    0.457082 0.107967 0.283528 0.143812
H38   H     H_    0.272415 0.297758 0.475159 0.137779
H39   H     H_    0.329101 0.912380 0.303082 0.122511
H40   H     H_    0.359753 0.757508 0.346664 0.198612
H41   H     H_    0.346485 0.797094 0.170187 0.103417
H42   H     H_    0.450558 0.759994 0.831508 0.130098
N1    N     N_R   0.500470 0.500930 0.147930 -0.256079
N2    N     N_R   0.500480 0.500890 0.852020 -0.278091
O1    O     O_R   0.500000 0.319640 0.618810 -0.427707
O2    O     O_3   0.517088 0.914728 0.884726 -0.567851
O3    O     O_3   0.532834 0.149953 0.845371 -0.510384
O4    O     O_3   0.635221 0.113920 0.687636 -0.597540
O5    O     O_3   0.382814 0.391758 0.148622 -0.549789
O6    O     O_3   0.374412 0.417751 0.856385 -0.530657
O7    O     O_3   0.687103 0.608546 0.872860 -0.580506
O8    O     O_3   0.892521 0.527685 0.253858 -0.560450
O9    O     O_3   0.107722 0.697829 0.540784 -0.518984
O10   O     O_3   0.262240 0.719153 0.523660 -0.567648
O11   O     O_3   0.124208 0.253909 0.470565 -0.551405
O12   O     O_R   0.500010 0.319680 0.381230 -0.507575
O13   O     O_R   0.391250 0.499990 0.618840 -0.466943
O14   O     O_R   0.391260 0.500020 0.381250 -0.442835
O15   O     O_R   0.499990 0.680320 0.618770 -0.546856
O16   O     O_R   0.500000 0.680360 0.381190 -0.460205
O17   O     O_R   0.608740 0.499980 0.618750 -0.467477
O18   O     O_R   0.608750 0.500010 0.381160 -0.517854
O19   O     O_3   0.443075 0.870224 0.260745 -0.566457

loop_
_geom_bond_atom_site_label_1
_geom_bond_atom_site_label_2
_ccdc_geom_bond_type
C28   H2    S    
C1    O1    A    
C6    H37   S    
C18   O7    S    
C41   C42   A    
C25   H22   S    
C40   O10   S    
Cu1   O15   S    
C7    C8    A    
C29   H4    S    
C18   H20   S    
C30   H9    S    
C12   C23   S    
C1    C5    S    
C31   H13   S    
C27   H39   S    
C32   H16   S    
C30   O4    S    
C15   O6    S    
C5    C6    A    
C4    C41   S    
C4    O14   A    
C19   H21   S    
C18   C19   S    
C27   H40   S    
Cu2   O14   S    
C11   O3    S    
C16   O15   A    
C28   H3    S    
C20   C24   S    
C35   H25   S    
C33   H17   S    
C4    O13   A    
C31   H11   S    
C9    C10   S    
C20   O18   A    
C2    C34   S    
C37   H30   S    
C35   H26   S    
C8    C16   S    
C21   C22   A    
C2    C39   A    
Cu2   O16   S    
C20   O17   A    
C29   H5    S    
C30   H8    S    
C13   C19   S    
Cu2   N1    S    
C17   N2    A    
C24   C25   A    
C38   O11   S    
C36   H28   S    
C39   C40   A    
Cu1   O13   S    
C8    C9    A    
C39   O9    S    
C38   H33   S    
C25   C26   A    
C37   H32   S    
C12   C21   A    
C12   C26   A    
C27   H41   S    
C3    C9    A    
C15   N2    A    
C2    C43   A    
C33   H18   S    
C23   C34   T    
C10   H12   S    
C28   H42   S    
C17   C18   S    
C43   O11   S    
C19   H34   S    
C22   H23   S    
Cu2   O12   S    
C16   O16   A    
C40   C41   A    
C37   H31   S    
C10   O2    S    
C38   H36   S    
C22   C24   A    
C42   C43   A    
C32   H15   S    
C33   O7    S    
C1    O12   A    
C37   O10   S    
Cu1   O1    S    
Cu1   Cu2   S    
C21   H1    S    
C29   H6    S    
C30   H7    S    
C36   H29   S    
C14   C15   A    
C42   H38   S    
C3    C5    A    
C6    C7    A    
Cu1   O17   S    
C31   O5    S    
C13   C17   A    
C14   N1    A    
C11   O4    S    
C38   H35   S    
C27   O19   S    
C33   H19   S    
C13   N1    A    
C28   O2    S    
C3    C11   S    
C10   C11   S    
C26   O8    S    
C36   H27   S    
C32   O6    S    
C35   H24   S    
C7    O19   S    
C36   O9    S    
C32   H14   S    
C31   H10   S    
C35   O8    S    
C14   O5    S    
C29   O3    S    
Cu1   N2    S    
Cu2   O18   S    
