data_mof_unit_9966.cif
_audit_creation_date              2013-03-05T16:44:16-0500
_audit_creation_method            fapswitch 2.2
_symmetry_space_group_name_H-M    P1
_symmetry_Int_Tables_number       1
_space_group_crystal_system       triclinic
_cell_length_a                    23.417505
_cell_length_b                    10.66102
_cell_length_c                    9.841569
_cell_angle_alpha                 90.072592
_cell_angle_beta                  89.670798
_cell_angle_gamma                 90.122767
_cell_volume                      2456.94375149

loop_
_atom_site_label
_atom_site_type_symbol
_atom_site_description
_atom_site_fract_x
_atom_site_fract_y
_atom_site_fract_z
_atom_type_partial_charge
O1    O     O_R   0.500010 0.316790 0.614690 -0.618158
O2    O     O_R   0.500000 0.316760 0.385350 -0.625149
C1    C     C_R   0.497817 0.259852 0.500018 0.883424
O3    O     O_R   0.416160 0.499980 0.614700 -0.628249
O4    O     O_R   0.416150 0.499940 0.385360 -0.574488
C2    C     C_R   0.389361 0.501426 0.500350 0.922613
Zn1   Zn    Zn3+2 0.500000 0.500020 0.653130 0.948871
Zn2   Zn    Zn3+2 0.500000 0.499980 0.346870 0.963793
O5    O     O_R   0.500000 0.683240 0.614650 -0.619940
O6    O     O_R   0.499990 0.683210 0.385310 -0.626282
O7    O     O_R   0.583850 0.500060 0.614640 -0.621787
O8    O     O_R   0.583840 0.500020 0.385300 -0.619714
C3    C     C_R   0.497833 0.740145 0.500085 0.877447
C4    C     C_R   0.610743 0.500378 0.499558 0.877372
C5    C     C_R   0.879840 0.622804 0.522839 0.506713
N1    N     N_R   0.852463 0.512696 0.493862 -0.360915
C6    C     C_R   0.881504 0.404833 0.464618 0.507736
C7    C     C_R   0.941119 0.404626 0.464558 -0.016178
C8    C     C_R   0.970200 0.516917 0.495203 -0.015361
C9    C     C_R   0.939444 0.627294 0.524228 -0.015929
C10   C     C_R   0.972126 0.295181 0.435647 -0.147649
C11   C     C_R   0.031537 0.296926 0.437804 -0.137143
C12   C     C_R   0.060887 0.408111 0.469033 -0.023046
C13   C     C_R   0.030170 0.518668 0.497458 -0.016390
C14   C     C_R   0.059275 0.630836 0.528597 -0.023818
C15   C     C_R   0.028262 0.740531 0.556354 -0.144298
C16   C     C_R   0.968824 0.738772 0.554204 -0.147923
C17   C     C_R   0.120424 0.411831 0.473294 0.585849
N2    N     N_R   0.147816 0.521081 0.505824 -0.329767
C18   C     C_R   0.118888 0.629742 0.531993 0.579054
O9    O     O_2   0.849336 0.727304 0.549772 -0.546847
O10   O     O_2   0.852618 0.298192 0.436934 -0.545959
H1    H     H_    0.950635 0.207894 0.411746 0.195009
H2    H     H_    0.054320 0.210933 0.415543 0.197044
O11   O     O_2   0.150899 0.307476 0.445449 -0.529473
O12   O     O_2   0.147861 0.735629 0.562328 -0.536985
H3    H     H_    0.049764 0.827794 0.580301 0.197953
H4    H     H_    0.946033 0.824741 0.576523 0.196006
C19   C     C_R   0.238412 0.572379 0.400092 -0.228111
H5    H     H_    0.215293 0.614298 0.316668 0.184732
C20   C     C_R   0.297728 0.568532 0.395968 0.505377
C21   C     C_R   0.327260 0.508606 0.501804 -0.213191
C22   C     C_R   0.297235 0.458778 0.612904 -0.356623
H6    H     H_    0.320259 0.414066 0.694596 0.207986
C23   C     C_R   0.237780 0.465736 0.619560 0.378574
C24   C     C_R   0.208535 0.521818 0.510474 0.126278
C25   C     C_R   0.762089 0.502490 0.372858 -0.097844
H7    H     H_    0.785030 0.499697 0.277045 0.142035
C26   C     C_R   0.702850 0.498970 0.374149 -0.212297
H8    H     H_    0.680534 0.493478 0.278230 0.164125
C27   C     C_R   0.673020 0.502640 0.498303 -0.045207
C28   C     C_R   0.703175 0.509813 0.620967 -0.217587
H9    H     H_    0.681099 0.512942 0.717915 0.163147
C29   C     C_R   0.762431 0.513513 0.619256 -0.098504
H10   H     H_    0.785661 0.518875 0.713928 0.142041
C30   C     C_R   0.791761 0.509884 0.495296 0.318911
C31   C     C_R   0.486223 0.064114 0.623561 0.132096
C32   C     C_R   0.487526 0.128637 0.500668 -0.099947
C33   C     C_R   0.476974 0.064595 0.378736 -0.211516
H11   H     H_    0.473179 0.113480 0.282790 0.166601
C34   C     C_R   0.476955 0.934868 0.378816 -0.240374
H12   H     H_    0.473085 0.885639 0.282921 0.170334
C35   C     C_R   0.487530 0.871278 0.500808 -0.107400
C36   C     C_R   0.486224 0.936175 0.623643 0.149508
C37   C     C_3   0.525285 0.929508 0.743089 -0.488857
C38   C     C_3   0.525292 0.071712 0.742955 -0.471108
H13   H     H_    0.503839 0.888641 0.833915 0.204405
H14   H     H_    0.567578 0.888245 0.717341 0.206276
H15   H     H_    0.503896 0.112876 0.833703 0.201431
H16   H     H_    0.567586 0.113212 0.717031 0.211690
C39   C     C_R   0.476446 0.402084 0.071529 0.193430
N3    N     N_R   0.499610 0.499140 0.142800 -0.101591
C40   C     C_R   0.527977 0.590457 0.071792 -0.124682
H17   H     H_    0.549639 0.664717 0.126089 0.147353
C41   C     C_R   0.528047 0.590364 0.927645 -0.126933
H18   H     H_    0.549881 0.664344 0.872959 0.144532
N4    N     N_R   0.499610 0.499180 0.857150 -0.102538
C42   C     C_R   0.476364 0.402228 0.928821 0.195656
C43   C     C_3   0.415631 0.360479 0.924080 -0.478158
C44   C     C_3   0.415805 0.359737 0.078351 -0.459926
H19   H     H_    0.387020 0.433131 0.881061 0.230952
H20   H     H_    0.411083 0.265439 0.878784 0.202938
H21   H     H_    0.387021 0.431287 0.123988 0.262769
H22   H     H_    0.411641 0.264130 0.122249 0.192494
O13   O     O_3   0.326327 0.618965 0.285519 -0.597411
C45   C     C_3   0.336612 0.747081 0.311689 -0.240331
H23   H     H_    0.361503 0.786683 0.225553 0.188566
H24   H     H_    0.362431 0.760527 0.405321 0.142502
H25   H     H_    0.295888 0.800333 0.319400 0.178106
N5    N     N_R   0.207975 0.415166 0.735886 0.229933
O14   O     O_R   0.158318 0.458568 0.772455 -0.370018
O15   O     O_R   0.232476 0.332187 0.812870 -0.362057

loop_
_geom_bond_atom_site_label_1
_geom_bond_atom_site_label_2
_geom_bond_distance
_ccdc_geom_bond_type
C7    C10   1.403571 A    
C40   H17   1.081639 S    
C8    C9    1.409055 A    
C31   C38   1.495364 S    
C41   H18   1.081342 S    
C31   C32   1.392293 A    
C19   C20   1.390084 A    
O13   C45   1.410060 S    
Zn1   O7    1.997623 S    
C15   C16   1.392265 A    
C17   N2    1.367016 A    
O3    Zn1   2.001552 S    
O4    C2    1.290869 A    
O7    C4    1.292734 A    
C45   H24   1.113984 S    
C38   H15   1.111790 S    
C10   H1    1.083218 S    
C16   H4    1.083207 S    
C5    N1    1.366866 A    
C7    C8    1.409186 A    
C20   C21   1.408262 A    
C34   C35   1.403050 A    
O5    C3    1.282337 A    
C25   H7    1.082978 S    
C17   O11   1.350002 S    
N1    C6    1.366710 A    
C26   C27   1.404516 A    
C12   C13   1.409029 A    
N4    C42   1.362797 A    
Zn1   N4    2.007876 S    
C33   H11   1.083305 S    
C10   C11   1.391618 A    
C40   C41   1.418626 A    
C44   H21   1.111660 S    
C39   C44   1.490353 S    
C28   C29   1.388112 A    
C5    C9    1.396635 A    
C11   H2    1.083217 S    
C29   C30   1.397113 A    
Zn2   N3    2.008451 S    
C33   C34   1.383024 A    
C27   C28   1.403988 A    
C13   C14   1.409404 A    
O3    C2    1.291803 A    
C19   H5    1.083506 S    
C43   H19   1.111020 S    
C45   H23   1.109418 S    
C37   H13   1.111723 S    
C14   C15   1.403652 A    
C23   C24   1.410977 A    
C45   H25   1.113049 S    
C43   C44   1.518331 S    
O1    C1    1.281999 A    
C22   H6    1.082286 S    
N1    C30   1.421742 S    
N2    C18   1.366691 A    
C43   H20   1.111592 S    
C41   N4    1.367711 A    
N5    O15   1.301800 A    
C4    C27   1.458497 S    
C3    C35   1.419190 S    
Zn2   O8    2.001550 S    
C37   H14   1.112358 S    
C6    C7    1.396047 A    
C12   C17   1.395557 A    
C23   N5    1.441940 S    
C22   C23   1.395594 A    
C19   C24   1.396898 A    
O8    C4    1.292089 A    
C26   H8    1.083070 S    
C21   C22   1.401110 A    
C28   H9    1.083073 S    
C31   C36   1.363959 A    
C14   C18   1.396652 A    
Zn1   O5    1.990157 S    
C29   H10   1.082978 S    
O1    Zn1   1.989244 S    
O2    Zn2   1.990154 S    
N3    C40   1.367857 A    
O6    C3    1.282434 A    
O4    Zn2   1.997624 S    
C15   H3    1.083207 S    
C5    O9    1.349880 S    
C9    C16   1.403851 A    
C25   C26   1.387637 A    
C20   O13   1.382281 S    
C18   O12   1.349806 S    
N2    C24   1.422891 S    
C36   C37   1.495491 S    
O2    C1    1.282646 A    
C32   C33   1.402792 A    
C39   N3    1.362709 A    
C44   H22   1.111428 S    
C42   C43   1.490305 S    
N5    O14   1.301125 A    
C38   H16   1.112337 S    
C8    C13   1.404744 A    
C34   H12   1.083447 S    
C35   C36   1.392331 A    
C1    C32   1.419004 S    
Zn2   O6    1.989245 S    
C37   C38   1.516035 S    
C2    C21   1.456407 S    
C6    O10   1.349968 S    
C11   C12   1.403532 A    
C39   C42   1.404490 A    
C25   C30   1.396481 A    
