data_mof_unit_59539.cif
_audit_creation_date              2012-12-11T14:56:41-0500
_audit_creation_method            fapswitch 2.2
_symmetry_space_group_name_H-M    P1
_symmetry_Int_Tables_number       1
_space_group_crystal_system       triclinic
_cell_length_a                    10.585499
_cell_length_b                    10.722379
_cell_length_c                    17.164058
_cell_angle_alpha                 80.307604
_cell_angle_beta                  89.753542
_cell_angle_gamma                 119.741222
_cell_volume                      1658.58377088

loop_
_atom_site_label
_atom_site_type_symbol
_atom_type_description
_atom_site_fract_x
_atom_site_fract_y
_atom_site_fract_z
_atom_type_partial_charge
C1    C     C_R   0.222818 0.854282 0.128738 0.550271
C2    C     C_1   0.650421 0.341352 0.707174 0.023299
C3    C     C_R   0.619826 0.716608 0.804977 -0.104093
C4    C     C_R   0.637031 0.281327 0.085915 0.544693
C5    C     C_R   0.598157 0.697779 0.728388 0.206947
C6    C     C_R   0.664059 0.821681 0.665315 0.060231
C7    C     C_R   0.742622 0.964039 0.681421 0.064451
C8    C     C_R   0.746532 0.980380 0.760286 -0.080884
C9    C     C_R   0.685016 0.856280 0.821562 0.011411
C10   C     C_R   0.085737 0.885869 0.787915 0.211936
C11   C     C_R   0.068603 0.878840 0.709269 -0.134889
C12   C     C_R   0.792266 0.392606 0.268444 -0.142927
C13   C     C_R   0.118635 0.803360 0.670948 -0.004918
C14   C     C_R   0.173193 0.720893 0.714436 0.203113
C15   C     C_R   0.189456 0.726398 0.794113 -0.135037
C16   C     C_R   0.643089 0.856087 0.124510 0.556355
C17   C     C_R   0.153292 0.815014 0.830014 -0.010216
C18   C     C_R   0.710822 0.773276 0.353293 0.552548
C19   C     C_R   0.689420 0.396639 0.394409 0.536636
C20   C     C_R   0.103270 0.810414 0.359025 0.547757
C21   C     C_R   0.677208 0.798718 0.585972 0.598872
C22   C     C_R   0.677971 0.381068 0.624175 0.551637
C23   C     C_R   0.786232 0.386152 0.189571 -0.163300
C24   C     C_R   0.091434 0.799231 0.588830 0.585337
C25   C     C_R   0.217453 0.858971 0.901971 0.571510
C26   C     C_R   0.637138 0.282852 0.860538 0.543558
C27   C     C_R   0.646452 0.867992 0.898994 0.568189
C28   C     C_R   0.534758 0.337891 0.198696 0.137793
C29   C     C_R   0.543454 0.346359 0.279411 -0.104615
C30   C     C_R   0.669722 0.367839 0.314659 0.001510
C31   C     C_3   0.278964 0.292558 0.205571 -0.286911
C32   C     C_3   0.949972 0.208060 0.624798 -0.204591
C33   C     C_R   0.655231 0.347231 0.155675 0.029307
C34   C     C_1   0.684222 0.832520 0.201955 -0.034237
C35   C     C_1   0.702689 0.808529 0.270445 -0.037660
C36   C     C_1   0.180419 0.825719 0.211227 -0.036154
C37   C     C_1   0.150915 0.820124 0.279637 -0.038654
C38   C     C_1   0.643565 0.319488 0.777667 0.015360
Cl1   Cl    Cl    0.230119 0.617459 0.670671 -0.539643
Cl2   Cl    Cl    0.479606 0.515071 0.718542 -0.518653
Cl3   Cl    Cl    0.030825 0.994449 0.828267 -0.594270
Cr1   Cr    Cr6+3 0.402240 0.783890 0.019450 1.021599
Cr2   Cr    Cr6+3 0.382360 0.097900 0.991800 1.093091
Cr3   Cr    Cr6+3 0.715380 0.118170 0.988700 1.062540
Cr4   Cr    Cr6+3 0.936650 0.882420 0.465510 1.029126
Cr5   Cr    Cr6+3 0.605770 0.565620 0.493360 1.085214
Cr6   Cr    Cr6+3 0.921340 0.550490 0.496380 1.043176
H1    H     H_    0.016120 0.934107 0.677855 0.172332
H2    H     H_    0.301636 0.390451 0.230006 0.141703
H3    H     H_    0.240828 0.195239 0.254191 0.172478
H4    H     H_    0.733158 0.120424 0.596916 0.264701
H5    H     H_    0.994802 0.284663 0.566541 0.162789
H6    H     H_    0.025264 0.166282 0.641658 0.186667
H7    H     H_    0.944565 0.269595 0.669408 0.188844
H8    H     H_    0.240757 0.670114 0.825950 0.187771
H9    H     H_    0.454383 0.338620 0.314994 0.129832
H10   H     H_    0.894963 0.418969 0.292739 0.152281
H11   H     H_    0.881840 0.400555 0.156813 0.145319
H12   H     H_    0.569931 0.620854 0.852659 0.168100
H13   H     H_    0.791237 0.088590 0.773862 0.166952
H14   H     H_    0.432167 0.387366 0.105076 0.260822
H15   H     H_    0.189956 0.269247 0.166300 0.149363
N1    N     N_2   0.408647 0.319891 0.160023 -0.483956
N2    N     N_2   0.805838 0.088449 0.617951 -0.521878
O1    O     O_R   0.521780 0.757110 0.108900 -0.513809
O2    O     O_R   0.805020 0.410040 0.421340 -0.524473
O3    O     O_R   0.049240 0.685450 0.403290 -0.497218
O4    O     O_R   0.275160 0.783810 0.101120 -0.502757
O5    O     O_R   0.077520 0.903010 0.551800 -0.532766
O6    O     O_R   0.802980 0.872780 0.546830 -0.492935
O7    O     O_R   0.578090 0.681300 0.569920 -0.427091
O8    O     O_R   0.608530 0.436370 0.586530 -0.447485
O9    O     O_R   0.798770 0.401880 0.597100 -0.533620
O10   O     O_R   0.043450 0.677890 0.566230 -0.443605
O11   O     O_3   0.821250 0.666180 0.485090 -0.299656
O12   O     O_R   0.513330 0.228330 0.898660 -0.478168
O13   O     O_R   0.237900 0.972600 0.090980 -0.491423
O14   O     O_R   0.511190 0.220540 0.061620 -0.485541
O15   O     O_R   0.736920 0.257720 0.063840 -0.523944
O16   O     O_R   0.710450 0.984050 0.081720 -0.487955
O17   O     O_R   0.524090 0.765520 0.933110 -0.531241
O18   O     O_R   0.277300 0.791600 0.938160 -0.525526
O19   O     O_R   0.240210 0.981010 0.915190 -0.430371
O20   O     O_R   0.739230 0.266130 0.888050 -0.516544
O21   O     O_R   0.712580 0.991850 0.918770 -0.478234
O22   O     O_3   0.499990 0.999980 0.999980 -0.274080
O23   O     O_R   0.083770 0.911170 0.376030 -0.522812
O24   O     O_R   0.808770 0.880340 0.383890 -0.492199
O25   O     O_R   0.584340 0.689460 0.394160 -0.501012
O26   O     O_R   0.614320 0.443940 0.423590 -0.525469

loop_
_geom_bond_atom_site_label_1
_geom_bond_atom_site_label_2
_ccdc_geom_bond_type
C23   H11   S    
Cr2   O19   S    
C20   O3    A    
Cr1   O18   S    
C7    C8    A    
Cr5   O25   S    
Cr2   O14   S    
C12   C23   A    
C21   O7    A    
C36   C37   T    
Cr4   O23   S    
C5    C6    A    
C10   C17   A    
C20   O23   A    
C1    O4    A    
C1    O13   A    
C19   O2    A    
H14   N1    S    
C34   C35   T    
Cr6   O3    S    
C27   O21   A    
C32   H5    S    
C16   C34   S    
C14   Cl1   S    
C8    C9    A    
C23   C33   A    
C2    C22   S    
Cr1   O1    S    
C26   O12   A    
Cr1   O22   S    
C18   C35   S    
Cr6   O2    S    
Cr5   O8    S    
C13   C14   A    
C10   Cl3   S    
Cr1   O4    S    
C18   O25   A    
C31   H15   S    
C11   H1    S    
Cr1   O17   S    
C31   H2    S    
Cr3   O22   S    
C22   O8    A    
Cr5   O11   S    
C24   O5    A    
Cr4   O5    S    
C31   N1    S    
C27   O17   A    
Cr4   O24   S    
C32   N2    S    
C4    O15   A    
C26   C38   S    
C3    C5    A    
C6    C21   S    
C18   O24   A    
C13   C24   S    
C16   O16   A    
C15   H8    S    
C4    O14   A    
C29   C30   A    
C3    C9    A    
C2    C38   T    
Cr3   O16   S    
Cr6   O9    S    
Cr5   O7    S    
C12   H10   S    
C28   C33   A    
C25   O18   A    
C31   H3    S    
Cr3   O21   S    
C32   H6    S    
C9    C27   S    
Cr2   O12   S    
C15   C17   A    
C4    C33   S    
C28   C29   A    
C26   O20   A    
C12   C30   A    
Cr4   O6    S    
Cr2   O22   S    
Cr3   O15   S    
H4    N2    S    
Cr6   O10   S    
Cr3   O20   S    
C6    C7    A    
Cr5   O26   S    
C29   H9    S    
Cr2   O13   S    
C32   H7    S    
C21   O6    A    
Cr4   O11   S    
C17   C25   S    
Cr6   O11   S    
C19   O26   A    
C8    H13   S    
C20   C37   S    
C11   C13   A    
C24   O10   A    
C7    N2    S    
C10   C11   A    
C28   N1    S    
C5    Cl2   S    
C25   O19   A    
C14   C15   A    
C16   O1    A    
C22   O9    A    
C19   C30   S    
C1    C36   S    
C3    H12   S    
