data_mof_unit_65268.cif
_audit_creation_date              2012-12-10T19:05:38-0500
_audit_creation_method            fapswitch 2.2
_symmetry_space_group_name_H-M    P1
_symmetry_Int_Tables_number       1
_space_group_crystal_system       triclinic
_cell_length_a                    10.553317
_cell_length_b                    13.079951
_cell_length_c                    13.629536
_cell_angle_alpha                 85.60074
_cell_angle_beta                  90.146205
_cell_angle_gamma                 93.344923
_cell_volume                      1872.636239

loop_
_atom_site_label
_atom_site_type_symbol
_atom_type_description
_atom_site_fract_x
_atom_site_fract_y
_atom_site_fract_z
_atom_type_partial_charge
C1    C     C_R   0.498538 0.481135 0.685084 0.890557
C2    C     C_R   0.501463 0.518865 0.314915 0.891201
C3    C     C_2   0.449770 0.031167 0.490435 0.085102
C4    C     C_2   0.546902 0.968555 0.516150 0.088148
C5    C     C_1   0.529944 0.855005 0.515486 0.139949
C6    C     C_1   0.468883 0.144871 0.486768 0.143758
C7    C     C_R   0.742622 0.500103 0.500078 1.002010
C8    C     C_R   0.257381 0.499891 0.499949 1.002113
C9    C     C_3   0.953818 0.440172 0.577906 0.526469
C10   C     C_3   0.046189 0.559799 0.422154 0.527619
C11   C     C_3   0.044051 0.535952 0.582683 -0.089885
C12   C     C_3   0.955959 0.464019 0.417376 -0.090370
C13   C     C_3   0.123454 0.499178 0.499978 -0.461307
C14   C     C_3   0.876553 0.500796 0.500079 -0.458972
C15   C     C_3   0.033093 0.402866 0.494520 0.589974
C16   C     C_3   0.966919 0.597103 0.505539 0.589147
C17   C     C_1   0.502803 0.533957 0.211817 -0.126828
C18   C     C_1   0.497214 0.466045 0.788182 -0.130894
C19   C     C_2   0.503814 0.544512 0.020697 0.475853
C20   C     C_2   0.496232 0.455495 0.979300 0.476699
C21   C     C_1   0.496422 0.457247 0.875572 0.038190
C22   C     C_1   0.503610 0.542758 0.124426 0.040924
N1    N     N_1   0.479750 0.234530 0.484780 -0.079764
N2    N     N_1   0.520250 0.765470 0.515220 -0.079346
O1    O     O_R   0.492590 0.402510 0.634760 -0.604177
O2    O     O_R   0.507410 0.597490 0.365240 -0.599057
O3    O     O_R   0.505590 0.572960 0.644530 -0.604451
O4    O     O_R   0.494410 0.427040 0.355470 -0.601676
O5    O     O_R   0.679550 0.414790 0.495140 -0.587037
O6    O     O_R   0.320450 0.585210 0.504860 -0.588535
O7    O     O_R   0.692550 0.585240 0.504910 -0.583658
O8    O     O_R   0.307450 0.414760 0.495090 -0.584520
Zn1   Zn    Zn3+2 0.491320 0.386190 0.493470 1.046042
Zn2   Zn    Zn3+2 0.508680 0.613810 0.506530 1.047690
N3    N     N_2   0.098140 0.573976 0.671495 -0.259599
H1    H     H_    0.161418 0.525450 0.705206 0.235583
C23   C     C_3   0.007328 0.608187 0.739206 -0.589422
H2    H     H_    0.058482 0.640818 0.801988 0.227998
H3    H     H_    0.942713 0.542719 0.768021 0.254389
H4    H     H_    0.950848 0.668968 0.702332 0.270224
N4    N     N_2   0.901877 0.426004 0.328558 -0.257037
H5    H     H_    0.838540 0.474499 0.294882 0.235471
C24   C     C_3   0.992709 0.391892 0.260807 -0.579908
H6    H     H_    0.941565 0.359208 0.198047 0.228633
H7    H     H_    0.049316 0.331180 0.297657 0.270761
H8    H     H_    0.057205 0.457424 0.231963 0.252430
F1    F     F_    0.902817 0.379560 0.657348 -0.620850
F2    F     F_    0.097189 0.620413 0.342714 -0.616516
F3    F     F_    0.069332 0.303499 0.489214 -0.625542
F4    F     F_    0.930712 0.696471 0.510852 -0.627174
F5    F     F_    0.488385 0.363744 0.033981 -0.648070
F6    F     F_    0.511660 0.636263 0.966016 -0.650117
N5    N     N_2   0.669107 0.013729 0.540911 -0.307171
H9    H     H_    0.669046 0.082019 0.574023 0.246724
C25   C     C_3   0.765747 0.946777 0.578213 -0.622777
H10   H     H_    0.855152 0.993127 0.590466 0.248518
H11   H     H_    0.785748 0.890542 0.523986 0.274998
H12   H     H_    0.734626 0.905718 0.649234 0.236007
N6    N     N_2   0.327675 0.986574 0.464464 -0.310824
H13   H     H_    0.305072 0.912601 0.493321 0.244864
C26   C     C_3   0.220610 0.051264 0.459688 -0.596274
H14   H     H_    0.134198 0.006232 0.437446 0.249152
H15   H     H_    0.237975 0.117066 0.403923 0.255926
H16   H     H_    0.203464 0.079810 0.532933 0.248636

loop_
_geom_bond_atom_site_label_1
_geom_bond_atom_site_label_2
_ccdc_geom_bond_type
C26   H16   S    
C9    C14   S    
C8    C13   S    
C7    O5    A    
C17   C22   T    
C4    N5    S    
C23   H4    S    
C18   C21   T    
C24   H7    S    
N4    H5    S    
N4    C24   S    
C19   C20   D    
C12   C15   S    
C24   H6    S    
C3    C6    S    
C8    O6    A    
O8    Zn1   S    
C25   H10   S    
N5    C25   S    
C9    C15   S    
O7    Zn2   S    
N6    H13   S    
C2    O2    A    
C25   H11   S    
C10   C16   S    
N5    H9    S    
C2    C17   S    
C1    O1    A    
C11   C13   S    
C9    C11   S    
C1    C18   S    
C12   N4    S    
C5    N2    T    
C10   C12   S    
C6    N1    T    
C11   N3    S    
O3    Zn2   S    
N3    C23   S    
C23   H2    S    
C12   C14   S    
O4    Zn1   S    
C9    F1    S    
C20   F5    S    
C15   F3    S    
C13   C15   S    
C10   F2    S    
C26   H14   S    
C24   H8    S    
C14   C16   S    
N6    C26   S    
C7    O7    A    
O6    Zn2   S    
C3    C4    D    
C8    O8    A    
O5    Zn1   S    
C19   C22   S    
C20   C21   S    
C23   H3    S    
C11   C16   S    
C25   H12   S    
O1    Zn1   S    
C1    O3    A    
C3    N6    S    
C2    O4    A    
C19   F6    S    
O2    Zn2   S    
C26   H15   S    
C7    C14   S    
N3    H1    S    
C16   F4    S    
C4    C5    S    
N1    Zn1   S    
C10   C13   S    
N2    Zn2   S    
