data_mof_unit_52037.cif
_audit_creation_date              2012-12-10T20:28:46-0500
_audit_creation_method            fapswitch 2.2
_symmetry_space_group_name_H-M    P1
_symmetry_Int_Tables_number       1
_space_group_crystal_system       triclinic
_cell_length_a                    10.638853
_cell_length_b                    10.643383
_cell_length_c                    9.902207
_cell_angle_alpha                 89.703532
_cell_angle_beta                  88.118283
_cell_angle_gamma                 91.637731
_cell_volume                      1120.17704938

loop_
_atom_site_label
_atom_site_type_symbol
_atom_type_description
_atom_site_fract_x
_atom_site_fract_y
_atom_site_fract_z
_atom_type_partial_charge
C1    C     C_R   0.513210 0.260342 0.499469 0.891665
C2    C     C_R   0.575683 0.936150 0.374542 -0.295362
C3    C     C_R   0.551585 0.871046 0.496794 -0.147512
C4    C     C_R   0.261950 0.519798 0.502946 0.891624
C5    C     C_R   0.570110 0.935359 0.616712 0.041631
C6    C     C_3   0.506350 0.919167 0.752869 0.012140
C7    C     C_3   0.493185 0.062963 0.751704 0.380924
C8    C     C_R   0.391137 0.478174 0.075207 0.062852
C9    C     C_R   0.606509 0.527975 0.068003 -0.140507
C10   C     C_R   0.606592 0.526794 0.924675 -0.157488
C11   C     C_R   0.390682 0.479987 0.933139 0.193944
C12   C     C_R   0.057555 0.529686 0.632389 0.022490
C13   C     C_3   0.304575 0.366728 0.931167 -0.627414
C14   C     C_3   0.305757 0.363244 0.085450 0.393228
C15   C     C_R   0.512445 0.740164 0.499063 0.866281
C16   C     C_R   0.740875 0.493233 0.498205 0.836371
C17   C     C_R   0.093077 0.567429 0.764401 0.258081
C18   C     C_R   0.019279 0.520944 0.876330 -0.187358
C19   C     C_R   0.922122 0.433412 0.858524 -0.244795
C20   C     C_R   0.882410 0.407903 0.729477 -0.169830
C21   C     C_R   0.938884 0.472914 0.618096 0.085717
C22   C     C_3   0.703881 0.814482 0.820814 -0.746710
C23   C     C_R   0.129828 0.550898 0.511695 -0.166752
C24   C     C_3   0.270536 0.050305 0.837527 -0.897330
C25   C     C_3   0.692392 0.125766 0.873866 -0.796029
C26   C     C_3   0.076663 0.308676 0.135140 -0.789168
C27   C     C_3   0.301345 0.149708 0.198152 -0.717921
C28   C     C_3   0.201859 0.723460 0.909835 -0.852575
C29   C     C_3   0.739305 0.196450 0.251220 -0.742944
C30   C     C_R   0.069352 0.573132 0.391536 -0.177666
C31   C     C_R   0.942014 0.547157 0.384443 -0.207014
C32   C     C_R   0.876607 0.493692 0.496506 -0.113958
C33   C     C_R   0.563427 0.063797 0.617390 -0.063144
C34   C     C_R   0.553006 0.130973 0.497191 -0.193652
C35   C     C_R   0.584164 0.067960 0.374995 0.227903
H1    H     H_    0.121202 0.610443 0.304090 0.141550
H2    H     H_    0.536776 0.229752 0.850726 0.244758
H3    H     H_    0.745251 0.113794 0.776616 0.241922
H4    H     H_    0.710941 0.048643 0.945110 0.271370
H5    H     H_    0.729743 0.212626 0.921457 0.210621
H6    H     H_    0.693146 0.549117 0.118436 0.141426
H7    H     H_    0.693376 0.546216 0.868677 0.171234
H8    H     H_    0.212921 0.386688 0.889181 0.226640
H9    H     H_    0.348975 0.287270 0.882051 0.233062
H10   H     H_    0.163147 0.483700 0.142147 0.192264
H11   H     H_    0.989502 0.363442 0.143557 0.218419
H12   H     H_    0.536180 0.827920 0.936895 0.223816
H13   H     H_    0.067964 0.237455 0.216984 0.248460
H14   H     H_    0.080139 0.262136 0.035125 0.240223
H15   H     H_    0.451805 0.233744 0.087678 0.227969
H16   H     H_    0.365972 0.072481 0.218481 0.213024
H17   H     H_    0.231282 0.113559 0.126696 0.227802
H18   H     H_    0.255656 0.175543 0.296049 0.249946
H19   H     H_    0.216996 0.713333 0.699404 0.214703
H20   H     H_    0.287445 0.784710 0.909443 0.235376
H21   H     H_    0.211691 0.657421 0.995076 0.229052
H22   H     H_    0.117639 0.781368 0.926936 0.240999
H23   H     H_    0.749727 0.781303 0.913082 0.212810
H24   H     H_    0.036990 0.548678 0.978357 0.146969
H25   H     H_    0.871347 0.392525 0.945121 0.142742
H26   H     H_    0.802058 0.344688 0.718163 0.163747
H27   H     H_    0.895124 0.569377 0.292173 0.150432
H28   H     H_    0.602192 0.083205 0.166528 0.222452
H29   H     H_    0.813958 0.125542 0.246036 0.220360
H30   H     H_    0.751417 0.254720 0.342754 0.239851
H31   H     H_    0.749915 0.259171 0.161481 0.225889
H32   H     H_    0.581774 0.886305 0.279518 0.164538
H33   H     H_    0.416737 0.864333 0.746287 0.129216
H34   H     H_    0.769021 0.883696 0.768900 0.241092
H35   H     H_    0.688003 0.734010 0.752653 0.268508
H36   H     H_    0.328688 0.101522 0.642350 0.218646
H37   H     H_    0.197726 0.120970 0.857555 0.262131
H38   H     H_    0.315499 0.026191 0.933432 0.263316
H39   H     H_    0.222498 0.965727 0.796468 0.245116
N1    N     N_R   0.499160 0.499140 0.142800 -0.102414
N2    N     N_R   0.499160 0.499180 0.857150 -0.095275
N3    N     N_2   0.585787 0.872190 0.858164 -0.281472
N4    N     N_2   0.362599 0.099701 0.738786 -0.322488
N5    N     N_2   0.558049 0.136360 0.855254 -0.286146
N6    N     N_2   0.185802 0.391249 0.153715 -0.243503
N7    N     N_2   0.371422 0.257073 0.141620 -0.232530
N8    N     N_2   0.194267 0.657297 0.782415 -0.271523
N9    N     N_2   0.616390 0.134465 0.253067 -0.279677
O1    O     O_R   0.500020 0.316790 0.614690 -0.621334
O2    O     O_R   0.500000 0.316760 0.385350 -0.552700
O3    O     O_R   0.316770 0.500020 0.614690 -0.596286
O4    O     O_R   0.316760 0.499980 0.385350 -0.596679
O5    O     O_R   0.500000 0.683240 0.614650 -0.621463
O6    O     O_R   0.499980 0.683210 0.385310 -0.624041
O7    O     O_R   0.683240 0.500020 0.614650 -0.635162
O8    O     O_R   0.683230 0.499980 0.385310 -0.630275
Zn1   Zn    Zn3+2 0.500010 0.500020 0.653130 0.941483
Zn2   Zn    Zn3+2 0.499990 0.499980 0.346870 0.959313

loop_
_geom_bond_atom_site_label_1
_geom_bond_atom_site_label_2
_ccdc_geom_bond_type
C2    C35   A    
C16   O7    A    
C10   H7    S    
C19   C20   A    
H19   N8    S    
C28   H21   S    
C4    O4    A    
C28   H22   S    
C1    O1    A    
H2    N5    S    
C12   C23   A    
N1    Zn2   S    
C29   N9    S    
C11   N2    A    
C25   H5    S    
C5    C6    S    
C34   C35   A    
C24   H38   S    
C4    O3    A    
O4    Zn2   S    
C17   N8    S    
C20   H26   S    
C10   N2    A    
O5    Zn1   S    
C5    C33   A    
C12   C17   A    
C14   N6    S    
C9    C10   A    
C22   H34   S    
C26   H13   S    
C6    H33   S    
C29   H29   S    
C13   C14   S    
C7    C33   S    
C31   H27   S    
O2    Zn2   S    
C28   H20   S    
C27   H16   S    
C1    C34   S    
C33   C34   A    
C1    O2    A    
C21   C32   A    
C28   N8    S    
C23   C30   A    
C27   N7    S    
C2    H32   S    
C26   H14   S    
C4    C23   S    
C35   N9    S    
C18   C19   A    
C6    N3    S    
O8    Zn2   S    
C8    N1    A    
C26   N6    S    
H28   N9    S    
C25   H3    S    
C15   O6    A    
O7    Zn1   S    
C31   C32   A    
C17   C18   A    
N2    Zn1   S    
C7    N4    S    
C29   H30   S    
C24   N4    S    
H12   N3    S    
C13   H8    S    
C3    C15   S    
C27   H17   S    
C24   H37   S    
C7    N5    S    
C8    C14   S    
C25   N5    S    
C22   N3    S    
C3    C5    A    
C22   H23   S    
C27   H18   S    
C6    C7    S    
C19   H25   S    
C16   C32   S    
O1    Zn1   S    
C9    H6    S    
C30   H1    S    
C2    C3    A    
O3    Zn1   S    
C25   H4    S    
C11   C13   S    
C24   H39   S    
C30   C31   A    
C8    C11   A    
C12   C21   A    
H10   N6    S    
H36   N4    S    
O6    Zn2   S    
C26   H11   S    
C29   H31   S    
C18   H24   S    
C20   C21   A    
C16   O8    A    
C9    N1    A    
C14   N7    S    
C22   H35   S    
C13   H9    S    
H15   N7    S    
C15   O5    A    
