data_mof_unit_62541.cif
_audit_creation_date              2012-10-26T18:15:36-0400
_audit_creation_method            fapswitch 2.2
_symmetry_space_group_name_H-M    P1
_symmetry_Int_Tables_number       1
_space_group_crystal_system       triclinic
_cell_length_a                    45.195829
_cell_length_b                    45.282448
_cell_length_c                    32.653932
_cell_angle_alpha                 90.005123
_cell_angle_beta                  133.6629
_cell_angle_gamma                 89.999946
_cell_volume                      48344.9210714

loop_
_atom_site_label
_atom_site_type_symbol
_atom_type_description
_atom_site_fract_x
_atom_site_fract_y
_atom_site_fract_z
_atom_type_partial_charge
C1    C     C_R   0.290182 0.209914 0.499994 0.555763
C2    C     C_R   0.568877 0.251121 0.030569 -0.111946
C3    C     C_R   0.533263 0.750705 0.119402 0.403095
C4    C     C_R   0.996988 0.250427 0.940084 0.029259
C5    C     C_R   0.002996 0.250424 0.059916 0.029280
C6    C     C_R   0.496978 0.750433 0.940088 0.029310
C7    C     C_R   0.502980 0.750442 0.059914 0.029295
C8    C     C_R   0.985022 0.250271 0.970069 -0.027499
C9    C     C_R   0.014961 0.250270 0.029931 -0.027498
C10   C     C_R   0.485010 0.750281 0.970070 -0.027477
C11   C     C_R   0.514948 0.750284 0.029932 -0.027479
C12   C     C_R   0.943194 0.250109 0.940342 0.029891
C13   C     C_R   0.039708 0.750693 0.971449 -0.115164
C14   C     C_R   0.056790 0.250108 0.059658 0.029889
C15   C     C_R   0.443181 0.750119 0.940340 0.029883
C16   C     C_R   0.556777 0.750122 0.059661 0.029958
C17   C     C_R   0.038828 0.250406 0.970188 -0.118431
C18   C     C_R   0.961155 0.250402 0.029812 -0.118443
C19   C     C_R   0.538819 0.750412 0.970194 -0.118456
C20   C     C_R   0.461139 0.750421 0.029808 -0.118206
C21   C     C_R   0.068391 0.250141 0.029297 -0.118986
C22   C     C_R   0.931593 0.250139 0.970703 -0.119032
C23   C     C_R   0.568380 0.750151 0.029303 -0.119024
C24   C     C_R   0.068898 0.751067 0.030574 -0.111892
C25   C     C_R   0.431578 0.750154 0.970698 -0.118828
C26   C     C_R   0.105756 0.227196 0.238913 -0.054470
C27   C     C_R   0.894228 0.227199 0.761080 -0.054518
C28   C     C_R   0.605737 0.727214 0.238911 -0.054590
C29   C     C_R   0.394222 0.727199 0.761083 -0.054423
C30   C     C_R   0.135167 0.227221 0.298041 -0.137740
C31   C     C_R   0.864820 0.227224 0.701952 -0.137799
C32   C     C_R   0.635153 0.727234 0.298038 -0.137810
C33   C     C_R   0.364817 0.727223 0.701955 -0.137691
C34   C     C_R   0.164144 0.250084 0.328201 0.006987
C35   C     C_R   0.371552 0.223534 0.760958 0.095126
C36   C     C_R   0.835848 0.250086 0.671799 0.006958
C37   C     C_R   0.664135 0.750093 0.328201 0.007197
C38   C     C_R   0.335846 0.750086 0.671800 0.006903
C39   C     C_R   0.195406 0.250036 0.390725 0.551472
C40   C     C_R   0.804592 0.250037 0.609275 0.551430
C41   C     C_R   0.695403 0.750039 0.390725 0.552252
C42   C     C_R   0.304592 0.750037 0.609275 0.551344
C43   C     C_R   0.162956 0.273002 0.298058 -0.138141
C44   C     C_R   0.837037 0.273003 0.701948 -0.138279
C45   C     C_R   0.662944 0.773014 0.298062 -0.137539
C46   C     C_R   0.628493 0.223449 0.239129 0.094912
C47   C     C_R   0.337033 0.773004 0.701946 -0.138270
C48   C     C_R   0.133215 0.273130 0.238931 -0.053191
C49   C     C_R   0.866773 0.273132 0.761076 -0.053271
C50   C     C_R   0.633199 0.773148 0.238935 -0.052939
C51   C     C_R   0.366767 0.773133 0.761073 -0.053247
C52   C     C_R   0.104477 0.250189 0.208917 0.232878
C53   C     C_R   0.895508 0.250192 0.791083 0.232882
C54   C     C_R   0.604458 0.750208 0.208918 0.232806
C55   C     C_R   0.395501 0.750192 0.791083 0.232845
C56   C     C_3   0.150886 0.394716 0.540800 -0.111631
C57   C     C_R   0.871542 0.723530 0.760957 0.095180
C58   C     C_3   0.849153 0.395008 0.459882 -0.111805
C59   C     C_3   0.650605 0.891448 0.546815 -0.111548
C60   C     C_3   0.349246 0.895456 0.460971 -0.111756
C61   C     C_3   0.149780 0.361442 0.550061 0.061638
C62   C     C_3   0.849661 0.361805 0.449567 0.061799
C63   C     C_3   0.643860 0.857883 0.545342 0.061481
C64   C     C_3   0.348830 0.862379 0.449052 0.061802
C65   C     C_1   0.187382 0.312522 0.500003 0.048530
C66   C     C_1   0.812616 0.312522 0.499993 0.048409
C67   C     C_1   0.687368 0.812522 0.499975 0.048347
C68   C     C_R   0.128484 0.723440 0.239135 0.094983
C69   C     C_1   0.312613 0.812522 0.499987 0.048470
C70   C     C_1   0.062329 0.437415 0.499837 0.001379
C71   C     C_1   0.937664 0.437414 0.500149 0.000748
C72   C     C_1   0.562320 0.937413 0.499822 0.000873
C73   C     C_1   0.437662 0.937415 0.500146 0.000955
C74   C     C_3   0.146177 0.387100 0.490127 -0.155925
C75   C     C_3   0.854411 0.387024 0.510899 -0.156220
C76   C     C_3   0.651763 0.887437 0.500663 -0.156466
C77   C     C_3   0.355323 0.886894 0.512467 -0.156048
C78   C     C_3   0.145267 0.353931 0.500098 0.012771
C79   C     C_R   0.340898 0.224647 0.701426 -0.137161
C80   C     C_3   0.854718 0.353931 0.499873 0.012911
C81   C     C_3   0.645148 0.853925 0.499871 0.012944
C82   C     C_3   0.354696 0.853934 0.499835 0.012851
C83   C     C_3   0.098864 0.388340 0.449224 -0.109533
C84   C     C_3   0.901673 0.387972 0.551095 -0.109826
C85   C     C_3   0.604679 0.891942 0.453647 -0.110193
C86   C     C_3   0.402482 0.887395 0.551559 -0.109589
C87   C     C_R   0.585616 0.250750 0.119808 0.436189
C88   C     C_R   0.467807 0.249667 0.881197 0.433650
C89   C     C_R   0.085634 0.750724 0.119811 0.436240
C90   C     C_R   0.659073 0.224581 0.298616 -0.133922
C91   C     C_R   0.967828 0.749628 0.881200 0.433622
C92   C     C_3   0.103943 0.395471 0.499931 0.016657
C93   C     C_3   0.896043 0.395470 0.500042 0.016689
C94   C     C_3   0.603871 0.895466 0.499797 0.016737
C95   C     C_3   0.396030 0.895473 0.500020 0.016698
C96   C     C_3   0.098523 0.355160 0.459831 0.061131
C97   C     C_3   0.901410 0.354872 0.539440 0.061256
C98   C     C_3   0.598609 0.858369 0.453542 0.061481
C99   C     C_3   0.401283 0.854436 0.538309 0.061158
C100  C     C_3   0.102747 0.362411 0.509955 -0.106158
C101  C     C_R   0.840884 0.724648 0.701425 -0.137091
C102  C     C_3   0.896632 0.362487 0.488957 -0.106023
C103  C     C_3   0.596940 0.862061 0.499001 -0.105984
C104  C     C_3   0.395681 0.862624 0.487322 -0.106157
C105  C     C_1   0.168429 0.331240 0.500024 0.054584
C106  C     C_1   0.831565 0.331239 0.499964 0.054475
C107  C     C_1   0.668381 0.831238 0.499931 0.054353
C108  C     C_1   0.331556 0.831240 0.499947 0.054551
C109  C     C_1   0.081106 0.418499 0.499846 -0.016032
C110  C     C_1   0.918883 0.418499 0.500133 -0.016556
C111  C     C_1   0.581075 0.918496 0.499790 -0.016473
C112  C     C_R   0.709818 0.209914 0.500006 0.555781
C113  C     C_R   0.159060 0.724573 0.298622 -0.134109
C114  C     C_1   0.418877 0.918501 0.500124 -0.016391
C115  C     C_R   0.540145 0.040170 0.499930 0.549673
C116  C     C_R   0.459857 0.040170 0.500074 0.549763
C117  C     C_R   0.040146 0.540170 0.499930 0.549782
C118  C     C_R   0.959857 0.540169 0.500075 0.549364
C119  C     C_R   0.960001 0.459910 0.500079 0.550293
C120  C     C_R   0.039997 0.459910 0.499916 0.550743
C121  C     C_R   0.460001 0.959910 0.500079 0.550453
C122  C     C_R   0.539996 0.959910 0.499915 0.550365
C123  C     C_R   0.532283 0.249333 0.118826 0.428038
C124  C     C_R   0.336271 0.249557 0.671815 -0.013294
C125  C     C_R   0.414460 0.250559 0.880213 0.435549
C126  C     C_R   0.032298 0.749350 0.118826 0.427914
C127  C     C_R   0.914480 0.750563 0.880213 0.435345
C128  C     C_R   0.502351 0.250076 0.059318 0.034307
C129  C     C_R   0.443292 0.250619 0.939707 0.036230
C130  C     C_R   0.002368 0.750089 0.059319 0.034384
C131  C     C_R   0.943311 0.750625 0.939708 0.036234
C132  C     C_R   0.514821 0.250514 0.029950 -0.023821
C133  C     C_R   0.485256 0.250533 0.970071 -0.024075
C134  C     C_R   0.014839 0.750503 0.029952 -0.023839
C135  C     C_R   0.663734 0.249531 0.328187 -0.014783
C136  C     C_R   0.985275 0.750519 0.970073 -0.024109
C137  C     C_R   0.556783 0.250854 0.060314 0.038122
C138  C     C_R   0.497728 0.250390 0.940704 0.034396
C139  C     C_R   0.056802 0.750823 0.060318 0.038052
C140  C     C_R   0.997749 0.750352 0.940707 0.034289
C141  C     C_2   0.406061 0.128417 0.611170 0.580967
C142  C     C_2   0.593303 0.128879 0.388518 0.580739
C143  C     C_2   0.910878 0.632153 0.613293 0.581067
C144  C     C_2   0.103444 0.621961 0.394894 0.580289
C145  C     C_3   0.465034 0.166650 0.595557 -0.087348
C146  C     C_R   0.836280 0.749550 0.671816 -0.013265
C147  C     C_3   0.535232 0.167044 0.405801 -0.087290
C148  C     C_3   0.962715 0.669652 0.584848 -0.088097
C149  C     C_3   0.032686 0.660433 0.387353 -0.086301
C150  C     C_2   0.177926 0.346962 0.607074 0.587684
C151  C     C_2   0.820897 0.347739 0.392165 0.587502
C152  C     C_2   0.665381 0.839357 0.597211 0.587825
C153  C     C_2   0.319141 0.848961 0.391101 0.587356
C154  C     C_2   0.068246 0.333522 0.414007 0.588548
C155  C     C_2   0.931629 0.332906 0.584471 0.588451
C156  C     C_2   0.568557 0.840393 0.400783 0.588201
C157  C     C_R   0.163738 0.749532 0.328188 -0.015107
C158  C     C_2   0.431380 0.831969 0.582085 0.588544
C159  C     C_2   0.377059 0.195871 0.790197 0.619276
C160  C     C_2   0.623271 0.195671 0.210342 0.616471
C161  C     C_2   0.877021 0.695875 0.790193 0.619366
C162  C     C_2   0.123240 0.695652 0.210353 0.616263
C163  C     C_R   0.362332 0.273806 0.702250 -0.139381
C164  C     C_R   0.637738 0.273801 0.297723 -0.139128
C165  C     C_R   0.862373 0.773784 0.702254 -0.139791
C166  C     C_R   0.137765 0.773811 0.297721 -0.139482
C167  C     C_R   0.392024 0.273403 0.761277 -0.080272
C168  C     C_R   0.790181 0.709914 0.499992 0.555983
C169  C     C_R   0.608083 0.273386 0.238696 -0.078823
C170  C     C_R   0.892070 0.773376 0.761281 -0.080323
C171  C     C_R   0.108115 0.773395 0.238693 -0.079069
C172  C     C_R   0.396934 0.248564 0.791169 0.215186
C173  C     C_R   0.603166 0.248520 0.208847 0.211421
C174  C     C_R   0.896954 0.748547 0.791170 0.215285
C175  C     C_R   0.103179 0.748519 0.208849 0.211469
C176  C     C_3   0.360982 0.122858 0.448532 -0.138036
C177  C     C_3   0.639326 0.122639 0.551629 -0.138180
C178  C     C_3   0.858745 0.621107 0.447577 -0.138370
C179  C     C_R   0.209816 0.709914 0.500003 0.555271
C180  C     C_3   0.134619 0.625878 0.548730 -0.137765
C181  C     C_3   0.335335 0.117879 0.463475 -0.139361
C182  C     C_3   0.664604 0.117725 0.536080 -0.139617
C183  C     C_3   0.835982 0.616706 0.467138 -0.139461
C184  C     C_3   0.165161 0.620261 0.542311 -0.139244
C185  C     C_R   0.304703 0.249974 0.609286 0.561017
C186  C     C_R   0.695296 0.249968 0.390715 0.560675
C187  C     C_R   0.804705 0.749972 0.609286 0.560576
C188  C     C_R   0.195297 0.749968 0.390715 0.560157
C189  C     C_1   0.312735 0.187531 0.500187 0.016873
C190  C     C_R   0.460390 0.250183 0.028578 -0.114877
C191  C     C_1   0.687267 0.187531 0.499816 0.016675
C192  C     C_1   0.812734 0.687531 0.500184 0.016848
C193  C     C_1   0.187267 0.687529 0.499813 0.016700
C194  C     C_1   0.437439 0.062550 0.500184 0.004395
C195  C     C_1   0.562568 0.062549 0.499828 0.004233
C196  C     C_1   0.937441 0.562549 0.500189 0.003826
C197  C     C_1   0.062571 0.562550 0.499837 0.004563
C198  C     C_3   0.380158 0.151106 0.485893 -0.130249
C199  C     C_3   0.620216 0.151042 0.514727 -0.130192
C200  C     C_3   0.877279 0.650542 0.481255 -0.130279
C201  C     C_R   0.431197 0.250592 0.969453 -0.113878
C202  C     C_3   0.114974 0.651715 0.505576 -0.130333
C203  C     C_3   0.354878 0.145712 0.501107 -0.009470
C204  C     C_3   0.645124 0.145714 0.498904 -0.009404
C205  C     C_3   0.854904 0.645736 0.501109 -0.009398
C206  C     C_3   0.145185 0.645667 0.498930 -0.009495
C207  C     C_3   0.414481 0.131923 0.537389 0.300094
C208  C     C_3   0.585588 0.132075 0.463068 0.300223
C209  C     C_3   0.913891 0.633099 0.533830 0.300169
C210  C     C_3   0.085144 0.629536 0.457054 0.299979
C211  C     C_3   0.395679 0.104169 0.500437 0.053757
C212  C     C_R   0.960407 0.750216 0.028576 -0.115275
C213  C     C_3   0.604327 0.104167 0.499572 0.053818
C214  C     C_3   0.895702 0.604170 0.500478 0.053725
C215  C     C_3   0.104373 0.604164 0.499659 0.053863
C216  C     C_3   0.389467 0.126838 0.552589 0.084599
C217  C     C_3   0.610235 0.127055 0.447269 0.084666
C218  C     C_3   0.891744 0.628599 0.553598 0.084726
C219  C     C_3   0.115028 0.623794 0.450294 0.084595
C220  C     C_3   0.370343 0.098777 0.515340 -0.139227
C221  C     C_3   0.629294 0.098839 0.484062 -0.139378
C222  C     C_3   0.873254 0.599354 0.520010 -0.139065
C223  C     C_R   0.931215 0.750622 0.969452 -0.114227
C224  C     C_3   0.134610 0.598136 0.493297 -0.139482
C225  C     C_1   0.331716 0.168684 0.500500 0.001617
C226  C     C_1   0.668287 0.168684 0.499507 0.001447
C227  C     C_1   0.831722 0.668691 0.500498 0.001583
C228  C     C_1   0.168304 0.668670 0.499512 0.001506
C229  C     C_1   0.418597 0.081334 0.500289 0.005154
C230  C     C_1   0.581410 0.081333 0.499725 0.004995
C231  C     C_1   0.918606 0.581334 0.500306 0.004740
C232  C     C_1   0.081428 0.581334 0.499761 0.005272
C233  C     C_R   0.209868 0.290155 0.500006 0.559851
C234  C     C_R   0.539687 0.250750 0.971445 -0.115242
C235  C     C_R   0.790132 0.290155 0.499995 0.559917
C236  C     C_R   0.709871 0.790155 0.500012 0.559970
C237  C     C_R   0.290132 0.790155 0.499996 0.559845
C238  C     C_R   0.913973 0.249818 0.880850 0.401461
C239  C     C_R   0.086010 0.249816 0.119149 0.401494
C240  C     C_R   0.413962 0.749824 0.880848 0.401556
C241  C     C_R   0.585995 0.749833 0.119153 0.401490
C242  C     C_R   0.966703 0.250688 0.880597 0.402855
C243  C     C_R   0.033281 0.250683 0.119403 0.402895
C244  C     C_R   0.466695 0.750690 0.880601 0.402865
Cu1   Cu    Cu3+1 0.270730 0.270750 0.499980 0.969888
Cu2   Cu    Cu3+1 0.528080 0.000050 0.556280 1.007377
Cu3   Cu    Cu3+1 0.971920 0.500050 0.443720 1.009517
Cu4   Cu    Cu3+1 0.028080 0.500050 0.556280 1.008369
Cu5   Cu    Cu3+1 0.729270 0.270750 0.500020 0.969912
Cu6   Cu    Cu3+1 0.770730 0.770750 0.499980 0.969898
Cu7   Cu    Cu3+1 0.229270 0.770750 0.500020 0.969264
Cu8   Cu    Cu3+1 0.229330 0.229310 0.500030 1.014373
Cu9   Cu    Cu3+1 0.770670 0.229310 0.499970 1.013364
Cu10  Cu    Cu3+1 0.729330 0.729310 0.500030 1.013475
Cu11  Cu    Cu3+1 0.270670 0.729310 0.499970 1.015099
Cu12  Cu    Cu3+1 0.471920 0.000050 0.443720 1.010544
H1    H     H_    0.449954 0.249938 0.050082 0.173458
H2    H     H_    0.951095 0.250496 0.051799 0.173294
H3    H     H_    0.441087 0.793854 0.621726 0.353669
H4    H     H_    0.414375 0.169964 0.859563 0.352726
H5    H     H_    0.647953 0.157034 0.215458 0.355488
H6    H     H_    0.914313 0.669960 0.859550 0.352629
H7    H     H_    0.147886 0.656989 0.215487 0.355484
H8    H     H_    0.548881 0.750505 0.948210 0.173262
H9    H     H_    0.451077 0.750518 0.051792 0.173485
H10   H     H_    0.100343 0.250044 0.051082 0.172011
H11   H     H_    0.899641 0.250042 0.948918 0.171950
H12   H     H_    0.600332 0.750054 0.051091 0.171899
H13   H     H_    0.399625 0.750057 0.948911 0.172130
H14   H     H_    0.083969 0.209229 0.216350 0.143182
H15   H     H_    0.916011 0.209232 0.783638 0.143134
H16   H     H_    0.583948 0.709248 0.216344 0.143230
H17   H     H_    0.399137 0.250642 0.947162 0.175452
H18   H     H_    0.416005 0.709232 0.783643 0.143244
H19   H     H_    0.135458 0.209203 0.320119 0.139446
H20   H     H_    0.864528 0.209205 0.679869 0.139333
H21   H     H_    0.635445 0.709213 0.320114 0.139461
H22   H     H_    0.364526 0.709203 0.679874 0.139533
H23   H     H_    0.184755 0.290985 0.320153 0.138653
H24   H     H_    0.815241 0.290986 0.679859 0.138566
H25   H     H_    0.684746 0.790996 0.320159 0.138965
H26   H     H_    0.315238 0.790987 0.679855 0.138644
H27   H     H_    0.132437 0.291137 0.216384 0.144201
H28   H     H_    0.949970 0.749989 0.050079 0.172979
H29   H     H_    0.867553 0.291139 0.783629 0.144164
H30   H     H_    0.632421 0.791156 0.216390 0.144361
H31   H     H_    0.367546 0.791140 0.783624 0.144260
H32   H     H_    0.550125 0.250733 0.949941 0.173023
H33   H     H_    0.600936 0.251372 0.052860 0.175048
H34   H     H_    0.050147 0.750657 0.949947 0.173225
H35   H     H_    0.100957 0.751302 0.052866 0.175157
H36   H     H_    0.172393 0.411172 0.574451 0.137743
H37   H     H_    0.827687 0.411705 0.426811 0.137369
H38   H     H_    0.671929 0.905215 0.585515 0.138136
H39   H     H_    0.899155 0.750687 0.947160 0.175138
H40   H     H_    0.327867 0.912521 0.428813 0.137416
H41   H     H_    0.084816 0.352346 0.518101 0.148466
H42   H     H_    0.914067 0.352485 0.479943 0.148387
H43   H     H_    0.574328 0.851714 0.498316 0.148217
H44   H     H_    0.412349 0.852732 0.476990 0.148053
H45   H     H_    0.077515 0.399543 0.407433 0.141919
H46   H     H_    0.923474 0.398871 0.593168 0.141323
H47   H     H_    0.588168 0.906114 0.415593 0.140822
H48   H     H_    0.424958 0.897818 0.594030 0.141670
H49   H     H_    0.164119 0.397130 0.481987 0.133030
H50   H     H_    0.383770 0.172664 0.473584 0.114079
H51   H     H_    0.836965 0.396992 0.519907 0.132517
H52   H     H_    0.674383 0.897750 0.501347 0.132130
H53   H     H_    0.338643 0.896752 0.522791 0.132817
H54   H     H_    0.321340 0.205644 0.677890 0.170687
H55   H     H_    0.678594 0.205580 0.322219 0.178660
H56   H     H_    0.821301 0.705654 0.677888 0.170582
H57   H     H_    0.178565 0.705565 0.322230 0.178701
H58   H     H_    0.359325 0.293304 0.680408 0.142808
H59   H     H_    0.640770 0.293323 0.319544 0.142772
H60   H     H_    0.859388 0.793275 0.680415 0.142089
H61   H     H_    0.616906 0.172548 0.527532 0.114024
H62   H     H_    0.140812 0.793340 0.319539 0.142827
H63   H     H_    0.411272 0.292606 0.784077 0.140454
H64   H     H_    0.588867 0.292595 0.215862 0.140620
H65   H     H_    0.911342 0.792570 0.784083 0.140125
H66   H     H_    0.088915 0.792610 0.215856 0.140546
H67   H     H_    0.302274 0.112333 0.432735 0.136384
H68   H     H_    0.697612 0.112051 0.566445 0.135997
H69   H     H_    0.803427 0.610182 0.439389 0.136287
H70   H     H_    0.198568 0.616698 0.577737 0.136386
H71   H     H_    0.349325 0.120772 0.405597 0.132698
H72   H     H_    0.878522 0.671625 0.465155 0.114024
H73   H     H_    0.651227 0.120373 0.594682 0.132360
H74   H     H_    0.845253 0.617573 0.403877 0.132220
H75   H     H_    0.142641 0.626296 0.589422 0.132864
H76   H     H_    0.366434 0.077184 0.527223 0.135018
H77   H     H_    0.632901 0.077297 0.471680 0.134784
H78   H     H_    0.871709 0.578223 0.535702 0.135278
H79   H     H_    0.142527 0.576042 0.488437 0.134405
H80   H     H_    0.403801 0.147707 0.664600 0.353516
H81   H     H_    0.595264 0.148389 0.334942 0.353339
H82   H     H_    0.910887 0.653228 0.667678 0.353625
H83   H     H_    0.107338 0.673801 0.510882 0.113947
H84   H     H_    0.110194 0.638158 0.344247 0.352956
H85   H     H_    0.450854 0.172487 0.611906 0.135730
H86   H     H_    0.454627 0.182107 0.561324 0.110201
H87   H     H_    0.498575 0.169445 0.630913 0.162026
H88   H     H_    0.549210 0.172949 0.389190 0.135745
H89   H     H_    0.545965 0.182357 0.440384 0.110132
H90   H     H_    0.501688 0.169988 0.370747 0.162098
H91   H     H_    0.950101 0.676065 0.603167 0.135661
H92   H     H_    0.949822 0.683922 0.548039 0.110162
H93   H     H_    0.996185 0.673590 0.617754 0.161395
H94   H     H_    0.048889 0.250502 0.948201 0.173331
H95   H     H_    0.049648 0.665405 0.374838 0.136043
H96   H     H_    0.038553 0.677784 0.416300 0.110248
H97   H     H_    0.999574 0.661000 0.348366 0.163087
H98   H     H_    0.221076 0.316098 0.658894 0.354954
H99   H     H_    0.777186 0.317250 0.339991 0.354769
H100  H     H_    0.702502 0.804824 0.644328 0.355434
H101  H     H_    0.274588 0.819061 0.338423 0.354608
H102  H     H_    0.058371 0.296159 0.372495 0.353728
H103  H     H_    0.941452 0.295247 0.625261 0.353677
H104  H     H_    0.558864 0.806360 0.352926 0.354158
N1    N     N_R   0.573031 0.249451 0.147819 -0.379496
N2    N     N_R   0.427054 0.249525 0.852195 -0.374047
N3    N     N_R   0.073046 0.749448 0.147821 -0.379412
N4    N     N_R   0.927074 0.749507 0.852197 -0.374084
N5    N     N_R   0.926035 0.250240 0.852124 -0.397271
N6    N     N_R   0.073949 0.250236 0.147876 -0.397269
N7    N     N_R   0.426026 0.750242 0.852124 -0.397281
N8    N     N_R   0.573932 0.750256 0.147877 -0.397238
O1    O     O_R   0.297740 0.237300 0.499980 -0.504201
O2    O     O_2   0.126156 0.248811 0.148028 -0.495355
O3    O     O_R   0.155114 0.675079 0.239206 -0.689184
O4    O     O_2   0.373816 0.748819 0.851967 -0.495166
O5    O     O_2   0.626141 0.748828 0.148034 -0.495573
O6    O     O_2   0.977838 0.251681 0.851470 -0.488532
O7    O     O_2   0.022146 0.251673 0.148531 -0.488517
O8    O     O_2   0.477832 0.751679 0.851476 -0.488551
O9    O     O_2   0.522127 0.751698 0.148527 -0.488331
O10   O     O_R   0.506500 0.030290 0.452440 -0.492577
O11   O     O_R   0.493500 0.030290 0.547560 -0.492883
O12   O     O_R   0.006500 0.530290 0.452440 -0.492157
O13   O     O_R   0.702260 0.237300 0.500020 -0.504035
O14   O     O_R   0.993500 0.530290 0.547560 -0.493340
O15   O     O_R   0.554020 0.030300 0.547500 -0.505864
O16   O     O_R   0.445980 0.030300 0.452500 -0.505381
O17   O     O_R   0.054020 0.530300 0.547500 -0.505657
O18   O     O_R   0.945980 0.530300 0.452500 -0.505640
O19   O     O_R   0.946100 0.469810 0.452510 -0.499244
O20   O     O_R   0.053900 0.469810 0.547490 -0.499210
O21   O     O_R   0.446100 0.969810 0.452510 -0.499087
O22   O     O_R   0.553900 0.969810 0.547490 -0.500065
O23   O     O_R   0.993620 0.469830 0.547570 -0.498349
O24   O     O_R   0.797740 0.737300 0.499980 -0.503483
O25   O     O_R   0.006380 0.469830 0.452430 -0.497773
O26   O     O_R   0.493620 0.969830 0.547570 -0.498236
O27   O     O_R   0.506380 0.969830 0.452430 -0.497353
O28   O     O_R   0.262780 0.202300 0.500020 -0.498854
O29   O     O_R   0.737220 0.202300 0.499980 -0.499232
O30   O     O_R   0.762780 0.702300 0.500020 -0.499887
O31   O     O_R   0.237220 0.702300 0.499980 -0.497171
O32   O     O_R   0.308560 0.267540 0.582110 -0.506939
O33   O     O_R   0.691440 0.267540 0.417890 -0.506612
O34   O     O_R   0.808560 0.767540 0.582110 -0.507094
O35   O     O_R   0.202260 0.737300 0.500020 -0.505231
O36   O     O_R   0.191440 0.767540 0.417890 -0.507032
O37   O     O_R   0.273600 0.232550 0.582140 -0.499481
O38   O     O_R   0.726400 0.232550 0.417860 -0.499682
O39   O     O_R   0.773600 0.732550 0.582140 -0.499761
O40   O     O_R   0.226400 0.732550 0.417860 -0.499460
O41   O     O_R   0.237280 0.297760 0.499990 -0.512772
O42   O     O_R   0.762720 0.297760 0.500010 -0.512719
O43   O     O_R   0.737280 0.797760 0.499990 -0.513134
O44   O     O_R   0.262720 0.797760 0.500010 -0.512520
O45   O     O_R   0.202320 0.262770 0.500030 -0.481551
O46   O     O_2   0.520779 0.248238 0.147486 -0.482839
O47   O     O_R   0.797680 0.262770 0.499970 -0.481559
O48   O     O_R   0.702320 0.762770 0.500030 -0.481475
O49   O     O_R   0.297680 0.762770 0.499970 -0.481655
O50   O     O_R   0.226460 0.267520 0.417870 -0.511511
O51   O     O_R   0.773540 0.267520 0.582130 -0.511538
O52   O     O_R   0.726460 0.767520 0.417870 -0.511251
O53   O     O_R   0.273540 0.767520 0.582130 -0.511419
O54   O     O_R   0.191500 0.232520 0.417900 -0.508196
O55   O     O_R   0.808500 0.232520 0.582100 -0.508262
O56   O     O_R   0.691500 0.732520 0.417900 -0.508018
O57   O     O_2   0.374167 0.251390 0.850564 -0.477645
O58   O     O_R   0.308500 0.732520 0.582100 -0.508258
O59   O     O_2   0.625903 0.251800 0.149467 -0.477222
O60   O     O_2   0.479329 0.248824 0.852548 -0.482442
O61   O     O_2   0.125922 0.751755 0.149472 -0.477081
O62   O     O_2   0.979350 0.748762 0.852553 -0.482045
O63   O     O_2   0.433729 0.111848 0.647842 -0.473304
O64   O     O_R   0.389989 0.148766 0.623645 -0.701272
O65   O     O_2   0.565419 0.112464 0.351733 -0.473036
O66   O     O_R   0.609310 0.149278 0.376015 -0.701641
O67   O     O_2   0.940163 0.616829 0.650699 -0.473037
O68   O     O_2   0.020792 0.748277 0.147485 -0.483912
O69   O     O_R   0.895306 0.652909 0.625951 -0.701374
O70   O     O_2   0.078960 0.603244 0.360284 -0.474211
O71   O     O_R   0.120513 0.641600 0.382993 -0.701381
O72   O     O_3   0.457013 0.137183 0.576662 -0.538354
O73   O     O_3   0.543112 0.137498 0.424249 -0.538264
O74   O     O_3   0.955874 0.639612 0.569472 -0.538725
O75   O     O_3   0.042325 0.632274 0.412127 -0.538169
O76   O     O_2   0.178256 0.355363 0.642952 -0.489927
O77   O     O_R   0.203573 0.324016 0.619015 -0.690030
O78   O     O_2   0.820174 0.356402 0.356042 -0.490269
O79   O     O_2   0.874188 0.751415 0.850564 -0.478009
O80   O     O_R   0.795122 0.324878 0.380143 -0.690254
O81   O     O_2   0.661552 0.845205 0.629884 -0.488704
O82   O     O_R   0.689629 0.815572 0.608037 -0.688728
O83   O     O_2   0.317839 0.858033 0.354639 -0.490712
O84   O     O_R   0.293170 0.826235 0.378957 -0.690444
O85   O     O_2   0.031737 0.337410 0.385035 -0.488981
O86   O     O_R   0.081746 0.309086 0.404569 -0.688241
O87   O     O_2   0.968101 0.336588 0.612943 -0.488991
O88   O     O_R   0.918117 0.308402 0.593743 -0.688207
O89   O     O_2   0.532210 0.846589 0.367483 -0.489133
O90   O     O_2   0.873827 0.248813 0.851971 -0.495460
O91   O     O_R   0.582078 0.816722 0.389847 -0.689568
O92   O     O_2   0.467780 0.835335 0.609776 -0.488345
O93   O     O_R   0.417837 0.807360 0.591083 -0.688031
O94   O     O_2   0.348837 0.178263 0.766233 -0.495546
O95   O     O_R   0.414637 0.189444 0.844514 -0.667926
O96   O     O_2   0.591046 0.190323 0.162049 -0.479696
O97   O     O_R   0.655168 0.175118 0.239181 -0.689048
O98   O     O_2   0.848777 0.678287 0.766233 -0.495879
O99   O     O_R   0.914595 0.689432 0.844503 -0.667854
O100  O     O_2   0.091016 0.690313 0.162054 -0.479854

loop_
_geom_bond_atom_site_label_1
_geom_bond_atom_site_label_2
_ccdc_geom_bond_type
C112  O29   A    
C208  O73   S    
Cu5   Cu9   S    
C118  O18   A    
C160  O96   D    
C167  H63   S    
C87   N1    A    
C79   H54   S    
C74   C83   S    
C136  C140  A    
C221  H77   S    
C39   O50   A    
C211  C220  S    
C43   C48   A    
C2    H33   S    
C151  O80   S    
C87   C137  A    
C149  O75   S    
C170  C174  A    
C14   C239  A    
C92   C109  S    
C177  C182  S    
C29   C33   A    
C94   C111  S    
H7    O3    S    
C115  C195  S    
C214  C222  S    
Cu10  O30   S    
C96   C154  S    
C78   C96   S    
C166  H62   S    
C223  H39   S    
C157  C188  S    
C188  O36   A    
C135  C186  S    
C93   C110  S    
C178  H74   S    
C30   H19   S    
C35   C172  A    
C130  C134  A    
C163  H58   S    
C145  H85   S    
C214  C231  S    
Cu12  O16   S    
C151  O78   D    
C217  C221  S    
C101  C146  A    
C98   C156  S    
C182  H68   S    
C27   C31   A    
C177  C213  S    
C146  C187  S    
C28   C32   A    
H80   O64   S    
C60   C77   S    
C28   C54   A    
C125  N2    A    
C29   C55   A    
C185  O32   A    
C132  C137  A    
C17   C21   A    
C73   C114  T    
C215  C232  S    
C174  N4    S    
C19   C23   A    
Cu9   O47   S    
C47   H26   S    
Cu10  O48   S    
C158  O92   D    
C89   O61   S    
C46   C160  S    
C181  C220  S    
C147  O73   S    
C86   C99   S    
C88   C138  A    
C74   H49   S    
C84   H46   S    
C85   H47   S    
Cu1   Cu8   S    
C173  N1    S    
C73   C121  S    
C4    C242  A    
C199  C204  S    
C36   C44   A    
Cu9   O38   S    
C37   C45   A    
C41   O56   A    
C203  C225  S    
H5    O97   S    
Cu7   O36   S    
C14   C21   A    
C179  C193  S    
C197  C232  T    
C51   H31   S    
C208  C217  S    
C40   O55   A    
C149  H95   S    
C59   C63   S    
C180  C215  S    
C33   C38   A    
C27   C53   A    
C176  C211  S    
Cu5   O13   S    
C206  C219  S    
C3    C7    A    
C200  C209  S    
C168  C192  S    
C71   C119  S    
C60   C64   S    
C113  H57   S    
C144  O71   S    
C143  C218  S    
C168  O24   A    
C183  H69   S    
C77   C82   S    
C183  C222  S    
C241  O5    S    
C207  C216  S    
C51   C55   A    
C84   C93   S    
C177  H73   S    
C63   C152  S    
C24   H35   S    
C86   C95   S    
C210  C219  S    
C91   C140  A    
C60   C95   S    
C125  C129  A    
C240  O4    S    
C57   C161  S    
C207  O72   S    
C81   C98   S    
C126  C130  A    
C31   C36   A    
C113  C157  A    
C100  H41   S    
C145  H87   S    
C76   C85   S    
Cu12  O10   S    
C32   H21   S    
C180  C184  S    
C91   O62   S    
C201  H17   S    
C76   H52   S    
Cu1   O1    S    
C77   H53   S    
C208  C213  S    
C28   H16   S    
C80   C97   S    
C153  O83   D    
C202  C206  S    
C89   N3    A    
C238  N5    A    
Cu11  O49   S    
C147  H90   S    
C6    C19   A    
H82   O69   S    
C171  H66   S    
C45   C50   A    
C62   C80   S    
C116  O11   A    
H81   O66   S    
H102  O86   S    
C181  H67   S    
C49   C53   A    
C75   C84   S    
C15   C25   A    
Cu5   O42   S    
C210  C215  S    
Cu3   O25   S    
C12   C22   A    
C19   H8    S    
C120  O20   A    
C91   N4    A    
C70   C120  S    
C82   C108  S    
Cu11  O40   S    
Cu10  O39   S    
C128  C190  A    
C179  O35   A    
C124  C163  A    
C129  C201  A    
Cu8   O45   S    
C39   O54   A    
C13   H34   S    
C150  O77   S    
C207  C211  S    
Cu6   O24   S    
C181  C203  S    
C65   C105  T    
C127  C131  A    
C33   H22   S    
C83   H45   S    
Cu4   O14   S    
C67   C236  S    
C30   C34   A    
C34   C39   S    
C239  N6    A    
C131  C136  A    
C134  C139  A    
C141  O63   D    
C17   H94   S    
C118  O14   A    
Cu4   O20   S    
C64   C153  S    
Cu8   O28   S    
C155  O88   S    
C5    C9    A    
C88   O60   S    
C187  O39   A    
C48   C52   A    
C104  H44   S    
C43   H23   S    
C237  O49   A    
C32   C37   A    
C161  O99   S    
C244  N7    A    
C21   H10   S    
C152  O81   D    
C123  O46   S    
C146  C165  A    
C26   C30   A    
C16   C23   A    
Cu6   O34   S    
C183  C205  S    
C148  H91   S    
C61   C100  S    
C148  O74   S    
C187  O34   A    
C143  O69   S    
C115  O15   A    
C147  H88   S    
C64   C104  S    
C42   O58   A    
C198  C207  S    
C18   C22   A    
H84   O71   S    
C34   C43   A    
C216  C220  S    
C176  C198  S    
C182  C221  S    
C102  H42   S    
C233  O41   A    
C126  O68   S    
C168  O30   A    
C57   C101  A    
C79   C124  A    
C202  H83   S    
C66   C235  S    
C115  O10   A    
C123  N1    A    
Cu11  O58   S    
C150  O76   D    
C126  N3    A    
C212  H28   S    
Cu7   O44   S    
C44   H24   S    
C59   H38   S    
C1    O1    A    
C83   C96   S    
C96   C100  S    
C12   C238  A    
C199  C208  S    
Cu12  O27   S    
C243  O7    S    
C37   C41   S    
C144  O70   D    
C10   C11   A    
Cu5   O51   S    
Cu3   O18   S    
Cu6   O52   S    
C40   O51   A    
C177  C199  S    
C154  O85   D    
C169  C173  A    
C198  H50   S    
C131  C223  A    
C59   C76   S    
C62   C102  S    
C1    C189  S    
C121  O26   A    
Cu6   Cu10  S    
C81   C107  S    
C200  C205  S    
C172  N2    S    
C88   N2    A    
C82   C99   S    
C27   H15   S    
C52   N6    S    
C3    N8    A    
C215  C224  S    
C142  O66   S    
C103  H43   S    
C50   C54   A    
C1    O28   A    
C182  C204  S    
C84   C97   S    
C65   C233  S    
C58   C93   S    
C239  O2    S    
C180  C202  S    
H99   O80   S    
C20   C25   A    
C31   H20   S    
C95   C114  S    
C98   C103  S    
C71   C110  T    
C184  C206  S    
C159  O94   D    
C53   N5    S    
C26   H14   S    
C158  O93   S    
C213  C221  S    
C22   H11   S    
C2    C234  A    
C241  N8    A    
C127  O79   S    
C148  H93   S    
C59   C94   S    
C8    C12   A    
C118  C196  S    
C178  C183  S    
C68   C113  A    
C184  H70   S    
C99   C104  S    
C162  O3    S    
C72   C111  T    
C133  C138  A    
Cu11  O31   S    
Cu3   O12   S    
C194  C229  T    
C162  O100  D    
Cu8   O54   S    
C141  C216  S    
C48   H27   S    
Cu7   O35   S    
Cu5   O33   S    
C24   C139  A    
Cu1   O41   S    
C176  C181  S    
C66   C106  T    
C56   C74   S    
C62   C151  S    
C178  C214  S    
C13   C140  A    
C244  O8    S    
C203  C216  S    
C63   C103  S    
C116  O16   A    
C58   H37   S    
C224  H79   S    
C47   C51   A    
H6    O99   S    
C121  O21   A    
C15   C240  A    
C3    O9    S    
C195  C230  T    
C192  C227  T    
C157  C166  A    
C170  H65   S    
C235  O47   A    
C9    C14   A    
C236  O48   A    
C179  O31   A    
C75   H51   S    
C11   C16   A    
C209  O74   S    
Cu7   Cu11  S    
C210  O75   S    
C238  O90   S    
Cu4   O23   S    
C46   C173  A    
C199  H61   S    
C145  O72   S    
C4    C17   A    
C94   C103  S    
C191  C226  T    
H100  O82   S    
C138  C234  A    
C142  O65   D    
C204  C226  S    
C145  H86   S    
Cu7   O53   S    
C125  O57   S    
C90   H55   S    
Cu6   O43   S    
C165  C170  A    
C178  C200  S    
C211  C229  S    
Cu2   O26   S    
C2    C137  A    
C186  O38   A    
C93   C102  S    
C6    C10   A    
C119  O19   A    
C167  C172  A    
C147  H89   S    
C117  O17   A    
C209  C214  S    
C42   O53   A    
Cu2   O11   S    
C6    C244  A    
C242  O6    S    
C101  H56   S    
C5    C18   A    
C234  H32   S    
C156  O89   D    
C205  C227  S    
C97   C155  S    
C18   H2    S    
C57   C174  A    
C75   C80   S    
C7    C20   A    
C74   C78   S    
C198  C203  S    
C237  O44   A    
C56   C61   S    
C97   C102  S    
C233  O45   A    
C213  C230  S    
Cu9   O29   S    
C44   C49   A    
Cu3   O19   S    
C58   C62   S    
C90   C135  A    
C149  H96   S    
C80   C106  S    
C68   C162  S    
C135  C164  A    
C130  C212  A    
Cu2   O22   S    
C4    C8    A    
C87   O59   S    
C127  N4    A    
C54   N8    S    
C7    C11   A    
C83   C92   S    
C49   H29   S    
C112  O13   A    
Cu2   Cu12  S    
C63   C81   S    
C78   C105  S    
C209  C218  S    
Cu8   O37   S    
C38   C42   S    
C20   H9    S    
C10   C15   A    
C124  C185  S    
C165  H60   S    
Cu4   O17   S    
C23   H12   S    
Cu1   O32   S    
C155  O87   D    
C35   C79   A    
C56   H36   S    
C85   C98   S    
C169  H64   S    
C55   N7    S    
C8    C9    A    
C89   C139  A    
C46   C90   A    
C243  N6    A    
C159  O95   S    
C161  O98   D    
C175  N3    S    
C220  H76   S    
H101  O84   S    
C152  O82   S    
C180  H75   S    
C16   C241  A    
C219  C224  S    
C166  C171  A    
C50   H30   S    
C148  H92   S    
C190  H1    S    
C68   C175  A    
C164  C169  A    
C153  O84   S    
C202  C210  S    
H98   O77   S    
C128  C132  A    
C69   C108  T    
C58   C75   S    
C218  C222  S    
C25   H13   S    
C205  C218  S    
C45   H25   S    
H3    O93   S    
H104  O91   S    
C36   C40   S    
C144  C219  S    
Cu2   O15   S    
C41   O52   A    
C132  C133  A    
C134  C136  A    
C156  O91   S    
C171  C175  A    
C5    C243  A    
C13   C24   A    
C163  C167  A    
C120  O25   A    
C142  C217  S    
C70   C109  T    
C26   C52   A    
Cu1   O50   S    
C200  H72   S    
C85   C94   S    
C222  H78   S    
C196  C231  T    
C61   C78   S    
C240  N7    A    
C160  O97   S    
C64   C82   S    
C38   C47   A    
C236  O43   A    
C242  N5    A    
C117  O12   A    
C77   C86   S    
C206  C228  S    
C154  O86   S    
C129  C133  A    
C117  C197  S    
C95   C104  S    
C92   C100  S    
H4    O95   S    
C61   C150  S    
C29   H18   S    
C184  C224  S    
C122  O22   A    
C72   C122  S    
C189  C225  T    
C193  C228  T    
C76   C81   S    
C122  O27   A    
C141  O64   S    
Cu3   Cu4   S    
C190  C201  A    
C143  O67   D    
C149  H97   S    
C86   H48   S    
C204  C217  S    
C164  H59   S    
C186  O33   A    
C116  C194  S    
C67   C107  T    
C123  C128  A    
C60   H40   S    
Cu12  O21   S    
Cu9   O55   S    
C112  C191  S    
Cu10  O56   S    
H103  O88   S    
C35   C159  S    
C176  H71   S    
C235  O42   A    
C56   C92   S    
C188  O40   A    
C99   C158  S    
C69   C237  S    
C119  O23   A    
C212  C223  A    
C185  O37   A    
