data_mof_unit_19663.cif
_audit_creation_date              2012-12-10T17:18:18-0500
_audit_creation_method            fapswitch 2.2
_symmetry_space_group_name_H-M    P1
_symmetry_Int_Tables_number       1
_space_group_crystal_system       triclinic
_cell_length_a                    21.965347
_cell_length_b                    21.999743
_cell_length_c                    30.555821
_cell_angle_alpha                 89.599514
_cell_angle_beta                  90.001436
_cell_angle_gamma                 89.870468
_cell_volume                      14765.1517085

loop_
_atom_site_label
_atom_site_type_symbol
_atom_type_description
_atom_site_fract_x
_atom_site_fract_y
_atom_site_fract_z
_atom_type_partial_charge
C1    C     C_R   0.499869 0.118837 0.499810 0.989702
C2    C     C_R   0.998024 0.497779 0.773400 -0.157178
C3    C     C_R   0.957293 0.535044 0.842782 0.398400
C4    C     C_R   0.533728 0.953026 0.157435 0.396483
C5    C     C_R   0.037820 0.541999 0.156669 0.379270
C6    C     C_R   0.462956 0.038170 0.157177 0.393253
C7    C     C_R   0.960181 0.463131 0.157266 0.394010
C8    C     C_R   0.029703 0.548241 0.342042 0.372543
C9    C     C_R   0.543556 0.965320 0.342722 0.370904
C10   C     C_R   0.969835 0.454159 0.342181 0.371850
C11   C     C_R   0.451705 0.028585 0.342110 0.371437
C12   C     C_R   0.029720 0.452014 0.657915 0.373657
C13   C     C_R   0.496571 0.993884 0.226917 -0.159156
C14   C     C_R   0.544817 0.032550 0.657504 0.368986
C15   C     C_R   0.967967 0.544981 0.657595 0.372716
C16   C     C_R   0.452799 0.969809 0.657933 0.372524
C17   C     C_R   0.499640 0.001399 0.865848 -0.331360
C18   C     C_R   0.999383 0.499003 0.865836 -0.333670
C19   C     C_R   0.500026 0.997482 0.134346 -0.331994
C20   C     C_R   0.999709 0.501689 0.133920 -0.327624
C21   C     C_R   0.000013 0.500821 0.365831 -0.315424
C22   C     C_R   0.498741 0.998558 0.365746 -0.317201
C23   C     C_R   0.999425 0.499036 0.634311 -0.317889
C24   C     C_R   0.999573 0.501976 0.226542 -0.155991
C25   C     C_R   0.499369 0.000408 0.634132 -0.316211
C26   C     C_R   0.458268 0.964022 0.796541 -0.081636
C27   C     C_R   0.959594 0.538344 0.795953 -0.081570
C28   C     C_R   0.537568 0.042527 0.795912 -0.077486
C29   C     C_R   0.036100 0.456834 0.796482 -0.083005
C30   C     C_R   0.457352 0.033521 0.203623 -0.081843
C31   C     C_R   0.963009 0.459808 0.203754 -0.082420
C32   C     C_R   0.535707 0.953747 0.204407 -0.075607
C33   C     C_R   0.035367 0.544847 0.203303 -0.077865
C34   C     C_R   0.964037 0.458401 0.296185 -0.080732
C35   C     C_R   0.999666 0.501773 0.272950 -0.158681
C36   C     C_R   0.454689 0.032577 0.295751 -0.078638
C37   C     C_R   0.035015 0.545159 0.295916 -0.079356
C38   C     C_R   0.537943 0.956877 0.296816 -0.077086
C39   C     C_R   0.961302 0.540290 0.703753 -0.079247
C40   C     C_R   0.456195 0.964957 0.703970 -0.077644
C41   C     C_R   0.034889 0.455317 0.704242 -0.078966
C42   C     C_R   0.539830 0.039919 0.703258 -0.076439
C43   C     C_3   0.319487 0.872777 0.784777 0.135912
C44   C     C_3   0.274549 0.915538 0.762181 -0.313905
C45   C     C_3   0.234346 0.879944 0.730874 -0.885505
C46   C     C_R   0.496253 0.994246 0.273359 -0.156475
C47   C     C_3   0.863464 0.674123 0.782374 0.134523
C48   C     C_3   0.906119 0.719984 0.760773 -0.313541
C49   C     C_3   0.870129 0.761110 0.729855 -0.889108
C50   C     C_3   0.669896 0.142983 0.782479 0.134813
C51   C     C_3   0.718202 0.101872 0.762336 -0.312736
C52   C     C_3   0.757723 0.138302 0.730725 -0.885867
C53   C     C_3   0.124579 0.316167 0.784213 0.135151
C54   C     C_3   0.080206 0.273114 0.761835 -0.311120
C55   C     C_3   0.114891 0.231332 0.731038 -0.886293
C56   C     C_3   0.316985 0.123105 0.214809 0.132383
C57   C     C_R   0.998084 0.497767 0.726847 -0.157100
C58   C     C_3   0.273362 0.079608 0.237915 -0.322098
C59   C     C_3   0.232099 0.115029 0.268685 -0.883537
C60   C     C_3   0.872787 0.320348 0.218303 0.132498
C61   C     C_3   0.916715 0.276476 0.240840 -0.316418
C62   C     C_3   0.881892 0.235581 0.272504 -0.890028
C63   C     C_3   0.663347 0.846774 0.217555 0.136379
C64   C     C_3   0.713982 0.886491 0.236026 -0.305075
C65   C     C_3   0.754128 0.849052 0.266698 -0.890628
C66   C     C_3   0.120101 0.687523 0.216699 0.127222
C67   C     C_3   0.075093 0.729452 0.239617 -0.318838
C68   C     C_R   0.497964 0.002725 0.726856 -0.157173
C69   C     C_3   0.108949 0.770576 0.271249 -0.884443
C70   C     C_3   0.826923 0.411554 0.301721 0.054007
C71   C     C_3   0.812685 0.420182 0.350545 -0.303824
C72   C     C_3   0.744167 0.422432 0.358977 -0.875242
C73   C     C_3   0.403054 0.170406 0.298471 0.066330
C74   C     C_3   0.415375 0.185682 0.346565 -0.299939
C75   C     C_3   0.417193 0.254331 0.353506 -0.920749
C76   C     C_3   0.170777 0.599442 0.300121 0.057665
C77   C     C_3   0.186307 0.588712 0.348587 -0.304741
C78   C     C_3   0.255021 0.588864 0.356174 -0.893811
C79   C     C_R   0.414103 0.928856 0.774311 0.339141
C80   C     C_3   0.588674 0.818071 0.307404 0.060663
C81   C     C_3   0.572505 0.809611 0.355877 -0.320538
C82   C     C_3   0.566892 0.742191 0.367700 -0.887842
C83   C     C_3   0.823220 0.588754 0.696513 0.055300
C84   C     C_3   0.811142 0.577754 0.647714 -0.309533
C85   C     C_3   0.742954 0.574535 0.637994 -0.887280
C86   C     C_3   0.404383 0.827375 0.700243 0.059849
C87   C     C_3   0.416532 0.812589 0.651992 -0.302966
C88   C     C_3   0.417116 0.744025 0.644385 -0.902851
C89   C     C_3   0.171923 0.403046 0.699647 0.061018
C90   C     C_R   0.923091 0.581432 0.773369 0.342825
C91   C     C_3   0.186563 0.414223 0.651134 -0.306407
C92   C     C_3   0.255166 0.414986 0.643035 -0.901396
C93   C     C_3   0.589395 0.178213 0.694289 0.059813
C94   C     C_3   0.576183 0.188633 0.645477 -0.318333
C95   C     C_3   0.571908 0.256395 0.634460 -0.885583
C96   C     C_3   0.606875 0.193967 0.405820 0.177118
C97   C     C_3   0.573700 0.214260 0.363953 -0.352753
C98   C     C_3   0.614280 0.249403 0.331349 -0.798178
C99   C     C_3   0.190924 0.403327 0.402588 0.155785
C100  C     C_3   0.213291 0.429764 0.358835 -0.330771
C101  C     C_R   0.579510 0.080095 0.772841 0.341081
C102  C     C_3   0.247886 0.384671 0.329864 -0.810390
C103  C     C_3   0.386516 0.812694 0.409808 0.178450
C104  C     C_3   0.411489 0.798817 0.364032 -0.346737
C105  C     C_3   0.366118 0.767189 0.333590 -0.814625
C106  C     C_3   0.813764 0.601228 0.405441 0.165545
C107  C     C_3   0.799358 0.582333 0.358108 -0.323354
C108  C     C_3   0.766784 0.630198 0.329834 -0.820157
C109  C     C_3   0.602065 0.807058 0.595296 0.160462
C110  C     C_3   0.575310 0.784947 0.639002 -0.336015
C111  C     C_3   0.619945 0.749157 0.668161 -0.807994
C112  C     C_R   0.118699 0.499963 0.499864 0.998124
C113  C     C_R   0.070444 0.412162 0.774377 0.341339
C114  C     C_3   0.189588 0.600787 0.595735 0.163928
C115  C     C_3   0.210615 0.573214 0.639479 -0.337033
C116  C     C_3   0.244860 0.617562 0.669170 -0.807150
C117  C     C_3   0.387905 0.187960 0.591196 0.178179
C118  C     C_3   0.415325 0.200547 0.636378 -0.351242
C119  C     C_3   0.371515 0.231840 0.668293 -0.818139
C120  C     C_3   0.813186 0.395164 0.593906 0.172728
C121  C     C_3   0.797866 0.416493 0.640486 -0.331826
C122  C     C_3   0.765166 0.369668 0.669455 -0.812589
C123  C     C_3   0.078033 0.694453 0.895052 0.153710
C124  C     C_R   0.412646 0.068316 0.225357 0.344194
C125  C     C_3   0.045952 0.716856 0.853434 -0.286553
C126  C     C_3   0.091449 0.735912 0.817853 -0.894421
C127  C     C_3   0.697127 0.931784 0.891264 0.151576
C128  C     C_3   0.724578 0.968447 0.853430 -0.300507
C129  C     C_3   0.744388 0.926852 0.815933 -0.886455
C130  C     C_3   0.917211 0.313522 0.899935 0.151649
C131  C     C_3   0.936678 0.298866 0.853000 -0.266676
C132  C     C_3   0.884238 0.279690 0.823337 -0.901365
C133  C     C_3   0.308217 0.078538 0.896402 0.149827
C134  C     C_3   0.288056 0.051507 0.852739 -0.275430
C135  C     C_R   0.928526 0.415283 0.226553 0.340933
C136  C     C_3   0.269328 0.099991 0.819252 -0.901363
C137  C     C_3   0.081750 0.304669 0.103154 0.152903
C138  C     C_3   0.052724 0.281670 0.145600 -0.284588
C139  C     C_3   0.100453 0.261975 0.179403 -0.899256
C140  C     C_3   0.697324 0.066184 0.108157 0.142523
C141  C     C_3   0.726792 0.031382 0.146142 -0.293944
C142  C     C_3   0.746381 0.074337 0.182800 -0.889130
C143  C     C_3   0.926027 0.692876 0.105504 0.155868
C144  C     C_3   0.954672 0.716096 0.147952 -0.277812
C145  C     C_3   0.907294 0.734030 0.182273 -0.900244
C146  C     C_R   0.576026 0.914362 0.227503 0.344881
C147  C     C_3   0.304663 0.919714 0.105819 0.155206
C148  C     C_3   0.280152 0.954936 0.145040 -0.302882
C149  C     C_3   0.259974 0.911389 0.181744 -0.891270
C150  C     C_3   0.531801 0.135747 0.878835 0.164495
C151  C     C_3   0.538501 0.191723 0.850037 -0.368227
C152  C     C_3   0.498263 0.241961 0.868630 -0.951136
C153  C     C_3   0.131928 0.456165 0.878813 0.162604
C154  C     C_3   0.186242 0.443250 0.849549 -0.366034
C155  C     C_3   0.241322 0.477514 0.867120 -0.951346
C156  C     C_3   0.463254 0.867434 0.877962 0.162372
C157  C     C_R   0.068587 0.590147 0.225812 0.340548
C158  C     C_3   0.453685 0.813939 0.847736 -0.372766
C159  C     C_3   0.492532 0.760963 0.864185 -0.948164
C160  C     C_3   0.865059 0.533061 0.878271 0.163319
C161  C     C_3   0.810622 0.539602 0.847987 -0.369728
C162  C     C_3   0.759226 0.500045 0.865928 -0.952115
C163  C     C_3   0.530705 0.862904 0.119421 0.168403
C164  C     C_3   0.537064 0.804636 0.145890 -0.368607
C165  C     C_3   0.498296 0.755910 0.124066 -0.952040
C166  C     C_3   0.128167 0.555286 0.118566 0.164406
C167  C     C_3   0.184326 0.574804 0.144363 -0.356166
C168  C     C_R   0.924398 0.418834 0.273091 0.337409
C169  C     C_3   0.241174 0.545147 0.124459 -0.943411
C170  C     C_3   0.463963 0.131688 0.123202 0.157845
C171  C     C_3   0.454396 0.184153 0.154500 -0.372721
C172  C     C_3   0.491709 0.238188 0.138189 -0.947063
C173  C     C_3   0.867389 0.459311 0.122023 0.164164
C174  C     C_3   0.813749 0.449785 0.152759 -0.368158
C175  C     C_3   0.759923 0.487756 0.136356 -0.950674
C176  C     C_3   0.020063 0.638894 0.380618 0.134924
C177  C     C_3   0.030080 0.700895 0.360234 -0.358812
C178  C     C_3   0.994028 0.747749 0.386284 -0.954000
C179  C     C_R   0.415228 0.072340 0.272131 0.334400
C180  C     C_3   0.636527 0.973744 0.378113 0.134347
C181  C     C_3   0.695938 0.957835 0.355714 -0.343950
C182  C     C_3   0.746858 0.995217 0.376141 -0.954628
C183  C     C_3   0.978479 0.362423 0.380517 0.134556
C184  C     C_3   0.967058 0.301090 0.360048 -0.360934
C185  C     C_3   0.000692 0.252609 0.386712 -0.951684
C186  C     C_3   0.360914 0.019764 0.380563 0.136186
C187  C     C_3   0.299682 0.028316 0.358665 -0.356409
C188  C     C_3   0.252208 0.992352 0.384545 -0.953604
C189  C     C_3   0.020189 0.361286 0.619982 0.133502
C190  C     C_R   0.073272 0.586240 0.272471 0.338496
C191  C     C_3   0.029465 0.299972 0.641713 -0.356656
C192  C     C_3   0.993979 0.252481 0.615989 -0.953067
C193  C     C_3   0.637370 0.024365 0.621021 0.134278
C194  C     C_3   0.697651 0.039496 0.642351 -0.348247
C195  C     C_3   0.747984 0.003862 0.619519 -0.953861
C196  C     C_3   0.976412 0.636987 0.620156 0.133888
C197  C     C_3   0.964555 0.697389 0.641996 -0.355125
C198  C     C_3   0.998476 0.746899 0.616694 -0.952928
C199  C     C_3   0.361621 0.978486 0.619625 0.135847
C200  C     C_3   0.300450 0.968509 0.641199 -0.356138
C201  C     C_R   0.574524 0.913396 0.274622 0.334108
C202  C     C_3   0.252858 0.006441 0.616834 -0.952475
C203  C     C_R   0.920055 0.578672 0.726463 0.335826
C204  C     C_R   0.499949 0.881227 0.499972 0.994682
C205  C     C_R   0.416948 0.924938 0.727711 0.333090
C206  C     C_R   0.074394 0.415284 0.727518 0.335223
C207  C     C_R   0.577311 0.082171 0.726016 0.334879
C208  C     C_R   0.538698 0.216790 0.470054 0.301038
C209  C     C_R   0.216506 0.464702 0.468160 0.287811
C210  C     C_R   0.459873 0.784218 0.470106 0.286046
C211  C     C_R   0.783608 0.536109 0.468523 0.277148
C212  C     C_R   0.536889 0.783092 0.530526 0.293011
C213  C     C_R   0.216137 0.536314 0.531361 0.289383
C214  C     C_R   0.459687 0.215946 0.529692 0.292360
C215  C     C_R   0.881250 0.500072 0.500110 0.994716
C216  C     C_R   0.783839 0.463281 0.531747 0.284977
C217  C     C_R   0.029725 0.717729 0.965611 0.296160
C218  C     C_R   0.717681 0.972197 0.964469 0.297818
C219  C     C_R   0.968106 0.282366 0.966276 0.279245
C220  C     C_R   0.282166 0.031398 0.966275 0.287861
C221  C     C_R   0.031173 0.281894 0.033732 0.301896
C222  C     C_R   0.717724 0.027660 0.034944 0.296783
C223  C     C_R   0.970118 0.717631 0.034736 0.286897
C224  C     C_R   0.282621 0.969674 0.034894 0.307851
C225  C     C_R   0.499347 0.186372 0.499762 -0.271446
C226  C     C_R   0.999908 0.619031 0.000409 0.989524
C227  C     C_R   0.186221 0.500022 0.500008 -0.253859
C228  C     C_R   0.499415 0.813713 0.499787 -0.259461
C229  C     C_R   0.813778 0.500108 0.500509 -0.251898
C230  C     C_R   0.999448 0.686926 0.000108 -0.221818
C231  C     C_R   0.686857 0.999999 0.999644 -0.222124
C232  C     C_R   0.999530 0.313116 0.999821 -0.224222
C233  C     C_R   0.313135 0.000937 0.000608 -0.227422
C234  C     C_R   0.499904 0.999870 0.585776 0.894131
C235  C     C_R   0.999974 0.499751 0.585713 0.898133
C236  C     C_R   0.499800 0.999985 0.414289 0.889257
C237  C     C_R   0.618991 0.000006 0.999916 0.989870
C238  C     C_R   0.000082 0.500222 0.414218 0.898531
C239  C     C_R   0.999969 0.500711 0.085488 0.918672
C240  C     C_R   0.500758 0.999486 0.085498 0.916030
C241  C     C_R   0.999912 0.499736 0.914555 0.917270
C242  C     C_R   0.500221 0.000314 0.914446 0.914381
C243  C     C_R   0.543915 0.281825 0.474038 0.268901
C244  C     C_R   0.281554 0.458078 0.472003 0.278820
C245  C     C_R   0.454771 0.718874 0.472842 0.271437
C246  C     C_R   0.718337 0.541728 0.471437 0.293357
C247  C     C_R   0.543109 0.718188 0.526572 0.277407
C248  C     C_R   0.999979 0.380936 0.999614 0.981285
C249  C     C_R   0.281246 0.542856 0.527752 0.271101
C250  C     C_R   0.454982 0.281332 0.527241 0.281754
C251  C     C_R   0.718483 0.457318 0.528654 0.279364
C252  C     C_R   0.038657 0.782443 0.969567 0.280750
C253  C     C_R   0.782391 0.962460 0.968664 0.274318
C254  C     C_R   0.960050 0.217857 0.970421 0.304764
C255  C     C_R   0.217443 0.039292 0.970301 0.289145
C256  C     C_R   0.039529 0.217157 0.029456 0.280272
C257  C     C_R   0.782156 0.037232 0.030442 0.271849
C258  C     C_R   0.961695 0.782411 0.030483 0.287175
C259  C     C_R   0.381034 0.000179 0.999950 0.994449
C260  C     C_R   0.217822 0.960617 0.030385 0.273458
C261  C     C_R   0.499412 0.313449 0.500560 -0.360265
C262  C     C_R   0.313316 0.500342 0.500030 -0.351314
C263  C     C_R   0.499294 0.686630 0.499471 -0.357141
C264  C     C_R   0.686481 0.499731 0.500102 -0.353919
C265  C     C_R   0.000231 0.814154 0.000073 -0.323574
C266  C     C_R   0.814016 0.999725 0.999717 -0.324244
C267  C     C_R   0.999752 0.185734 0.999980 -0.328096
C268  C     C_R   0.185929 0.999912 0.000268 -0.327565
C269  C     C_R   0.380771 0.500170 0.499996 1.059279
C270  C     C_R   0.498018 0.003047 0.772990 -0.158040
C271  C     C_R   0.499633 0.619211 0.499805 1.059620
C272  C     C_R   0.619161 0.499963 0.500033 1.059681
C273  C     C_R   0.499603 0.380817 0.500202 1.061376
C274  C     C_R   0.881103 0.999816 0.999913 1.036529
C275  C     C_R   0.999709 0.118842 0.999905 1.034400
C276  C     C_R   0.118933 0.999795 0.000070 1.038113
C277  C     C_R   0.000055 0.881134 0.000079 1.034081
C278  C     C_R   0.534534 0.044398 0.842452 0.395855
C279  C     C_R   0.039607 0.460986 0.843122 0.387381
C280  C     C_R   0.462919 0.960344 0.842835 0.389925
Cu1   Cu    Cu3+1 0.438190 0.000000 0.500000 0.939728
Cu2   Cu    Cu3+1 0.500000 0.500000 0.544440 1.207831
Cu3   Cu    Cu3+1 0.000000 0.000000 0.955560 1.227198
Cu4   Cu    Cu3+1 0.000000 0.000000 0.044440 1.220790
Cu5   Cu    Cu3+1 0.000000 0.561810 0.500000 0.931671
Cu6   Cu    Cu3+1 0.561810 0.000000 0.500000 0.942716
Cu7   Cu    Cu3+1 0.000000 0.438190 0.500000 0.932841
Cu8   Cu    Cu3+1 0.938190 0.500000 0.000000 0.943204
Cu9   Cu    Cu3+1 0.500000 0.061810 0.000000 0.947769
Cu10  Cu    Cu3+1 0.061810 0.500000 0.000000 0.947654
Cu11  Cu    Cu3+1 0.500000 0.938190 0.000000 0.956495
Cu12  Cu    Cu3+1 0.500000 0.500000 0.455560 1.206223
H1    H     H_    0.295232 0.852798 0.813286 0.145500
H2    H     H_    0.928546 0.747521 0.786408 0.203413
H3    H     H_    0.179429 0.445302 0.718857 0.096910
H4    H     H_    0.167193 0.377570 0.630748 0.264464
H5    H     H_    0.165797 0.457624 0.640333 0.229276
H6    H     H_    0.278108 0.446334 0.666132 0.260172
H7    H     H_    0.264611 0.429728 0.608911 0.276462
H8    H     H_    0.273969 0.368528 0.647883 0.266988
H9    H     H_    0.624135 0.212751 0.702534 0.149842
H10   H     H_    0.548213 0.187900 0.714424 0.101007
H11   H     H_    0.613389 0.169618 0.625240 0.265860
H12   H     H_    0.533598 0.165054 0.636596 0.227199
H13   H     H_    0.942796 0.696778 0.742609 0.220864
H14   H     H_    0.540770 0.279960 0.657520 0.262943
H15   H     H_    0.554967 0.262708 0.600524 0.271370
H16   H     H_    0.617769 0.277279 0.636915 0.273482
H17   H     H_    0.632882 0.152495 0.396753 0.109239
H18   H     H_    0.643888 0.223238 0.415427 0.224889
H19   H     H_    0.556632 0.173150 0.346952 0.176318
H20   H     H_    0.534725 0.243154 0.373438 0.259160
H21   H     H_    0.653789 0.271440 0.347582 0.270002
H22   H     H_    0.586854 0.285770 0.314784 0.258446
H23   H     H_    0.632449 0.218419 0.305751 0.218198
H24   H     H_    0.849157 0.733794 0.703414 0.271669
H25   H     H_    0.147187 0.380052 0.395668 0.109211
H26   H     H_    0.217559 0.366433 0.415691 0.219639
H27   H     H_    0.173448 0.447047 0.340029 0.173987
H28   H     H_    0.243523 0.468488 0.365973 0.265999
H29   H     H_    0.270512 0.348184 0.349270 0.276250
H30   H     H_    0.283671 0.409674 0.311170 0.257322
H31   H     H_    0.216573 0.363319 0.306021 0.221472
H32   H     H_    0.359118 0.854955 0.406303 0.107810
H33   H     H_    0.352518 0.781656 0.421779 0.224406
H34   H     H_    0.426988 0.841785 0.348264 0.175783
H35   H     H_    0.900904 0.795321 0.714957 0.257128
H36   H     H_    0.451093 0.768747 0.368088 0.265999
H37   H     H_    0.330917 0.741275 0.352038 0.274012
H38   H     H_    0.391331 0.734427 0.312457 0.255340
H39   H     H_    0.343057 0.801006 0.312096 0.225166
H40   H     H_    0.857926 0.625862 0.405053 0.103547
H41   H     H_    0.783619 0.635270 0.418716 0.219122
H42   H     H_    0.842232 0.568170 0.341559 0.170686
H43   H     H_    0.769506 0.542067 0.359736 0.266805
H44   H     H_    0.739459 0.662454 0.349625 0.279848
H45   H     H_    0.735222 0.606490 0.306940 0.250539
H46   H     H_    0.833333 0.784517 0.748181 0.247471
H47   H     H_    0.800246 0.655928 0.309935 0.226724
H48   H     H_    0.626446 0.850007 0.602418 0.111225
H49   H     H_    0.638526 0.779751 0.582480 0.219048
H50   H     H_    0.559039 0.824962 0.657688 0.174250
H51   H     H_    0.535931 0.755653 0.631695 0.263831
H52   H     H_    0.658431 0.729705 0.649303 0.269293
H53   H     H_    0.595257 0.711017 0.684334 0.261209
H54   H     H_    0.638633 0.778598 0.694168 0.220684
H55   H     H_    0.146056 0.624870 0.602561 0.108774
H56   H     H_    0.216860 0.637447 0.583245 0.225380
H57   H     H_    0.691877 0.165811 0.810594 0.143776
H58   H     H_    0.170148 0.556292 0.657671 0.174336
H59   H     H_    0.240661 0.534232 0.632327 0.265331
H60   H     H_    0.268235 0.654003 0.650308 0.279664
H61   H     H_    0.279905 0.591958 0.688124 0.257255
H62   H     H_    0.213196 0.639156 0.692599 0.221101
H63   H     H_    0.360054 0.146193 0.595088 0.110213
H64   H     H_    0.353691 0.219901 0.580508 0.221005
H65   H     H_    0.431023 0.156993 0.651333 0.177409
H66   H     H_    0.455019 0.230275 0.631723 0.265128
H67   H     H_    0.337217 0.260611 0.651131 0.274801
H68   H     H_    0.654327 0.181612 0.762796 0.130095
H69   H     H_    0.398158 0.261746 0.690569 0.254026
H70   H     H_    0.347128 0.197574 0.688533 0.226074
H71   H     H_    0.856718 0.369413 0.596082 0.104583
H72   H     H_    0.783184 0.360980 0.580932 0.224682
H73   H     H_    0.840423 0.431228 0.657096 0.171965
H74   H     H_    0.767924 0.456568 0.637561 0.266834
H75   H     H_    0.739202 0.335970 0.650064 0.280108
H76   H     H_    0.732367 0.393939 0.691060 0.253056
H77   H     H_    0.798262 0.345213 0.690539 0.224790
H78   H     H_    0.101021 0.650926 0.887012 0.116961
H79   H     H_    0.746844 0.082156 0.788778 0.202373
H80   H     H_    0.116127 0.721881 0.905001 0.223077
H81   H     H_    0.017263 0.679329 0.840719 0.225468
H82   H     H_    0.015040 0.755465 0.860923 0.257232
H83   H     H_    0.109620 0.782004 0.824316 0.301119
H84   H     H_    0.068197 0.736958 0.785623 0.242066
H85   H     H_    0.130307 0.703563 0.816230 0.236808
H86   H     H_    0.653875 0.912224 0.879078 0.120657
H87   H     H_    0.722597 0.891466 0.899748 0.227322
H88   H     H_    0.689598 0.000772 0.840961 0.232106
H89   H     H_    0.763972 0.995665 0.864801 0.258341
H90   H     H_    0.697123 0.063222 0.745098 0.221923
H91   H     H_    0.787979 0.903665 0.823833 0.302764
H92   H     H_    0.751029 0.954123 0.785665 0.242982
H93   H     H_    0.709500 0.891533 0.809481 0.234700
H94   H     H_    0.896195 0.359456 0.900479 0.103497
H95   H     H_    0.880510 0.284257 0.910926 0.228564
H96   H     H_    0.959227 0.339566 0.838731 0.211757
H97   H     H_    0.971076 0.261604 0.853472 0.264821
H98   H     H_    0.871252 0.231734 0.829848 0.303945
H99   H     H_    0.899391 0.282973 0.788699 0.239674
H100  H     H_    0.843825 0.309255 0.827981 0.243530
H101  H     H_    0.730059 0.154659 0.702594 0.273839
H102  H     H_    0.353340 0.100060 0.891544 0.109672
H103  H     H_    0.280359 0.116253 0.906596 0.227812
H104  H     H_    0.326433 0.024526 0.839229 0.225905
H105  H     H_    0.249436 0.019691 0.857938 0.260853
H106  H     H_    0.222537 0.116718 0.825952 0.302274
H107  H     H_    0.269675 0.079847 0.786074 0.241049
H108  H     H_    0.301107 0.139150 0.819744 0.241093
H109  H     H_    0.104358 0.348430 0.110421 0.119094
H110  H     H_    0.119524 0.277407 0.092162 0.224872
H111  H     H_    0.024801 0.318972 0.159590 0.226738
H112  H     H_    0.333241 0.832398 0.766669 0.131584
H113  H     H_    0.795042 0.109164 0.718315 0.256184
H114  H     H_    0.021550 0.243130 0.138911 0.258163
H115  H     H_    0.118417 0.216001 0.171944 0.301025
H116  H     H_    0.079289 0.260265 0.212337 0.242189
H117  H     H_    0.139205 0.294306 0.180138 0.237861
H118  H     H_    0.653389 0.084508 0.120242 0.120530
H119  H     H_    0.721322 0.106968 0.098857 0.224391
H120  H     H_    0.693145 0.998492 0.159513 0.223951
H121  H     H_    0.766697 0.004892 0.134583 0.260907
H122  H     H_    0.788624 0.098916 0.173661 0.301382
H123  H     H_    0.755410 0.047782 0.213050 0.245998
H124  H     H_    0.777268 0.178264 0.747694 0.247043
H125  H     H_    0.710255 0.108367 0.189665 0.235177
H126  H     H_    0.905435 0.647785 0.112539 0.112072
H127  H     H_    0.886982 0.719277 0.094901 0.225512
H128  H     H_    0.983951 0.679439 0.161710 0.241687
H129  H     H_    0.984791 0.755539 0.140960 0.258401
H130  H     H_    0.887970 0.779613 0.174860 0.305546
H131  H     H_    0.929475 0.736003 0.214873 0.239049
H132  H     H_    0.869615 0.700513 0.183649 0.240614
H133  H     H_    0.347531 0.897526 0.116742 0.118961
H134  H     H_    0.277690 0.880983 0.096853 0.227746
H135  H     H_    0.143991 0.290868 0.812437 0.149231
H136  H     H_    0.316895 0.984660 0.157768 0.236362
H137  H     H_    0.241535 0.984745 0.135226 0.255312
H138  H     H_    0.215138 0.890771 0.174058 0.301416
H139  H     H_    0.255563 0.936520 0.212968 0.241027
H140  H     H_    0.293629 0.874001 0.186459 0.235361
H141  H     H_    0.705347 0.324031 0.453192 0.382487
H142  H     H_    0.322527 0.299752 0.436992 0.372476
H143  H     H_    0.294959 0.671152 0.453043 0.382682
H144  H     H_    0.674652 0.700623 0.441237 0.373904
H145  H     H_    0.703528 0.678021 0.557501 0.370734
H146  H     H_    0.165157 0.328620 0.765480 0.134206
H147  H     H_    0.326600 0.702415 0.551216 0.388164
H148  H     H_    0.295786 0.327279 0.554218 0.371708
H149  H     H_    0.670586 0.298472 0.551125 0.388518
H150  H     H_    0.197470 0.815217 0.932769 0.378812
H151  H     H_    0.815519 0.804404 0.931415 0.381231
H152  H     H_    0.801134 0.177754 0.945452 0.388091
H153  H     H_    0.179694 0.198662 0.940376 0.388639
H154  H     H_    0.200117 0.182348 0.061381 0.379340
H155  H     H_    0.812725 0.194281 0.072194 0.378024
H156  H     H_    0.801386 0.817575 0.056954 0.387228
H157  H     H_    0.055972 0.245834 0.787036 0.206015
H158  H     H_    0.182626 0.800744 0.063874 0.381324
H159  H     H_    0.546783 0.148153 0.912403 0.178546
H160  H     H_    0.482263 0.124424 0.880195 0.119205
H161  H     H_    0.586716 0.206939 0.849525 0.238238
H162  H     H_    0.523345 0.181394 0.816145 0.216086
H163  H     H_    0.450237 0.226194 0.870635 0.253300
H164  H     H_    0.500212 0.282986 0.847495 0.267612
H165  H     H_    0.513894 0.253610 0.902184 0.258353
H166  H     H_    0.143858 0.440959 0.912604 0.179730
H167  H     H_    0.125154 0.506472 0.879308 0.120190
H168  H     H_    0.045077 0.298669 0.743509 0.218736
H169  H     H_    0.196285 0.393737 0.849134 0.240456
H170  H     H_    0.176462 0.459384 0.815663 0.211517
H171  H     H_    0.230304 0.526625 0.870485 0.253536
H172  H     H_    0.280444 0.472721 0.844587 0.266580
H173  H     H_    0.253906 0.459075 0.899917 0.260470
H174  H     H_    0.448521 0.853418 0.911365 0.178653
H175  H     H_    0.513188 0.876869 0.879102 0.122063
H176  H     H_    0.404898 0.800597 0.847504 0.237672
H177  H     H_    0.468210 0.826241 0.813955 0.211038
H178  H     H_    0.541186 0.774795 0.865745 0.254252
H179  H     H_    0.137963 0.258483 0.705164 0.271838
H180  H     H_    0.488333 0.721682 0.841965 0.266331
H181  H     H_    0.477564 0.747422 0.897634 0.259246
H182  H     H_    0.850947 0.548383 0.911389 0.176995
H183  H     H_    0.876211 0.483566 0.880414 0.118630
H184  H     H_    0.795521 0.587789 0.846379 0.238881
H185  H     H_    0.822866 0.523733 0.814671 0.213337
H186  H     H_    0.775248 0.452346 0.870105 0.252464
H187  H     H_    0.720010 0.500541 0.843193 0.267386
H188  H     H_    0.744640 0.517382 0.898418 0.259118
H189  H     H_    0.545725 0.852632 0.085482 0.181366
H190  H     H_    0.082838 0.199281 0.715407 0.257142
H191  H     H_    0.481187 0.874651 0.118678 0.121124
H192  H     H_    0.585371 0.789660 0.146701 0.239798
H193  H     H_    0.520266 0.811947 0.179798 0.218866
H194  H     H_    0.450417 0.771955 0.120848 0.254341
H195  H     H_    0.498961 0.713476 0.143744 0.267898
H196  H     H_    0.516313 0.746578 0.090716 0.258317
H197  H     H_    0.135046 0.570304 0.083810 0.182452
H198  H     H_    0.126572 0.504374 0.119730 0.119587
H199  H     H_    0.189454 0.625312 0.143037 0.236338
H200  H     H_    0.179867 0.559230 0.179218 0.214322
H201  H     H_    0.149969 0.205450 0.749622 0.249631
H202  H     H_    0.235230 0.494787 0.123232 0.251818
H203  H     H_    0.282248 0.555215 0.144372 0.263981
H204  H     H_    0.248148 0.562811 0.090389 0.259453
H205  H     H_    0.449369 0.146922 0.090006 0.178693
H206  H     H_    0.513862 0.121883 0.121933 0.120285
H207  H     H_    0.405428 0.196835 0.155747 0.239281
H208  H     H_    0.470285 0.170960 0.187815 0.207517
H209  H     H_    0.540230 0.224635 0.134322 0.254382
H210  H     H_    0.488976 0.276099 0.161771 0.265761
H211  H     H_    0.474059 0.253575 0.105779 0.258964
H212  H     H_    0.291990 0.142092 0.186263 0.145960
H213  H     H_    0.853894 0.442916 0.088958 0.174993
H214  H     H_    0.875331 0.509360 0.119653 0.122666
H215  H     H_    0.800688 0.400941 0.153827 0.236112
H216  H     H_    0.825860 0.465162 0.186320 0.213107
H217  H     H_    0.773454 0.536345 0.133279 0.253262
H218  H     H_    0.721224 0.484515 0.159493 0.265740
H219  H     H_    0.745366 0.471307 0.103595 0.259750
H220  H     H_    0.032317 0.645338 0.415598 0.194933
H221  H     H_    0.970907 0.626617 0.377981 0.118782
H222  H     H_    0.079297 0.712462 0.361221 0.244113
H223  H     H_    0.246010 0.938210 0.787216 0.203684
H224  H     H_    0.329665 0.163969 0.232782 0.134535
H225  H     H_    0.013411 0.700551 0.326228 0.229292
H226  H     H_    0.945442 0.733905 0.388557 0.253763
H227  H     H_    0.996913 0.792916 0.370251 0.270218
H228  H     H_    0.012634 0.750965 0.420118 0.254083
H229  H     H_    0.645091 0.965085 0.413485 0.189893
H230  H     H_    0.626216 0.023103 0.373252 0.119057
H231  H     H_    0.705847 0.908565 0.360260 0.243169
H232  H     H_    0.692496 0.968813 0.320467 0.228722
H233  H     H_    0.736224 0.044501 0.372977 0.254927
H234  H     H_    0.790589 0.985504 0.359539 0.270265
H235  H     H_    0.245520 0.055654 0.213149 0.203608
H236  H     H_    0.751311 0.983760 0.411556 0.254858
H237  H     H_    0.966557 0.355454 0.415563 0.196764
H238  H     H_    0.027810 0.373910 0.377617 0.118305
H239  H     H_    0.917482 0.291112 0.360255 0.247708
H240  H     H_    0.984807 0.301471 0.326307 0.223990
H241  H     H_    0.049269 0.265593 0.390817 0.253979
H242  H     H_    0.998261 0.208182 0.370060 0.269930
H243  H     H_    0.979800 0.248306 0.419821 0.254787
H244  H     H_    0.353269 0.032666 0.415273 0.191774
H245  H     H_    0.373892 0.970666 0.379134 0.123623
H246  H     H_    0.298488 0.044238 0.256407 0.220872
H247  H     H_    0.287115 0.077289 0.358330 0.247011
H248  H     H_    0.302077 0.010717 0.324982 0.224490
H249  H     H_    0.267613 0.944508 0.389065 0.251744
H250  H     H_    0.208145 0.992643 0.366968 0.270031
H251  H     H_    0.245932 0.012862 0.417455 0.255551
H252  H     H_    0.032618 0.353895 0.585139 0.193384
H253  H     H_    0.971039 0.374114 0.622100 0.120192
H254  H     H_    0.078642 0.287975 0.641748 0.247201
H255  H     H_    0.011824 0.301715 0.675478 0.224582
H256  H     H_    0.945772 0.267152 0.612075 0.253031
H257  H     H_    0.259685 0.138117 0.294084 0.273108
H258  H     H_    0.995291 0.208151 0.633308 0.270530
H259  H     H_    0.014252 0.247213 0.582826 0.254841
H260  H     H_    0.644881 0.033836 0.585650 0.193004
H261  H     H_    0.627223 0.975002 0.625586 0.117430
H262  H     H_    0.706760 0.089031 0.639024 0.244363
H263  H     H_    0.696067 0.026368 0.677248 0.228123
H264  H     H_    0.737338 0.954471 0.620292 0.254544
H265  H     H_    0.792130 0.011649 0.636002 0.270380
H266  H     H_    0.751644 0.018684 0.584673 0.254889
H267  H     H_    0.964954 0.644947 0.585113 0.193874
H268  H     H_    0.199795 0.083515 0.284943 0.256149
H269  H     H_    0.025806 0.625426 0.623040 0.119470
H270  H     H_    0.914950 0.707552 0.641750 0.249097
H271  H     H_    0.981780 0.695401 0.675902 0.221711
H272  H     H_    0.047197 0.734069 0.612891 0.253883
H273  H     H_    0.995450 0.790619 0.634263 0.270257
H274  H     H_    0.978238 0.752477 0.583486 0.255062
H275  H     H_    0.354136 0.966255 0.584771 0.191314
H276  H     H_    0.373798 0.027671 0.621664 0.123788
H277  H     H_    0.288047 0.919598 0.639617 0.243026
H278  H     H_    0.302838 0.983456 0.675521 0.229049
H279  H     H_    0.206387 0.150068 0.249893 0.248240
H280  H     H_    0.266996 0.054953 0.615776 0.252327
H281  H     H_    0.208214 0.002850 0.633428 0.270425
H282  H     H_    0.248243 0.990139 0.582562 0.254511
H283  H     H_    0.852355 0.295354 0.190579 0.143126
H284  H     H_    0.832793 0.333821 0.237342 0.140065
H285  H     H_    0.940140 0.248539 0.215851 0.203519
H286  H     H_    0.952483 0.301518 0.258537 0.218328
H287  H     H_    0.298704 0.951975 0.744190 0.219446
H288  H     H_    0.859357 0.263399 0.298024 0.273381
H289  H     H_    0.913752 0.203222 0.288489 0.256940
H290  H     H_    0.846347 0.210059 0.254532 0.248355
H291  H     H_    0.683406 0.822436 0.189345 0.141248
H292  H     H_    0.647268 0.809060 0.237844 0.124692
H293  H     H_    0.741615 0.904822 0.208562 0.201498
H294  H     H_    0.695238 0.926126 0.253595 0.223228
H295  H     H_    0.727998 0.835412 0.296277 0.271517
H296  H     H_    0.793873 0.876489 0.276925 0.256505
H297  H     H_    0.770286 0.807404 0.249827 0.245849
H298  H     H_    0.262382 0.859822 0.704429 0.274694
H299  H     H_    0.138771 0.713639 0.188612 0.143973
H300  H     H_    0.161099 0.675342 0.235102 0.139004
H301  H     H_    0.050774 0.757455 0.214843 0.203988
H302  H     H_    0.040113 0.702898 0.257268 0.218290
H303  H     H_    0.132133 0.742878 0.296803 0.273738
H304  H     H_    0.076332 0.801918 0.287179 0.256108
H305  H     H_    0.143898 0.797236 0.253256 0.248674
H306  H     H_    0.791176 0.381147 0.288705 0.145082
H307  H     H_    0.822267 0.455831 0.283913 0.095646
H308  H     H_    0.831339 0.381821 0.370102 0.264396
H309  H     H_    0.199972 0.910724 0.716039 0.256564
H310  H     H_    0.834675 0.462397 0.362098 0.237922
H311  H     H_    0.721480 0.454969 0.336203 0.256489
H312  H     H_    0.735333 0.436432 0.393224 0.283638
H313  H     H_    0.724407 0.376556 0.353953 0.263774
H314  H     H_    0.368652 0.204024 0.287193 0.145198
H315  H     H_    0.444879 0.177840 0.278379 0.096697
H316  H     H_    0.378791 0.167134 0.367750 0.264097
H317  H     H_    0.458757 0.164586 0.356994 0.219848
H318  H     H_    0.450255 0.275911 0.330672 0.262634
H319  H     H_    0.430377 0.264315 0.387757 0.272530
H320  H     H_    0.211045 0.842618 0.748846 0.247418
H321  H     H_    0.371318 0.273998 0.347433 0.263834
H322  H     H_    0.203962 0.633496 0.288115 0.145805
H323  H     H_    0.178653 0.557104 0.281043 0.096581
H324  H     H_    0.166521 0.625194 0.369003 0.263490
H325  H     H_    0.166537 0.545046 0.359644 0.233392
H326  H     H_    0.278223 0.557805 0.332939 0.257055
H327  H     H_    0.265239 0.574267 0.390234 0.278854
H328  H     H_    0.272933 0.635558 0.351163 0.267676
H329  H     H_    0.625366 0.784243 0.301566 0.151826
H330  H     H_    0.549414 0.806095 0.285961 0.102309
H331  H     H_    0.841906 0.697689 0.810352 0.144195
H332  H     H_    0.608844 0.828573 0.376918 0.265215
H333  H     H_    0.529687 0.834163 0.363051 0.228902
H334  H     H_    0.536563 0.718535 0.344180 0.262960
H335  H     H_    0.548307 0.737040 0.401265 0.272269
H336  H     H_    0.612537 0.720409 0.366609 0.270348
H337  H     H_    0.787863 0.621582 0.706930 0.147698
H338  H     H_    0.815992 0.546153 0.715774 0.098575
H339  H     H_    0.829871 0.615521 0.627693 0.264353
H340  H     H_    0.834161 0.535288 0.637614 0.235139
H341  H     H_    0.719803 0.543143 0.661262 0.259990
H342  H     H_    0.824090 0.659936 0.763118 0.134416
H343  H     H_    0.735569 0.558575 0.604046 0.280366
H344  H     H_    0.722441 0.620471 0.641314 0.264193
H345  H     H_    0.369845 0.793934 0.711088 0.147770
H346  H     H_    0.446070 0.819217 0.720308 0.096436
H347  H     H_    0.380261 0.832123 0.630936 0.265842
H348  H     H_    0.460272 0.832985 0.641778 0.227528
H349  H     H_    0.448242 0.720940 0.667942 0.257906
H350  H     H_    0.432056 0.734237 0.610467 0.276925
H351  H     H_    0.370497 0.725580 0.648913 0.267206
H352  H     H_    0.205803 0.369227 0.711231 0.146803
O1    O     O_R   0.447800 0.090100 0.499990 -0.573999
O2    O     O_R   0.590100 0.052200 0.999990 -0.589727
O3    O     O_2   0.391271 0.389123 0.544209 -0.276396
O4    O     O_3   0.324788 0.297903 0.540691 -0.531849
O5    O     O_2   0.679487 0.408065 0.605589 -0.320952
O6    O     O_2   0.611020 0.392365 0.547032 -0.274164
O7    O     O_3   0.704368 0.327170 0.545063 -0.557051
O8    O     O_2   0.083411 0.831346 0.893980 -0.326134
O9    O     O_2   0.111931 0.885299 0.958016 -0.268067
O10   O     O_3   0.167274 0.787086 0.946396 -0.552286
O11   O     O_2   0.837813 0.921884 0.894680 -0.316134
O12   O     O_2   0.882804 0.886166 0.961109 -0.280368
O13   O     O_R   0.052200 0.409900 0.999990 -0.582332
O14   O     O_3   0.785054 0.835389 0.940254 -0.564907
O15   O     O_2   0.916721 0.176038 0.892937 -0.306176
O16   O     O_2   0.890516 0.113518 0.954169 -0.282555
O17   O     O_3   0.831401 0.211000 0.947344 -0.562231
O18   O     O_2   0.169894 0.082533 0.893793 -0.311818
O19   O     O_2   0.113877 0.111419 0.957148 -0.276271
O20   O     O_3   0.211833 0.167622 0.945319 -0.560947
O21   O     O_2   0.087199 0.166487 0.103533 -0.322978
O22   O     O_2   0.113147 0.114576 0.037986 -0.281351
O23   O     O_3   0.169311 0.211831 0.050312 -0.559549
O24   O     O_R   0.409900 0.947800 0.999990 -0.576279
O25   O     O_2   0.840196 0.078144 0.103232 -0.316525
O26   O     O_2   0.880623 0.115082 0.035373 -0.283454
O27   O     O_3   0.783652 0.164354 0.059749 -0.564725
O28   O     O_2   0.917362 0.830898 0.105915 -0.312186
O29   O     O_2   0.887720 0.884764 0.041506 -0.283580
O30   O     O_3   0.833281 0.785757 0.054700 -0.563867
O31   O     O_2   0.165183 0.915557 0.104548 -0.323959
O32   O     O_2   0.115774 0.886551 0.038523 -0.278981
O33   O     O_3   0.213192 0.831371 0.054579 -0.551977
O34   O     O_3   0.568815 0.086195 0.865746 -0.542901
O35   O     O_R   0.947800 0.409900 0.000010 -0.598208
O36   O     O_3   0.078964 0.423709 0.866784 -0.539944
O37   O     O_3   0.427927 0.919056 0.866433 -0.540609
O38   O     O_3   0.915431 0.569483 0.865804 -0.542471
O39   O     O_3   0.568058 0.911146 0.134223 -0.543403
O40   O     O_3   0.073183 0.583063 0.132735 -0.544701
O41   O     O_3   0.428425 0.080030 0.133805 -0.545559
O42   O     O_3   0.920409 0.426178 0.134101 -0.542364
O43   O     O_3   0.060205 0.593998 0.364382 -0.588108
O44   O     O_3   0.588735 0.934629 0.365663 -0.591829
O45   O     O_3   0.938908 0.408318 0.364597 -0.587693
O46   O     O_R   0.590100 0.947800 0.000010 -0.585801
O47   O     O_3   0.406012 0.059639 0.364076 -0.590824
O48   O     O_3   0.060339 0.406252 0.635821 -0.589310
O49   O     O_3   0.589969 0.063473 0.634630 -0.591179
O50   O     O_3   0.936991 0.590586 0.635105 -0.589749
O51   O     O_3   0.407321 0.938768 0.635674 -0.588996
O52   O     O_R   0.052200 0.590100 0.000010 -0.588526
O53   O     O_R   0.409900 0.052200 0.000010 -0.596408
O54   O     O_R   0.447790 0.999890 0.564870 -0.611022
O55   O     O_R   0.999890 0.552210 0.564870 -0.609841
O56   O     O_R   0.552210 0.000110 0.564870 -0.609983
O57   O     O_R   0.090100 0.552200 0.499990 -0.578918
O58   O     O_R   0.000110 0.447790 0.564870 -0.611996
O59   O     O_R   0.447790 0.000110 0.435130 -0.612146
O60   O     O_R   0.999890 0.447790 0.435130 -0.611080
O61   O     O_R   0.552210 0.999890 0.435130 -0.607856
O62   O     O_R   0.000110 0.552210 0.435130 -0.613759
O63   O     O_R   0.947790 0.499890 0.064870 -0.612853
O64   O     O_R   0.499890 0.052210 0.064870 -0.610715
O65   O     O_R   0.052210 0.500110 0.064870 -0.620047
O66   O     O_R   0.500110 0.947790 0.064870 -0.614350
O67   O     O_R   0.947790 0.500110 0.935130 -0.614933
O68   O     O_R   0.552200 0.909900 0.499990 -0.582765
O69   O     O_R   0.499890 0.947790 0.935130 -0.611243
O70   O     O_R   0.052210 0.499890 0.935130 -0.613649
O71   O     O_R   0.500110 0.052210 0.935130 -0.615083
O72   O     O_R   0.409730 0.499930 0.462460 -0.530804
O73   O     O_R   0.499930 0.590270 0.462460 -0.532302
O74   O     O_R   0.590270 0.500070 0.462460 -0.531245
O75   O     O_R   0.500070 0.409730 0.462460 -0.534204
O76   O     O_R   0.409730 0.500070 0.537540 -0.529954
O77   O     O_R   0.499930 0.409730 0.537540 -0.531127
O78   O     O_R   0.590270 0.499930 0.537540 -0.531772
O79   O     O_R   0.909900 0.447800 0.499990 -0.582438
O80   O     O_R   0.500070 0.590270 0.537540 -0.532849
O81   O     O_R   0.909730 0.999930 0.962460 -0.530535
O82   O     O_R   0.999930 0.090270 0.962460 -0.527420
O83   O     O_R   0.090270 0.000070 0.962460 -0.529474
O84   O     O_R   0.000070 0.909730 0.962460 -0.532797
O85   O     O_R   0.909730 0.000070 0.037540 -0.530274
O86   O     O_R   0.999930 0.909730 0.037540 -0.532055
O87   O     O_R   0.090270 0.999930 0.037540 -0.533627
O88   O     O_R   0.000070 0.090270 0.037540 -0.535341
O89   O     O_3   0.369542 0.903692 0.801818 -0.585901
O90   O     O_R   0.447800 0.909900 0.500010 -0.573564
O91   O     O_3   0.894763 0.624433 0.800102 -0.588024
O92   O     O_3   0.621235 0.110007 0.799867 -0.590082
O93   O     O_3   0.095461 0.367055 0.801578 -0.585107
O94   O     O_3   0.367915 0.093350 0.197845 -0.588825
O95   O     O_3   0.902793 0.370417 0.200000 -0.586744
O96   O     O_3   0.615192 0.881025 0.200647 -0.591693
O97   O     O_3   0.091689 0.636553 0.198961 -0.593627
O98   O     O_3   0.884119 0.382200 0.296118 -0.588056
O99   O     O_3   0.376962 0.111588 0.294450 -0.589295
O100  O     O_3   0.111539 0.624821 0.295253 -0.588912
O101  O     O_R   0.090100 0.447800 0.500010 -0.586329
O102  O     O_3   0.613848 0.876360 0.298528 -0.590392
O103  O     O_3   0.880878 0.616411 0.703176 -0.588858
O104  O     O_3   0.378558 0.886273 0.704942 -0.588857
O105  O     O_3   0.113191 0.377000 0.704902 -0.589879
O106  O     O_3   0.615829 0.120114 0.702263 -0.589554
O107  O     O_3   0.567263 0.176592 0.440217 -0.618215
O108  O     O_3   0.178153 0.450350 0.432510 -0.633060
O109  O     O_3   0.434289 0.825817 0.439209 -0.623977
O110  O     O_3   0.821160 0.547229 0.431006 -0.631788
O111  O     O_3   0.555672 0.821744 0.564898 -0.629362
O112  O     O_R   0.552200 0.090100 0.500010 -0.569664
O113  O     O_3   0.176140 0.554858 0.565180 -0.630091
O114  O     O_3   0.433550 0.174289 0.560078 -0.621928
O115  O     O_3   0.822972 0.446301 0.566681 -0.633463
O116  O     O_3   0.034479 0.681069 0.927841 -0.618905
O117  O     O_3   0.681462 0.969476 0.926518 -0.622719
O118  O     O_3   0.969872 0.313187 0.926181 -0.608960
O119  O     O_3   0.315222 0.030718 0.927078 -0.616154
O120  O     O_3   0.036118 0.316928 0.071785 -0.618154
O121  O     O_3   0.683338 0.026640 0.073508 -0.622805
O122  O     O_3   0.972435 0.684607 0.074128 -0.613974
O123  O     O_R   0.909900 0.552200 0.500010 -0.591874
O124  O     O_3   0.321098 0.958694 0.070887 -0.621964
O125  O     O_2   0.596961 0.329785 0.401441 -0.321487
O126  O     O_2   0.612275 0.387023 0.465789 -0.291515
O127  O     O_3   0.675103 0.292370 0.461263 -0.552511
O128  O     O_2   0.331270 0.413101 0.397546 -0.321086
O129  O     O_2   0.386618 0.389232 0.462261 -0.279488
O130  O     O_3   0.293458 0.327760 0.451788 -0.543803
O131  O     O_2   0.401232 0.679932 0.397814 -0.323504
O132  O     O_2   0.390631 0.611456 0.457065 -0.282213
O133  O     O_3   0.324215 0.703502 0.461304 -0.552280
O134  O     O_R   0.947800 0.590100 0.999990 -0.591558
O135  O     O_2   0.680051 0.590019 0.394113 -0.326477
O136  O     O_2   0.611291 0.607392 0.452407 -0.270289
O137  O     O_3   0.704530 0.671361 0.454134 -0.542512
O138  O     O_2   0.593222 0.668390 0.599648 -0.324616
O139  O     O_2   0.612075 0.613369 0.534579 -0.283892
O140  O     O_3   0.674524 0.706330 0.542628 -0.543077
O141  O     O_2   0.328766 0.589286 0.602570 -0.313301
O142  O     O_2   0.386857 0.610426 0.538807 -0.287508
O143  O     O_3   0.292941 0.673353 0.546096 -0.558950
O144  O     O_2   0.403934 0.320294 0.603148 -0.331514
S1    S     S_3+6 0.606729 0.323716 0.449779 -0.011408
S2    S     S_3+6 0.823237 0.901965 0.940341 -0.002144
S3    S     S_3+6 0.900219 0.177985 0.940410 0.010724
S4    S     S_3+6 0.176755 0.099642 0.940801 0.008772
S5    S     S_3+6 0.101803 0.176185 0.056199 -0.002809
S6    S     S_3+6 0.822777 0.098457 0.058058 -0.007310
S7    S     S_3+6 0.900547 0.822515 0.058935 0.004118
S8    S     S_3+6 0.176815 0.899107 0.057985 0.004518
S9    S     S_3+6 0.323911 0.397370 0.445075 -0.002485
S10   S     S_3+6 0.393279 0.677319 0.446458 -0.008677
S11   S     S_3+6 0.677032 0.602018 0.442260 -0.000238
S12   S     S_3+6 0.605527 0.675742 0.551663 -0.006252
S13   S     S_3+6 0.323192 0.603625 0.554678 -0.007230
S14   S     S_3+6 0.394315 0.323280 0.554633 -0.000522
S15   S     S_3+6 0.677113 0.396958 0.557325 -0.004805
S16   S     S_3+6 0.099750 0.823109 0.941165 0.005489

loop_
_geom_bond_atom_site_label_1
_geom_bond_atom_site_label_2
_ccdc_geom_bond_type
C271  O80   A    
C219  C254  A    
C86   H346  S    
C88   H350  S    
C219  C232  A    
C243  S1    S    
C26   C280  A    
C114  C115  S    
C269  O76   A    
C234  O56   A    
Cu1   O90   S    
C233  C259  S    
C173  O42   S    
C180  C181  S    
C216  O115  S    
C280  O37   S    
C67   C69   S    
C12   C23   A    
C267  C275  S    
C256  S5    S    
C60   H283  S    
C83   H338  S    
C82   H335  S    
C146  C201  A    
C277  O86   A    
C212  C247  A    
C165  H194  S    
C276  O87   A    
C114  O113  S    
C106  C107  S    
C143  C144  S    
C150  O34   S    
C220  C255  A    
Cu1   Cu6   S    
C175  H218  S    
C34   C35   A    
C110  C111  S    
C192  H258  S    
C101  C207  A    
C171  H207  S    
C202  H282  S    
C199  H276  S    
C198  H274  S    
Cu2   O76   S    
C248  O35   A    
C116  H60   S    
C180  H230  S    
C64   H293  S    
C217  O116  S    
C117  H64   S    
C217  C252  A    
C172  H210  S    
C211  C229  A    
C119  H70   S    
C125  H81   S    
C148  H137  S    
C96   H17   S    
C149  H140  S    
C128  H89   S    
C221  C256  A    
C244  S9    S    
C211  O110  S    
C196  O50   S    
C246  S11   S    
C36   C179  A    
O141  S13   D    
C195  H265  S    
C70   H307  S    
C209  C244  A    
C95   H15   S    
C87   H348  S    
C161  C162  S    
Cu2   O77   S    
O129  S9    D    
C76   C77   S    
C130  O118  S    
C10   C21   A    
C200  H277  S    
C154  H169  S    
C28   C270  A    
C53   H135  S    
C140  H119  S    
C40   C68   A    
C51   C52   S    
C235  O55   A    
C13   C30   A    
C182  H233  S    
C140  C141  S    
Cu1   O54   S    
C240  O64   A    
C47   H342  S    
H158  O33   S    
C181  C182  S    
O11   S2    D    
C122  H76   S    
Cu11  O66   S    
C9    O44   S    
C278  O34   S    
C144  H128  S    
C224  C233  A    
C69   H303  S    
C197  H270  S    
O8    S16   D    
C220  C233  A    
C170  H205  S    
C142  H123  S    
C200  H278  S    
C75   H319  S    
C42   C207  A    
C214  O114  S    
C138  H114  S    
C213  O113  S    
C231  C237  S    
Cu7   O101  S    
C15   C39   A    
C154  C155  S    
C4    C32   A    
C16   C40   A    
C137  H109  S    
C18   C241  S    
Cu2   Cu12  S    
C6    C30   A    
C122  H77   S    
C127  H87   S    
C2    C29   A    
O143  S13   S    
C158  C159  S    
H153  O20   S    
C189  H252  S    
C30   C124  A    
C196  H269  S    
C73   O99   S    
C48   H2    S    
C211  C246  A    
C141  H121  S    
C16   C25   A    
C236  O59   A    
C177  H225  S    
C136  H106  S    
C85   H341  S    
C182  H234  S    
C181  H231  S    
C210  C228  A    
C24   C33   A    
C247  S12   S    
C165  H196  S    
Cu9   O53   S    
O29   S7    D    
C56   O94   S    
C29   C279  A    
C66   H300  S    
C105  H37   S    
C65   H295  S    
O16   S3    D    
H155  O27   S    
C144  C145  S    
C60   O95   S    
O132  S10   D    
Cu11  O46   S    
C156  C158  S    
C108  H45   S    
C241  O67   A    
Cu4   O88   S    
C79   C205  A    
C102  H31   S    
C262  C269  S    
Cu3   O83   S    
C151  H162  S    
C198  H272  S    
C128  H88   S    
C71   H310  S    
C103  O109  S    
C5    O40   S    
C130  C131  S    
C148  C149  S    
C167  H200  S    
O18   S4    D    
C24   C31   A    
C17   C280  A    
C253  S2    S    
C18   C279  A    
H149  O7    S    
C67   H302  S    
Cu5   Cu7   S    
C193  C194  S    
Cu1   O59   S    
C159  H178  S    
C160  O38   S    
Cu11  O69   S    
O22   S5    D    
C127  O117  S    
C186  C187  S    
C241  O70   A    
Cu9   O71   S    
C247  C263  A    
Cu5   O55   S    
C152  H163  S    
C232  C248  S    
C238  O62   A    
C111  H54   S    
C99   H26   S    
C251  S15   S    
C156  O37   S    
C13   C32   A    
Cu6   O68   S    
C147  C148  S    
C59   H257  S    
C209  O108  S    
C119  H67   S    
C138  H111  S    
C265  C277  S    
C128  C129  S    
C110  H51   S    
C2    C57   A    
C164  H192  S    
C5    C20   A    
O30   S7    S    
C239  O65   A    
C203  O103  S    
C6    C19   A    
C66   O97   S    
C271  O73   A    
C85   H344  S    
C189  H253  S    
C102  H30   S    
C123  H80   S    
C43   O89   S    
C162  H188  S    
C123  O116  S    
C170  C171  S    
C115  C116  S    
C7    O42   S    
C91   H4    S    
C184  C185  S    
O32   S8    D    
Cu4   O85   S    
C78   H328  S    
C59   H268  S    
C145  H131  S    
C143  H127  S    
C189  C191  S    
C174  C175  S    
O20   S4    S    
C53   O93   S    
C157  C190  A    
C47   C48   S    
C116  H62   S    
C131  H97   S    
C5    C33   A    
C80   H329  S    
Cu4   O86   S    
C187  H248  S    
C50   H57   S    
C175  H219  S    
C173  H214  S    
C89   C91   S    
C45   H309  S    
C133  O119  S    
O128  S9    D    
C223  C230  A    
O144  S14   D    
C76   H323  S    
C272  O78   A    
C66   C67   S    
C14   C25   A    
C26   C270  A    
C73   H314  S    
C132  H99   S    
C54   H168  S    
C61   H286  S    
C259  O24   A    
C148  H136  S    
C109  H49   S    
Cu12  O73   S    
O10   S16   S    
C105  H39   S    
C65   H297  S    
C103  H32   S    
C92   H7    S    
C8    O43   S    
C121  H74   S    
C89   O105  S    
C93   H10   S    
C108  H47   S    
C188  H249  S    
C169  H203  S    
C161  H184  S    
C91   C92   S    
Cu3   O81   S    
C72   H311  S    
Cu2   O80   S    
C226  C230  S    
C237  O46   A    
C26   C79   A    
C147  H133  S    
C62   H289  S    
C140  H118  S    
C252  S16   S    
Cu8   Cu10  S    
O23   S5    S    
C182  H236  S    
O19   S4    D    
C186  O47   S    
C217  C230  A    
C109  H48   S    
C113  O93   S    
C83   C84   S    
C273  O75   A    
C84   H340  S    
C176  O43   S    
C185  H242  S    
C268  C276  S    
C216  C229  A    
C100  H28   S    
C14   C42   A    
C158  H177  S    
C70   C71   S    
O133  S10   S    
C99   O108  S    
C200  C202  S    
C63   H291  S    
C25   C234  S    
C7    C20   A    
Cu8   O67   S    
C155  H171  S    
C178  H227  S    
C153  O36   S    
C103  H33   S    
C218  O117  S    
C183  H237  S    
Cu6   O61   S    
C244  C262  A    
C80   H330  S    
Cu5   O62   S    
C245  C263  A    
H151  O14   S    
C139  H116  S    
C14   O49   S    
C246  C264  A    
C120  C121  S    
C204  O68   A    
C222  O121  S    
C47   O91   S    
C54   C55   S    
C204  O90   A    
C245  S10   S    
C194  H262  S    
C123  H78   S    
C17   C278  A    
Cu9   O64   S    
C83   O103  S    
C52   H113  S    
C107  H42   S    
C45   H320  S    
O15   S3    D    
Cu10  O52   S    
C253  C266  A    
O140  S12   S    
C177  H222  S    
C143  H126  S    
C272  O74   A    
H144  O137  S    
C88   H351  S    
C60   H284  S    
C275  O82   A    
C166  H197  S    
C3    C27   A    
C82   H336  S    
C90   O91   S    
C54   H157  S    
Cu6   O112  S    
C117  C118  S    
C134  H104  S    
C201  O102  S    
C216  C251  A    
C47   H331  S    
C259  O53   A    
C221  C232  A    
C9    C38   A    
Cu10  O13   S    
C196  H267  S    
C56   C58   S    
C175  H217  S    
C206  O105  S    
C129  H93   S    
C61   C62   S    
O142  S13   D    
C38   C46   A    
C100  H27   S    
O127  S1    S    
C63   C64   S    
C199  H275  S    
C199  C200  S    
O130  S9    S    
C97   H20   S    
C220  O119  S    
Cu3   Cu4   S    
C73   H315  S    
C150  C151  S    
C117  H63   S    
C77   H324  S    
C243  C261  A    
O14   S2    S    
C126  H84   S    
C58   H235  S    
C119  H69   S    
C96   H18   S    
O25   S6    D    
C149  H139  S    
C170  O41   S    
C166  H198  S    
C87   C88   S    
C166  O40   S    
C186  H245  S    
C39   C203  A    
C176  H220  S    
C73   C74   S    
C107  H43   S    
C188  H251  S    
C94   H11   S    
C192  H256  S    
C174  H216  S    
C87   H347  S    
C52   H101  S    
C16   O51   S    
C157  O97   S    
Cu2   O78   S    
C117  O114  S    
C59   H279  S    
C150  H160  S    
C154  H170  S    
C89   H352  S    
C135  O95   S    
C118  H66   S    
C172  H209  S    
C235  O58   A    
C238  O60   A    
C164  C165  S    
H148  O4    S    
Cu10  O70   S    
C133  H103  S    
C34   C168  A    
C123  C125  S    
C274  O81   A    
C32   C146  A    
C109  O111  S    
C106  H40   S    
C181  H232  S    
C15   O50   S    
C147  O124  S    
C208  O107  S    
H156  O30   S    
C260  C268  A    
C41   C206  A    
C214  C225  A    
C242  O71   A    
C104  C105  S    
C124  C179  A    
C159  H180  S    
C207  O106  S    
C40   C205  A    
C28   C101  A    
C170  H206  S    
C33   C157  A    
C219  O118  S    
C76   O100  S    
C151  C152  S    
C208  C243  A    
C141  H120  S    
C2    C27   A    
C249  C262  A    
C74   H317  S    
H150  O10   S    
C118  H65   S    
C129  H92   S    
C132  H100  S    
C114  H55   S    
C106  H41   S    
C130  H95   S    
C264  C272  S    
C112  C227  S    
C193  O49   S    
C142  H122  S    
C86   H345  S    
Cu10  O65   S    
C88   H349  S    
C1    O1    A    
O137  S11   S    
C97   C98   S    
C202  H280  S    
C76   H322  S    
C150  H159  S    
C98   H23   S    
C254  C267  A    
C277  O84   A    
C162  H186  S    
O139  S12   D    
Cu7   O79   S    
C84   C85   S    
C82   H334  S    
C167  C169  S    
C131  H96   S    
O138  S12   D    
C165  H195  S    
C86   C87   S    
C275  O88   A    
Cu12  O72   S    
C159  H181  S    
C58   C59   S    
C163  H189  S    
C274  O85   A    
O7    S15   S    
C191  C192  S    
C193  H261  S    
C60   C61   S    
C52   H124  S    
C4    O39   S    
O125  S1    D    
O6    S15   D    
C213  C227  A    
C74   H316  S    
C171  H208  S    
C223  C258  A    
C202  H281  S    
C50   H68   S    
C151  H161  S    
C198  H273  S    
C193  H260  S    
C221  O120  S    
C93   O106  S    
C53   C54   S    
O126  S1    D    
C50   C51   S    
C167  H199  S    
C56   H212  S    
C125  H82   S    
C49   H24   S    
C101  O92   S    
C132  H98   S    
C48   C49   S    
C256  C267  A    
C17   C242  S    
C67   H301  S    
C273  O77   A    
H152  O17   S    
O136  S11   D    
C133  C134  S    
C176  H221  S    
C160  H183  S    
C8    C37   A    
C195  H266  S    
C127  C128  S    
C70   H306  S    
C199  O51   S    
C95   H16   S    
C137  O120  S    
C69   H305  S    
C44   C45   S    
C152  H164  S    
O9    S16   D    
C90   C203  A    
C1    C225  S    
C48   H13   S    
C111  H53   S    
C10   O45   S    
Cu9   O2    S    
C234  O54   A    
C257  C266  A    
C257  S6    S    
Cu8   O134  S    
C192  H259  S    
Cu1   O1    S    
C115  H58   S    
C122  H75   S    
C250  S14   S    
C78   H326  S    
C108  H44   S    
C64   C65   S    
C110  H50   S    
C242  O69   A    
C41   C57   A    
C187  C188  S    
C69   H304  S    
C109  C110  S    
C197  H271  S    
C156  H175  S    
C194  C195  S    
C36   C46   A    
C83   H337  S    
C56   H224  S    
C146  O96   S    
C266  C274  S    
Cu8   O63   S    
C77   H325  S    
C98   H21   S    
C190  O100  S    
C145  H130  S    
C120  H71   S    
C94   C95   S    
C152  H165  S    
O3    S14   D    
C86   O104  S    
C27   C90   A    
C138  C139  S    
C168  O98   S    
C212  C228  A    
C276  O83   A    
C137  H110  S    
O26   S6    D    
H154  O23   S    
C177  C178  S    
H142  O130  S    
C29   C113  A    
C103  C104  S    
C187  H247  S    
C44   H287  S    
O12   S2    D    
C209  C227  A    
C172  H211  S    
C173  H213  S    
C237  O2    A    
C141  C142  S    
C250  C261  A    
Cu7   O60   S    
Cu6   O56   S    
C49   H46   S    
C171  C172  S    
C93   C94   S    
C255  S4    S    
C191  H254  S    
O28   S7    D    
H147  O143  S    
C163  C164  S    
C43   C44   S    
C70   O98   S    
C81   C82   S    
C255  C268  A    
Cu12  O74   S    
C173  C174  S    
C55   H201  S    
C66   H299  S    
H141  O127  S    
C50   O92   S    
C105  H38   S    
C12   C41   A    
C65   H296  S    
C92   H8    S    
C121  H73   S    
H143  O133  S    
C93   H9    S    
C11   C36   A    
C35   C37   A    
C188  H250  S    
C153  H166  S    
Cu4   O87   S    
C169  H202  S    
C226  O52   A    
Cu3   O84   S    
C72   H312  S    
C163  H191  S    
C9    C22   A    
C261  C273  S    
C91   H5    S    
C112  O101  A    
C39   C57   A    
C196  C197  S    
O27   S6    S    
C111  H52   S    
C62   H290  S    
C3    C18   A    
C99   H25   S    
C115  H59   S    
O5    S15   D    
C118  C119  S    
C213  C249  A    
C112  O57   A    
C51   H90   S    
C212  O111  S    
C186  H244  S    
C143  O122  S    
C185  H241  S    
C214  C250  A    
C81   H332  S    
C85   H343  S    
C258  S7    S    
C120  O115  S    
C195  H264  S    
C204  C228  S    
C95   H14   S    
C77   C78   S    
C251  C264  A    
C224  C260  A    
C189  O48   S    
C15   C23   A    
C21   C238  S    
C236  O61   A    
O135  S11   D    
O131  S10   D    
C178  H228  S    
C53   H146  S    
C44   H223  S    
C42   C68   A    
C4    C19   A    
O33   S8    S    
C197  C198  S    
C106  O110  S    
C126  H85   S    
C139  H115  S    
C260  S8    S    
C79   O89   S    
Cu5   O123  S    
O31   S8    D    
C24   C35   A    
C7    C31   A    
C74   C75   S    
O21   S5    D    
C279  O36   S    
C222  C257  A    
C102  H29   S    
C80   O102  S    
C194  H263  S    
C162  H187  S    
C98   H22   S    
C49   H35   S    
Cu8   O35   S    
C239  O63   A    
C180  H229  S    
C89   H3    S    
C134  C136  S    
C129  H91   S    
C38   C201  A    
C75   H318  S    
C120  H72   S    
C78   H327  S    
C153  H167  S    
C145  H132  S    
C184  H240  S    
Cu5   O57   S    
C183  C184  S    
C68   C270  A    
C1    O112  A    
C61   H285  S    
C208  C225  A    
C104  H36   S    
C254  S3    S    
C180  O44   S    
C99   C100  S    
C155  H173  S    
C116  H61   S    
C107  C108  S    
C127  H86   S    
C249  S13   S    
C96   C97   S    
C142  H125  S    
C100  C102  S    
C8    C21   A    
C121  C122  S    
C248  O13   A    
C10   C34   A    
C224  O124  S    
Cu11  O24   S    
C191  H255  S    
Cu7   O58   S    
C45   H298  S    
C12   O48   S    
C22   C236  S    
C72   H313  S    
C176  C177  S    
C226  O134  A    
C222  C231  A    
C97   H19   S    
C136  H107  S    
C55   H179  S    
C166  C167  S    
C96   O107  S    
C130  H94   S    
C11   O47   S    
C139  H117  S    
C179  O99   S    
C163  O39   S    
C55   H190  S    
C149  H138  S    
C240  O66   A    
C64   H294  S    
C43   H112  S    
C92   H6    S    
C215  C229  S    
C205  O104  S    
C160  H182  S    
C210  O109  S    
C94   H12   S    
C80   C81   S    
C169  H204  S    
C161  H185  S    
Cu3   O82   S    
C124  O94   S    
C269  O72   A    
C3    O38   S    
C28   C278  A    
C63   O96   S    
C6    O41   S    
C20   C239  S    
C137  C138  S    
C144  H129  S    
C11   C22   A    
C147  H134  S    
C62   H288  S    
C135  C168  A    
H145  O140  S    
C113  C206  A    
C43   H1    S    
C126  H83   S    
C23   C235  S    
C133  H102  S    
C184  H239  S    
O4    S14   S    
C19   C240  S    
C223  O122  S    
C125  C126  S    
C104  H34   S    
C84   H339  S    
C183  O45   S    
C185  H243  S    
C263  C271  S    
Cu9   Cu11  S    
C218  C253  A    
C37   C190  A    
O17   S3    S    
C158  H176  S    
C174  H215  S    
C160  C161  S    
C218  C231  A    
C31   C135  A    
C156  H174  S    
C71   H308  S    
C215  O123  A    
C252  C265  A    
C71   C72   S    
C63   H292  S    
C136  H108  S    
C155  H172  S    
C178  H226  S    
C81   H333  S    
C75   H321  S    
C13   C46   A    
C183  H238  S    
C140  O121  S    
C58   H246  S    
C210  C245  A    
C153  C154  S    
C258  C265  A    
C215  O79   A    
Cu12  O75   S    
C51   H79   S    
C131  C132  S    
C114  H56   S    
C164  H193  S    
C134  H105  S    
