data_mof_unit_52589.cif
_audit_creation_date              2012-12-10T17:33:02-0500
_audit_creation_method            fapswitch 2.2
_symmetry_space_group_name_H-M    P1
_symmetry_Int_Tables_number       1
_space_group_crystal_system       triclinic
_cell_length_a                    12.356914
_cell_length_b                    13.312916
_cell_length_c                    14.230942
_cell_angle_alpha                 93.380973
_cell_angle_beta                  107.675537
_cell_angle_gamma                 117.392206
_cell_volume                      1925.08191601

loop_
_atom_site_label
_atom_site_type_symbol
_atom_type_description
_atom_site_fract_x
_atom_site_fract_y
_atom_site_fract_z
_atom_type_partial_charge
C1    C     C_R   0.652419 0.714433 0.511123 0.778953
C2    C     C_R   0.833876 0.480313 0.917493 0.036413
C3    C     C_R   0.785520 0.498912 0.991585 0.052435
C4    C     C_R   0.936203 0.452874 0.943740 0.087867
C5    C     C_R   0.000297 0.459166 0.047051 0.065801
C6    C     C_R   0.946938 0.473958 0.118240 -0.230681
C7    C     C_R   0.841135 0.492501 0.090645 -0.208352
C8    C     C_R   0.975343 0.417714 0.870090 -0.220839
C9    C     C_R   0.080735 0.398329 0.897988 -0.230045
C10   C     C_R   0.152779 0.415994 0.999943 0.149542
C11   C     C_R   0.114617 0.448636 0.075498 0.089191
C12   C     C_R   0.617563 0.515619 0.686763 0.797066
C13   C     C_R   0.263277 0.401986 0.027380 -0.179304
C14   C     C_R   0.338061 0.422440 0.129349 -0.194768
C15   C     C_R   0.195201 0.474230 0.177393 -0.254398
C16   C     C_R   0.270617 0.027825 0.608739 -0.221282
C17   C     C_R   0.278366 0.170901 0.509633 -0.070648
C18   C     C_R   0.660176 0.884595 0.446989 -0.195535
C19   C     C_R   0.727375 0.986987 0.418939 -0.149908
C20   C     C_R   0.862102 0.037578 0.442302 -0.180782
C21   C     C_R   0.933926 0.989298 0.499482 0.086888
C22   C     C_R   0.866285 0.892052 0.536784 0.086311
C23   C     C_R   0.350236 0.286706 0.492727 0.793685
C24   C     C_R   0.070367 0.033901 0.521648 0.076076
C25   C     C_R   0.137273 0.987378 0.587302 0.127754
C26   C     C_R   0.071617 0.903032 0.633829 -0.209931
C27   C     C_R   0.937792 0.855728 0.608890 -0.207028
C28   C     C_R   0.142985 0.124027 0.481876 -0.282949
C29   C     C_R   0.343152 0.119837 0.570941 0.141102
C30   C     C_R   0.728301 0.834476 0.503086 -0.091817
C31   C     C_R   0.252138 0.670147 0.673447 -0.311916
C32   C     C_R   0.654221 0.348998 0.357510 -0.075607
C33   C     C_R   0.732309 0.319987 0.320382 0.394806
C34   C     C_R   0.379789 0.480695 0.312972 0.802317
C35   C     C_R   0.867310 0.374534 0.376498 -0.268188
C36   C     C_R   0.927073 0.461968 0.465903 -0.079849
C37   C     C_R   0.843446 0.491122 0.497371 0.276538
C38   C     C_R   0.066674 0.523216 0.524401 -0.005718
C39   C     C_R   0.117328 0.608151 0.614577 0.184857
C40   C     C_R   0.033546 0.632363 0.644944 -0.294582
C41   C     C_R   0.901406 0.579498 0.584986 -0.169938
C42   C     C_R   0.159376 0.504457 0.498420 0.017662
C43   C     C_R   0.337611 0.648402 0.643271 0.069619
C44   C     C_R   0.676922 0.515078 0.792980 -0.120602
C45   C     C_R   0.305044 0.460132 0.204827 -0.068112
C46   C     C_R   0.682802 0.524710 0.965480 0.427671
C47   C     C_R   0.627037 0.529681 0.865634 -0.276572
C48   C     C_R   0.781261 0.493497 0.820047 -0.281145
Cu1   Cu    Cu3+1 0.416420 0.526630 0.522910 0.931177
Cu2   Cu    Cu3+1 0.583580 0.473370 0.477090 0.915374
H1    H     H_    0.804702 0.504054 0.148318 0.180943
H2    H     H_    0.292023 0.375552 0.969965 0.152980
H3    H     H_    0.124822 0.874531 0.690326 0.136314
H4    H     H_    0.319320 0.989568 0.657772 0.132230
H5    H     H_    0.098106 0.163579 0.432030 0.140022
H6    H     H_    0.554091 0.841965 0.421341 0.152372
H7    H     H_    0.907022 0.115314 0.416129 0.135796
H8    H     H_    0.673967 0.025092 0.375453 0.165150
H9    H     H_    0.890669 0.792870 0.648608 0.122977
H10   H     H_    0.441565 0.695161 0.689053 0.122805
H11   H     H_    0.176204 0.508630 0.237010 0.152588
H12   H     H_    0.071061 0.694958 0.715131 0.142524
H13   H     H_    0.291223 0.735372 0.742360 0.133918
H14   H     H_    0.129271 0.439882 0.432314 0.117442
H15   H     H_    0.549007 0.304819 0.317698 0.127894
H16   H     H_    0.923438 0.347772 0.347426 0.151634
H17   H     H_    0.848002 0.611785 0.609265 0.197463
H18   H     H_    0.422260 0.410113 0.148973 0.167209
H19   H     H_    0.107484 0.371457 0.839311 0.150416
H20   H     H_    0.545184 0.545335 0.845479 0.169500
H21   H     H_    0.821921 0.489461 0.763908 0.169122
H22   H     H_    0.982402 0.468144 0.195749 0.148166
H23   H     H_    0.923849 0.400658 0.789627 0.150638
N1    N     N_R   0.290690 0.566960 0.557640 -0.178322
N2    N     N_R   0.709100 0.433710 0.442970 -0.216331
O1    O     O_R   0.545970 0.684450 0.528810 -0.578526
O2    O     O_R   0.687130 0.639470 0.490120 -0.580931
O3    O     O_R   0.519670 0.535100 0.660030 -0.582058
O4    O     O_R   0.660830 0.490120 0.621340 -0.610652
O5    O     O_R   0.312870 0.360530 0.509880 -0.576617
O6    O     O_R   0.454030 0.315550 0.471190 -0.579444
O7    O     O_R   0.339170 0.509880 0.378660 -0.588761
O8    O     O_R   0.480330 0.464900 0.339970 -0.588276
C49   C     C_3   0.489456 0.165254 0.603742 -0.387664
C50   C     C_3   0.521066 0.118578 0.521203 -0.776404
H24   H     H_    0.484413 0.140588 0.448665 0.260068
H25   H     H_    0.629105 0.157173 0.545483 0.236979
H26   H     H_    0.475063 0.022439 0.508275 0.240323
H27   H     H_    0.545970 0.261652 0.625153 0.221057
H28   H     H_    0.525247 0.137756 0.673365 0.188312
O9    O     O_3   0.680589 0.234608 0.232830 -0.585088
C51   C     C_3   0.584534 0.241801 0.153201 0.054086
H29   H     H_    0.609015 0.333497 0.152666 0.151214
H30   H     H_    0.487095 0.192794 0.159702 0.138238
C52   C     C_3   0.575037 0.186801 0.052098 -0.756694
H31   H     H_    0.545720 0.093784 0.047868 0.241097
H32   H     H_    0.500520 0.192648 0.988932 0.199352
H33   H     H_    0.671468 0.233064 0.043693 0.257214
O10   O     O_3   0.631300 0.538534 0.035840 -0.602823
C53   C     C_3   0.694374 0.658476 0.080403 0.034069
H34   H     H_    0.671625 0.706275 0.022838 0.147868
H35   H     H_    0.802934 0.696792 0.115862 0.144999
C54   C     C_3   0.645824 0.675059 0.163167 -0.768431
H36   H     H_    0.662443 0.624608 0.219871 0.252557
H37   H     H_    0.699750 0.768624 0.202150 0.208204
H38   H     H_    0.539376 0.645240 0.129389 0.252673

loop_
_geom_bond_atom_site_label_1
_geom_bond_atom_site_label_2
_ccdc_geom_bond_type
C46   O10   S    
Cu2   O2    S    
C17   C29   A    
C52   H31   S    
C4    C8    A    
Cu2   O4    S    
C32   N2    A    
C52   H33   S    
C41   H17   S    
C50   H24   S    
C6    H22   S    
C26   C27   A    
C17   C23   S    
C31   C43   A    
C36   C37   A    
C9    H19   S    
C38   C42   A    
C3    C7    A    
C33   O9    S    
C38   C39   A    
C12   O4    A    
C40   H12   S    
Cu1   O3    S    
C18   C19   A    
C1    C30   S    
C11   C15   A    
C19   C20   A    
C8    C9    A    
C12   O3    A    
C18   C30   A    
C23   O5    A    
C23   O6    A    
C9    C10   A    
C44   C47   A    
C18   H6    S    
C43   N1    A    
C37   N2    A    
C21   C22   A    
C1    O1    A    
C49   H28   S    
C53   H35   S    
C28   H5    S    
Cu2   O8    S    
C14   C45   A    
C50   H25   S    
C19   H8    S    
C42   N1    A    
C31   H13   S    
C49   C50   S    
C29   C49   S    
C39   C40   A    
C35   H16   S    
C2    C48   A    
C16   C29   A    
C51   C52   S    
C35   C36   A    
Cu1   O7    S    
C2    C4    A    
C47   H20   S    
C8    H23   S    
C13   H2    S    
O10   C53   S    
C51   H30   S    
C15   H11   S    
Cu1   O1    S    
C54   H37   S    
C34   C45   S    
C24   C25   A    
C43   H10   S    
C40   C41   A    
C22   C27   A    
C49   H27   S    
C15   C45   A    
C48   H21   S    
C26   H3    S    
C42   H14   S    
O9    C51   S    
C50   H26   S    
C16   C25   A    
C46   C47   A    
C22   C30   A    
C17   C28   A    
C24   C28   A    
C4    C5    A    
C10   C13   A    
C52   H32   S    
C5    C11   A    
C6    C7    A    
C34   O7    A    
C3    C46   A    
Cu1   O5    S    
C32   C33   A    
C36   C38   A    
C2    C3    A    
C25   C26   A    
C7    H1    S    
C12   C44   S    
C27   H9    S    
Cu2   N2    S    
C5    C6    A    
C51   H29   S    
C33   C35   A    
C31   C39   A    
C54   H38   S    
C53   C54   S    
C37   C41   A    
C16   H4    S    
C10   C11   A    
C20   C21   A    
Cu1   Cu2   S    
C34   O8    A    
C21   C24   A    
C54   H36   S    
C14   H18   S    
Cu1   N1    S    
C53   H34   S    
C1    O2    A    
C20   H7    S    
C13   C14   A    
C44   C48   A    
Cu2   O6    S    
C32   H15   S    
