data_mof_unit_43402.cif
_audit_creation_date              2012-12-10T18:10:56-0500
_audit_creation_method            fapswitch 2.2
_symmetry_space_group_name_H-M    P1
_symmetry_Int_Tables_number       1
_space_group_crystal_system       triclinic
_cell_length_a                    12.653528
_cell_length_b                    13.150669
_cell_length_c                    15.713025
_cell_angle_alpha                 92.214691
_cell_angle_beta                  101.904555
_cell_angle_gamma                 81.99799
_cell_volume                      2533.40519121

loop_
_atom_site_label
_atom_site_type_symbol
_atom_type_description
_atom_site_fract_x
_atom_site_fract_y
_atom_site_fract_z
_atom_type_partial_charge
C1    C     C_R   0.439126 0.690745 0.485455 0.832365
C2    C     C_R   0.596992 0.199380 0.510762 -0.044183
C3    C     C_R   0.295505 0.839057 0.483588 -0.187024
C4    C     C_R   0.500601 0.500393 0.661215 0.884685
C5    C     C_R   0.265787 0.944121 0.489933 -0.159202
C6    C     C_R   0.342108 0.010437 0.489421 -0.201303
C7    C     C_R   0.448419 0.972460 0.476704 0.089624
C8    C     C_R   0.471972 0.867526 0.456809 0.087202
C9    C     C_R   0.532425 0.034671 0.483412 0.073761
C10   C     C_R   0.632858 0.995027 0.459809 0.181064
C11   C     C_R   0.647350 0.895349 0.427246 -0.255249
C12   C     C_3   0.458306 0.398211 0.039796 -0.465755
C13   C     C_R   0.567120 0.832751 0.424385 -0.194195
C14   C     C_R   0.519719 0.135242 0.513954 -0.253545
C15   C     C_R   0.698490 0.159089 0.493282 -0.227060
C16   C     C_R   0.560885 0.308993 0.511004 0.855409
C17   C     C_R   0.400331 0.799926 0.471359 -0.116417
C18   C     C_R   0.095673 0.338022 0.379725 0.494110
C19   C     C_R   0.804227 0.613458 0.615801 -0.056618
C20   C     C_R   0.912324 0.607172 0.658643 -0.350548
C21   C     C_R   0.991860 0.545249 0.623472 0.582751
C22   C     C_R   0.965221 0.506765 0.537238 -0.036807
C23   C     C_3   0.497162 0.498159 0.082550 0.205532
C24   C     C_R   0.854416 0.499530 0.504683 0.105301
C25   C     C_R   0.043895 0.463175 0.488539 -0.223394
C26   C     C_R   0.014455 0.391132 0.420750 -0.137230
C27   C     C_R   0.904578 0.375088 0.394880 0.521960
C28   C     C_R   0.499422 0.499478 0.338754 0.878038
C29   C     C_R   0.826483 0.429872 0.436668 -0.304248
C30   C     C_R   0.146743 0.497850 0.497709 0.646254
C31   C     C_R   0.200442 0.365299 0.400685 -0.232322
C32   C     C_3   0.447900 0.404656 0.940193 0.419291
C33   C     C_3   0.435486 0.602820 0.944782 0.337744
C34   C     C_3   0.614948 0.501820 0.069551 -0.402196
C35   C     C_3   0.419427 0.592988 0.039227 -0.490461
C36   C     C_1   0.497861 0.498721 0.249546 -0.175112
C37   C     C_3   0.499818 0.499789 0.916663 0.106216
C38   C     C_3   0.584629 0.269134 0.913717 -0.268096
C39   C     C_3   0.827485 0.233511 0.336975 -0.283778
C40   C     C_3   0.120879 0.166980 0.347887 -0.300727
C41   C     C_3   0.212022 0.616834 0.603062 -0.147551
C42   C     C_3   0.082470 0.407115 0.703081 -0.384417
C43   C     C_3   0.257511 0.590470 0.858858 -0.266956
C44   C     C_3   0.617900 0.497942 0.971569 -0.515936
C45   C     C_1   0.497087 0.498264 0.174023 -0.038839
C46   C     C_1   0.501636 0.500548 0.825598 -0.006066
C47   C     C_1   0.501947 0.500715 0.750317 -0.180614
C48   C     C_R   0.716588 0.056605 0.467745 -0.207961
H1    H     H_    0.377712 0.389024 0.054551 0.153548
H2    H     H_    0.184781 0.974076 0.499258 0.136946
H3    H     H_    0.359586 0.421548 0.915725 0.090430
H4    H     H_    0.580315 0.756908 0.396122 0.178650
H5    H     H_    0.263935 0.326664 0.369651 0.179337
H6    H     H_    0.740975 0.653883 0.646149 0.163412
H7    H     H_    0.932629 0.640839 0.722928 0.165425
H8    H     H_    0.745050 0.413935 0.415955 0.217603
H9    H     H_    0.492177 0.661497 0.950021 0.137880
H10   H     H_    0.333982 0.584655 0.041302 0.186269
H11   H     H_    0.438030 0.664354 0.076480 0.170726
H12   H     H_    0.515325 0.330374 0.067931 0.191271
H13   H     H_    0.675104 0.431455 0.957005 0.194856
H14   H     H_    0.654388 0.565377 0.955691 0.177713
H15   H     H_    0.671275 0.435976 0.102781 0.203445
H16   H     H_    0.627649 0.278245 0.981961 0.150295
H17   H     H_    0.625254 0.302506 0.867302 0.165710
H18   H     H_    0.591306 0.185379 0.900021 0.186458
H19   H     H_    0.742648 0.254742 0.346465 0.147821
H20   H     H_    0.879724 0.190325 0.393532 0.137145
H21   H     H_    0.823934 0.180976 0.279814 0.197904
H22   H     H_    0.087599 0.107687 0.301880 0.198917
H23   H     H_    0.644519 0.573595 0.099128 0.185982
H24   H     H_    0.102439 0.152223 0.412316 0.131990
H25   H     H_    0.210332 0.157847 0.351613 0.157092
H26   H     H_    0.280932 0.659412 0.601665 0.163182
H27   H     H_    0.243901 0.545879 0.640878 0.202672
H28   H     H_    0.158136 0.667609 0.638891 0.166785
H29   H     H_    0.083572 0.353533 0.646669 0.171698
H30   H     H_    0.009582 0.402253 0.731398 0.179551
H31   H     H_    0.155698 0.381705 0.753570 0.200747
H32   H     H_    0.232174 0.557592 0.914155 0.138679
H33   H     H_    0.278499 0.530942 0.810934 0.180844
H34   H     H_    0.761134 0.207812 0.495470 0.147237
H35   H     H_    0.185072 0.641066 0.824330 0.207781
H36   H     H_    0.721225 0.865313 0.404901 0.153343
H37   H     H_    0.794106 0.026647 0.451206 0.131238
H38   H     H_    0.448027 0.167333 0.537640 0.154824
H39   H     H_    0.237421 0.788625 0.490897 0.189905
H40   H     H_    0.314441 0.090869 0.497067 0.122170
N1    N     N_R   0.222200 0.444690 0.455710 -0.163411
N2    N     N_R   0.776960 0.554780 0.543830 -0.110779
O1    O     O_R   0.366740 0.627160 0.478850 -0.583264
O2    O     O_3   0.871096 0.321124 0.318725 -0.549476
O3    O     O_3   0.071477 0.264564 0.315777 -0.542115
O4    O     O_3   0.153876 0.601004 0.517804 -0.631438
O5    O     O_3   0.087363 0.508628 0.679753 -0.668318
O6    O     O_3   0.342538 0.650628 0.885247 -0.608857
O7    O     O_R   0.544830 0.662520 0.507140 -0.613254
O8    O     O_R   0.410920 0.482310 0.608710 -0.631326
O9    O     O_R   0.589010 0.517670 0.637000 -0.609894
O10   O     O_R   0.455170 0.337480 0.492860 -0.619695
O11   O     O_R   0.633260 0.372840 0.521150 -0.630604
O12   O     O_R   0.410990 0.482330 0.363000 -0.597966
O13   O     O_R   0.589080 0.517690 0.391290 -0.634694
O14   O     O_3   0.473136 0.308802 0.898319 -0.602306
Zn1   Zn    Zn3+2 0.381090 0.476390 0.481110 0.961660
Zn2   Zn    Zn3+2 0.618910 0.523610 0.518890 0.930758

loop_
_geom_bond_atom_site_label_1
_geom_bond_atom_site_label_2
_ccdc_geom_bond_type
C8    C13   A    
C23   C45   S    
C4    O8    A    
C27   C29   A    
C43   H35   S    
C39   H20   S    
O1    Zn1   S    
C19   C20   A    
C18   C26   A    
C40   O3    S    
C12   H1    S    
C7    C8    A    
C12   C23   S    
C26   C27   A    
O8    Zn1   S    
C40   H22   S    
C35   H10   S    
C20   H7    S    
C5    C6    A    
C25   C30   A    
C6    H40   S    
C40   H25   S    
O12   Zn1   S    
C35   H11   S    
C24   C29   A    
C38   O14   S    
C41   H26   S    
C38   H18   S    
C31   N1    A    
C22   C25   A    
C32   O14   S    
C2    C16   S    
C9    C10   A    
C42   H31   S    
C1    O1    A    
C21   C22   A    
C12   C32   S    
C15   C48   A    
C30   N1    A    
C15   H34   S    
C38   H16   S    
C39   H21   S    
C3    H39   S    
C42   O5    S    
C36   C45   T    
C34   C44   S    
C14   H38   S    
C1    O7    A    
C16   O10   A    
C21   O5    S    
C44   H14   S    
C43   H32   S    
C33   C37   S    
C9    C14   A    
C32   H3    S    
C41   H27   S    
C13   H4    S    
C41   O4    S    
C38   H17   S    
C23   C34   S    
C43   O6    S    
O10   Zn1   S    
C27   O2    S    
C32   C37   S    
C31   H5    S    
C2    C15   A    
N2    Zn2   S    
O7    Zn2   S    
C19   H6    S    
C42   H30   S    
C23   C35   S    
C10   C48   A    
C11   H36   S    
C22   C24   A    
C5    H2    S    
C33   O6    S    
C39   O2    S    
O11   Zn2   S    
C7    C9    A    
O9    Zn2   S    
C46   C47   T    
C33   H9    S    
C40   H24   S    
C39   H19   S    
C3    C5    A    
C24   N2    A    
C6    C7    A    
C29   H8    S    
C44   H13   S    
C1    C17   S    
C8    C17   A    
C37   C44   S    
C25   C26   A    
C30   O4    S    
C19   N2    A    
C41   H28   S    
C11   C13   A    
C28   O13   A    
C43   H33   S    
C34   H15   S    
C33   C35   S    
C3    C17   A    
O13   Zn2   S    
C2    C14   A    
C10   C11   A    
C12   H12   S    
C28   O12   A    
C16   O11   A    
C20   C21   A    
C28   C36   S    
C42   H29   S    
C4    O9    A    
N1    Zn1   S    
C18   O3    S    
C48   H37   S    
C18   C31   A    
C37   C46   S    
C34   H23   S    
C4    C47   S    
