data_mof_unit_8430.cif
_audit_creation_date              2013-03-05T16:06:20-0500
_audit_creation_method            fapswitch 2.2
_symmetry_space_group_name_H-M    P1
_symmetry_Int_Tables_number       1
_space_group_crystal_system       triclinic
_cell_length_a                    10.816316
_cell_length_b                    9.505299
_cell_length_c                    27.866949
_cell_angle_alpha                 90.002496
_cell_angle_beta                  90.026149
_cell_angle_gamma                 90.000935
_cell_volume                      2865.06531128

loop_
_atom_site_label
_atom_site_type_symbol
_atom_site_description
_atom_site_fract_x
_atom_site_fract_y
_atom_site_fract_z
_atom_type_partial_charge
O1    O     O_R   0.319640 0.618740 0.500000 -0.595021
O2    O     O_R   0.680360 0.381260 0.500000 -0.585854
O3    O     O_R   0.680360 0.618740 0.500000 -0.595035
O4    O     O_R   0.319640 0.381260 0.500000 -0.585770
C1    C     C_R   0.262040 0.500004 0.499965 0.847720
C2    C     C_R   0.737960 0.500008 0.500043 0.847877
O5    O     O_R   0.500020 0.618770 0.430260 -0.579288
O6    O     O_R   0.499980 0.381230 0.569740 -0.547417
O7    O     O_R   0.499980 0.618770 0.569740 -0.579338
O8    O     O_R   0.500020 0.381230 0.430260 -0.547811
C3    C     C_R   0.499872 0.499876 0.407442 0.925211
C4    C     C_R   0.500122 0.499872 0.592568 0.923357
Cu1   Cu    Cu3+1 0.500000 0.640660 0.500000 1.005776
Cu2   Cu    Cu3+1 0.500000 0.359340 0.500000 1.047571
C5    C     C_R   0.397305 0.459130 0.177786 0.667207
C6    C     C_R   0.602895 0.460699 0.822253 0.667243
O9    O     O_2   0.293549 0.430016 0.202797 -0.452004
O10   O     O_2   0.706964 0.433076 0.797241 -0.452086
N1    N     N_R   0.504791 0.488524 0.201544 -0.438664
N2    N     N_R   0.495105 0.488592 0.798497 -0.438568
C7    C     C_R   0.612563 0.513306 0.177236 0.688151
C8    C     C_R   0.387067 0.511844 0.822802 0.688226
C9    C     C_R   0.569665 0.390303 0.279386 0.256462
C10   C     C_R   0.431415 0.389367 0.720652 0.256272
C11   C     C_R   0.570689 0.395195 0.329793 0.223206
C12   C     C_R   0.430373 0.394233 0.670245 0.223478
C13   C     C_R   0.432707 0.599924 0.327850 -0.185787
C14   C     C_R   0.566217 0.600783 0.672200 -0.185312
C15   C     C_R   0.437981 0.599365 0.277259 0.296877
C16   C     C_R   0.560758 0.600309 0.722787 0.296616
C17   C     C_R   0.504544 0.493147 0.253217 0.068569
C18   C     C_R   0.495314 0.493197 0.746822 0.068595
C19   C     C_R   0.504811 0.479070 0.101663 -0.079404
C20   C     C_R   0.495178 0.479101 0.898377 -0.079311
C21   C     C_R   0.394134 0.460206 0.127577 -0.030199
C22   C     C_R   0.606044 0.461759 0.872461 -0.030530
C23   C     C_R   0.282674 0.441884 0.102997 -0.065112
C24   C     C_R   0.717683 0.444897 0.897040 -0.064896
C25   C     C_R   0.617184 0.499302 0.126752 -0.145685
C26   C     C_R   0.382600 0.497823 0.873288 -0.145757
C27   C     C_R   0.501039 0.498861 0.354315 -0.306249
C28   C     C_R   0.498940 0.498833 0.645714 -0.306406
H1    H     H_    0.196836 0.424730 0.122164 0.227733
H2    H     H_    0.803693 0.428901 0.877872 0.228536
C29   C     C_R   0.385191 0.482671 0.975317 -0.006999
C30   C     C_R   0.614755 0.484170 0.024724 -0.006923
C31   C     C_R   0.612437 0.471495 0.973935 0.071019
C32   C     C_R   0.387638 0.469974 0.026105 0.071269
C33   C     C_R   0.497498 0.477764 0.949346 0.087713
C34   C     C_R   0.502505 0.477746 0.050694 0.087737
C35   C     C_R   0.273791 0.500038 0.949620 -0.235761
C36   C     C_R   0.725971 0.502977 0.050424 -0.235995
C37   C     C_R   0.270954 0.506059 0.899581 0.365337
C38   C     C_R   0.728743 0.509005 0.100466 0.364853
O11   O     O_2   0.285737 0.551272 0.798017 -0.413319
O12   O     O_2   0.713450 0.554234 0.202015 -0.413051
C39   C     C_R   0.279043 0.448024 0.053274 -0.164956
C40   C     C_R   0.721249 0.451020 0.946763 -0.164826
H3    H     H_    0.186117 0.510662 0.967616 0.174035
H4    H     H_    0.813536 0.514751 0.032433 0.174205
H5    H     H_    0.189854 0.430604 0.037062 0.160385
H6    H     H_    0.810611 0.434763 0.962973 0.160761
C41   C     C_R   0.063895 0.372136 0.499939 -0.117636
C42   C     C_R   0.936102 0.627924 0.500110 -0.147715
C43   C     C_R   0.936098 0.372138 0.499977 -0.117379
C44   C     C_R   0.063903 0.627922 0.499999 -0.148584
H7    H     H_    0.112010 0.272175 0.499900 0.160769
H8    H     H_    0.887981 0.727882 0.500222 0.154467
H9    H     H_    0.887977 0.272177 0.499938 0.160779
H10   H     H_    0.112030 0.727879 0.499965 0.154512
C45   C     C_R   0.871768 0.500027 0.500061 -0.002735
C46   C     C_R   0.128232 0.500024 0.499950 -0.002923
C47   C     C_R   0.419350 0.074487 0.471758 0.042882
C48   C     C_R   0.580781 0.925623 0.528154 0.022332
C49   C     C_R   0.580653 0.074501 0.528239 0.043934
C50   C     C_R   0.419225 0.925605 0.471838 0.021559
H11   H     H_    0.354825 0.130685 0.449117 0.135961
H12   H     H_    0.645598 0.869589 0.550583 0.132642
H13   H     H_    0.645183 0.130706 0.550879 0.135828
H14   H     H_    0.354430 0.869554 0.449393 0.133046
N3    N     N_R   0.500000 0.852070 0.500000 -0.179891
N4    N     N_R   0.500000 0.147930 0.500000 -0.174501
C51   C     C_2   0.351826 0.703003 0.352627 0.972570
O13   O     O_2   0.362019 0.828740 0.344180 -0.518262
O14   O     O_R   0.262774 0.655355 0.385161 -0.760765
H15   H     H_    0.211005 0.734558 0.398906 0.325126
C52   C     C_2   0.646402 0.704605 0.647462 0.973269
O15   O     O_2   0.634675 0.830310 0.655649 -0.517671
O16   O     O_R   0.736604 0.657659 0.615285 -0.760386
H16   H     H_    0.787983 0.737321 0.601618 0.324935
N5    N     N_R   0.373298 0.704349 0.249855 0.169232
O17   O     O_R   0.255014 0.722709 0.255653 -0.241476
O18   O     O_R   0.430698 0.774711 0.216578 -0.280083
N6    N     N_R   0.624128 0.706335 0.750196 0.169162
O19   O     O_R   0.742184 0.726563 0.744433 -0.242247
O20   O     O_R   0.565825 0.775822 0.783450 -0.279591
N7    N     N_R   0.359467 0.292081 0.644069 0.170314
O21   O     O_R   0.381547 0.158415 0.649414 -0.263294
O22   O     O_R   0.269908 0.332407 0.616068 -0.332903
N8    N     N_R   0.642834 0.294186 0.355983 0.170029
O23   O     O_R   0.623137 0.160136 0.350352 -0.263394
O24   O     O_R   0.731339 0.336014 0.384236 -0.333880
N9    N     N_R   0.365698 0.279946 0.745501 0.180170
O25   O     O_R   0.250495 0.254052 0.735320 -0.202312
O26   O     O_R   0.419819 0.208154 0.779269 -0.284429
N10   N     N_R   0.636782 0.282020 0.254532 0.180125
O27   O     O_R   0.752476 0.258553 0.264560 -0.201989
O28   O     O_R   0.583496 0.209094 0.220841 -0.284754
N11   N     N_R   0.152425 0.511392 0.876471 0.163858
O29   O     O_R   0.117671 0.407454 0.849217 -0.243217
O30   O     O_R   0.070241 0.602214 0.890710 -0.313428
N12   N     N_R   0.847206 0.515823 0.123582 0.163913
O31   O     O_R   0.882914 0.412375 0.150865 -0.243321
O32   O     O_R   0.928547 0.607606 0.109332 -0.311313

loop_
_geom_bond_atom_site_label_1
_geom_bond_atom_site_label_2
_geom_bond_distance
_ccdc_geom_bond_type
C40   H6    1.077852 S    
C52   O15   1.223044 D    
C41   C43   1.382297 A    
C30   C36   1.411087 A    
C13   C15   1.411001 A    
O3    C2    1.289141 A    
N1    C17   1.440644 S    
N12   O32   1.301230 A    
N7    O21   1.301339 A    
C32   C39   1.413233 A    
C31   C33   1.420526 A    
O14   H15   1.013513 S    
C5    N1    1.366491 A    
C19   C25   1.415054 A    
O1    C1    1.289151 A    
C42   H8    1.083360 S    
C21   C23   1.397211 A    
C10   C12   1.405481 A    
C1    C46   1.447315 S    
N11   O30   1.301244 A    
C25   C38   1.414900 A    
N10   O27   1.301353 A    
C29   C35   1.411078 A    
Cu1   N3    2.009515 S    
C42   C45   1.400756 A    
C14   C28   1.418737 A    
O7    Cu1   1.954557 S    
C4    C28   1.481100 S    
C36   H4    1.077662 S    
C24   C40   1.387372 A    
C44   C46   1.400755 A    
O3    Cu1   1.961929 S    
O6    C4    1.294761 A    
C32   C34   1.420508 A    
Cu1   Cu2   2.674031 S    
O2    C2    1.289248 A    
C5    C21   1.399606 A    
N12   O31   1.301506 A    
N7    O22   1.301365 A    
C36   C38   1.395984 A    
C2    C45   1.447311 S    
C41   H7    1.083355 S    
C48   C49   1.415124 A    
O8    Cu2   1.954557 S    
C11   C27   1.416308 A    
N5    O17   1.301389 A    
C19   C34   1.420624 A    
C43   C45   1.400695 A    
C9    N10   1.437544 S    
C35   C37   1.395959 A    
C9    C17   1.408248 A    
C23   H1    1.083684 S    
O5    C3    1.296707 A    
C10   C18   1.408207 A    
C24   H2    1.083680 S    
N5    O18   1.301266 A    
C13   C27   1.418659 A    
C11   N8    1.436316 S    
C51   O13   1.223129 D    
C7    C25   1.414005 A    
C29   C33   1.415066 A    
C6    N2    1.366455 A    
C8    C26   1.414051 A    
C14   C52   1.483876 S    
N8    O24   1.301405 A    
C38   N12   1.435341 S    
N9    O26   1.301320 A    
N6    O20   1.301217 A    
C6    O10   1.350016 S    
C51   O14   1.398457 S    
N2    C8    1.368886 A    
C52   O16   1.398511 S    
C47   C50   1.415166 A    
C20   C26   1.415075 A    
C35   H3    1.077685 S    
Cu2   N4    2.009516 S    
C48   N3    1.366427 A    
C47   N4    1.366385 A    
C15   N5    1.438078 S    
C12   C28   1.416474 A    
N2    C18   1.440680 S    
C29   C32   1.420674 A    
C37   N11   1.435329 S    
C5    O9    1.350025 S    
C30   C31   1.420674 A    
C20   C33   1.420615 A    
O6    Cu2   1.954539 S    
N1    C7    1.368917 A    
C50   H14   1.079734 S    
O4    C1    1.289239 A    
C50   N3    1.366457 A    
C7    O12   1.348402 S    
C49   N4    1.366342 A    
C39   H5    1.077842 S    
C8    O11   1.348361 S    
C30   C34   1.415055 A    
C10   N9    1.437709 S    
C22   C24   1.397219 A    
C15   C17   1.409606 A    
N11   O29   1.301486 A    
C6    C22   1.399581 A    
C31   C40   1.413224 A    
C16   C18   1.409516 A    
C44   H10   1.083373 S    
N10   O28   1.301370 A    
C43   H9    1.083369 S    
C14   C16   1.410989 A    
N8    O23   1.301343 A    
C19   C21   1.409797 A    
C3    C27   1.480575 S    
C20   C22   1.409790 A    
C9    C11   1.405487 A    
O4    Cu2   1.961929 S    
N6    O19   1.301348 A    
O2    Cu2   1.961922 S    
O7    C4    1.296923 A    
O8    C3    1.294703 A    
C12   N7    1.436144 S    
C13   C51   1.484118 S    
O5    Cu1   1.954539 S    
O1    Cu1   1.961922 S    
C41   C46   1.400696 A    
C16   N6    1.438166 S    
C26   C37   1.414951 A    
C48   H12   1.079581 S    
N9    O25   1.301313 A    
C47   H11   1.081742 S    
O16   H16   1.013639 S    
C49   H13   1.081753 S    
C23   C39   1.387398 A    
C42   C44   1.382342 A    
