data_mof_unit_27506.cif
_audit_creation_date              2012-12-11T15:33:48-0500
_audit_creation_method            fapswitch 2.2
_symmetry_space_group_name_H-M    P1
_symmetry_Int_Tables_number       1
_space_group_crystal_system       triclinic
_cell_length_a                    27.301928
_cell_length_b                    7.188915
_cell_length_c                    22.52406
_cell_angle_alpha                 90.000206
_cell_angle_beta                  101.202778
_cell_angle_gamma                 90.000029
_cell_volume                      4336.58961288

loop_
_atom_site_label
_atom_site_type_symbol
_atom_type_description
_atom_site_fract_x
_atom_site_fract_y
_atom_site_fract_z
_atom_type_partial_charge
O1    O     O_R   0.207310 0.594030 0.676830 -0.530842
O2    O     O_R   0.792690 0.405970 0.323170 -0.530578
O3    O     O_R   0.292690 0.094030 0.823170 -0.530841
O4    O     O_R   0.707310 0.905970 0.176830 -0.530578
O5    O     O_R   0.197320 0.262370 0.795700 -0.518405
O6    O     O_R   0.802680 0.737630 0.204300 -0.508683
O7    O     O_R   0.302680 0.762370 0.704300 -0.518412
O8    O     O_R   0.697320 0.237630 0.295700 -0.508682
C1    C     C_R   0.184028 0.432499 0.811031 0.686155
C2    C     C_R   0.815830 0.567718 0.188598 0.694428
C3    C     C_R   0.315972 0.932499 0.688970 0.686146
C4    C     C_R   0.684170 0.067718 0.311402 0.694431
O9    O     O_R   0.201410 0.264250 0.675590 -0.540819
O10   O     O_R   0.798590 0.735750 0.324410 -0.542809
O11   O     O_R   0.298590 0.764250 0.824410 -0.540823
O12   O     O_R   0.701410 0.235750 0.175590 -0.542807
O13   O     O_R   0.296810 0.094940 0.702210 -0.537913
O14   O     O_R   0.703190 0.905060 0.297790 -0.541536
O15   O     O_R   0.203190 0.594940 0.797790 -0.537917
O16   O     O_R   0.796810 0.405060 0.202210 -0.541536
C5    C     C_R   0.189272 0.432730 0.653583 0.674114
C6    C     C_R   0.810284 0.567109 0.346681 0.674661
C7    C     C_R   0.310728 0.932731 0.846417 0.674112
C8    C     C_R   0.689716 0.067109 0.153319 0.674660
O17   O     O_3   0.281300 0.427390 0.758870 -0.373645
O18   O     O_3   0.718700 0.572610 0.241130 -0.369910
O19   O     O_3   0.218700 0.927390 0.741130 -0.373644
O20   O     O_3   0.781300 0.072610 0.258870 -0.369912
V1    V     V_3+5 0.244190 0.152150 0.748350 1.426443
V2    V     V_3+5 0.755810 0.847850 0.251650 1.443439
V3    V     V_3+5 0.255810 0.652150 0.751650 1.426434
V4    V     V_3+5 0.744190 0.347850 0.248350 1.443442
C9    C     C_R   0.654982 0.058292 0.094431 -0.031453
C10   C     C_R   0.346134 0.938232 0.905031 -0.033998
C11   C     C_R   0.845018 0.558292 0.405569 -0.031452
C12   C     C_R   0.153866 0.438231 0.594969 -0.034002
C13   C     C_R   0.641652 0.069330 0.985301 -0.136844
C14   C     C_R   0.361827 0.884502 0.012924 -0.130029
C15   C     C_R   0.858348 0.569287 0.514699 -0.136833
C16   C     C_R   0.138176 0.384526 0.487074 -0.130021
C17   C     C_R   0.673695 0.076538 0.041422 -0.180636
C18   C     C_R   0.329006 0.891184 0.957417 -0.181337
C19   C     C_R   0.826305 0.576511 0.458578 -0.180634
C20   C     C_R   0.170996 0.391199 0.542582 -0.181344
C21   C     C_R   0.603549 0.030899 0.090969 -0.196492
C22   C     C_R   0.397127 0.977801 0.908502 -0.201779
C23   C     C_R   0.896452 0.530915 0.409030 -0.196494
C24   C     C_R   0.102872 0.477790 0.591498 -0.201759
C25   C     C_R   0.569859 0.020582 0.034046 0.056924
C26   C     C_R   0.432026 0.966966 0.964631 0.055522
C27   C     C_R   0.930141 0.520583 0.465953 0.056925
C28   C     C_R   0.067974 0.466962 0.535369 0.055522
C29   C     C_R   0.589908 0.043667 0.980858 0.051358
C30   C     C_R   0.413113 0.920862 0.017396 0.054236
C31   C     C_R   0.910092 0.543633 0.519142 0.051375
C32   C     C_R   0.086889 0.420881 0.482602 0.054235
C33   C     C_R   0.517235 0.987936 0.028226 -0.000538
C34   C     C_R   0.484860 0.996254 0.970027 0.003405
C35   C     C_R   0.982766 0.487945 0.471772 -0.000534
C36   C     C_R   0.015140 0.496237 0.529973 0.003415
C37   C     C_R   0.506716 0.024007 0.918838 -0.269783
C38   C     C_R   0.496520 0.938683 0.078600 -0.267338
C39   C     C_R   0.993282 0.523944 0.581163 -0.269780
C40   C     C_R   0.003483 0.438720 0.421396 -0.267346
C41   C     C_R   0.558313 0.042328 0.923713 0.378887
C42   C     C_R   0.445311 0.908408 0.074076 0.387297
C43   C     C_R   0.941685 0.542258 0.576288 0.378888
C44   C     C_R   0.054692 0.408444 0.425921 0.387300
H1    H     H_    0.484989 0.023540 0.873576 0.128813
H2    H     H_    0.519695 0.913344 0.122153 0.129239
H3    H     H_    0.015008 0.523431 0.626425 0.128782
H4    H     H_    0.980308 0.413399 0.377841 0.129233
C45   C     C_R   0.635767 0.887501 0.376345 -0.230241
C46   C     C_R   0.363199 0.109452 0.622318 -0.200228
C47   C     C_R   0.864235 0.387499 0.123657 -0.230245
C48   C     C_R   0.136799 0.609462 0.877679 -0.200242
H5    H     H_    0.657004 0.764347 0.370035 0.179064
H6    H     H_    0.339072 0.228001 0.624207 0.167246
H7    H     H_    0.842999 0.264343 0.129969 0.179068
H8    H     H_    0.160922 0.728020 0.875784 0.167264
C49   C     C_R   0.600405 0.873299 0.413464 -0.151250
C50   C     C_R   0.399761 0.124285 0.586901 -0.135122
C51   C     C_R   0.899597 0.373298 0.086538 -0.151257
C52   C     C_R   0.100237 0.624294 0.913098 -0.135133
H9    H     H_    0.595278 0.739855 0.433710 0.158431
H10   H     H_    0.402709 0.253695 0.563245 0.157498
H11   H     H_    0.904726 0.239852 0.066294 0.158431
H12   H     H_    0.097287 0.753713 0.936748 0.157499
C53   C     C_R   0.572683 0.028990 0.425034 -0.040252
C54   C     C_R   0.431230 0.973735 0.580991 -0.050875
C55   C     C_R   0.927317 0.528992 0.074968 -0.040247
C56   C     C_R   0.068775 0.473733 0.919016 -0.050869
C57   C     C_R   0.580424 0.198637 0.397124 -0.225782
C58   C     C_R   0.426075 0.809171 0.613074 -0.203935
C59   C     C_R   0.919575 0.698641 0.102876 -0.225780
C60   C     C_R   0.073935 0.309158 0.886940 -0.203951
C61   C     C_R   0.614682 0.213327 0.357743 0.432396
C62   C     C_R   0.390421 0.794224 0.650340 0.420573
C63   C     C_R   0.885317 0.713330 0.142257 0.432395
C64   C     C_R   0.109587 0.294211 0.849672 0.420578
C65   C     C_R   0.644354 0.057357 0.348794 -0.135688
C66   C     C_R   0.356978 0.944034 0.653579 -0.155748
C67   C     C_R   0.855646 0.557357 0.151207 -0.135687
C68   C     C_R   0.143024 0.444034 0.846424 -0.155751
N1    N     N_R   0.507527 0.162956 0.475311 -0.283644
N2    N     N_R   0.497080 0.839747 0.531627 -0.284419
N3    N     N_R   0.992471 0.662962 0.024688 -0.283644
N4    N     N_R   0.002927 0.339740 0.968383 -0.284421
N5    N     N_R   0.474630 0.150030 0.511825 -0.287942
N6    N     N_R   0.529960 0.852630 0.495043 -0.289277
N7    N     N_R   0.025370 0.650036 0.988176 -0.287944
N8    N     N_R   0.970046 0.352624 0.004965 -0.289279
C69   C     C_R   0.468628 0.988216 0.540865 0.537238
C70   C     C_R   0.535939 0.014526 0.466002 0.535589
C71   C     C_R   0.031376 0.488215 0.959141 0.537236
C72   C     C_R   0.964063 0.514527 0.034001 0.535588
O21   O     O_3   0.578614 0.040419 0.871939 -0.573518
C73   C     C_3   0.570780 0.214461 0.842728 0.048898
H13   H     H_    0.580656 0.331350 0.875506 0.121297
H14   H     H_    0.531123 0.227156 0.819298 0.136880
C74   C     C_3   0.604077 0.227153 0.795629 -0.280935
H15   H     H_    0.643783 0.212092 0.818552 0.196100
H16   H     H_    0.594754 0.111911 0.762442 0.206693
C75   C     C_3   0.597516 0.412429 0.761967 -0.817368
H17   H     H_    0.558671 0.426558 0.736313 0.234982
H18   H     H_    0.623265 0.418509 0.729451 0.237603
H19   H     H_    0.606232 0.530112 0.794253 0.239148
O22   O     O_3   0.426955 0.843092 0.123600 -0.576727
C76   C     C_3   0.438055 0.965592 0.173745 0.072547
H20   H     H_    0.402044 0.009942 0.185254 0.142731
H21   H     H_    0.457918 0.095577 0.165160 0.110931
C77   C     C_3   0.468465 0.861945 0.228014 -0.306822
H22   H     H_    0.448417 0.732903 0.236390 0.209593
H23   H     H_    0.505318 0.821791 0.218157 0.178901
C78   C     C_3   0.476831 0.981389 0.285044 -0.821876
H24   H     H_    0.497920 0.109114 0.278342 0.229357
H25   H     H_    0.498655 0.901002 0.323276 0.239448
H26   H     H_    0.440539 0.020999 0.296729 0.238819
O23   O     O_3   0.921381 0.540258 0.628059 -0.573518
C79   C     C_3   0.929222 0.714241 0.657308 0.048876
H27   H     H_    0.919320 0.831183 0.624559 0.121315
H28   H     H_    0.968885 0.726940 0.680711 0.136856
C80   C     C_3   0.895956 0.726775 0.704444 -0.280904
H29   H     H_    0.856241 0.711744 0.681548 0.196100
H30   H     H_    0.905301 0.611447 0.737593 0.206697
C81   C     C_3   0.902534 0.911955 0.738162 -0.817390
H31   H     H_    0.941391 0.926065 0.763784 0.234969
H32   H     H_    0.876813 0.917899 0.770712 0.237616
H33   H     H_    0.893789 0.029726 0.705918 0.239125
O24   O     O_3   0.073051 0.343148 0.376395 -0.576732
C82   C     C_3   0.061945 0.465626 0.326248 0.072571
H34   H     H_    0.097953 0.509974 0.314730 0.142739
H35   H     H_    0.042082 0.595613 0.334833 0.110929
C83   C     C_3   0.031534 0.361954 0.271986 -0.306848
H36   H     H_    0.051583 0.232919 0.263608 0.209600
H37   H     H_    0.994685 0.321789 0.281852 0.178917
C84   C     C_3   0.023158 0.481377 0.214954 -0.821928
H38   H     H_    0.002065 0.609086 0.221658 0.229369
H39   H     H_    0.001335 0.400970 0.176727 0.239457
H40   H     H_    0.059445 0.521004 0.203262 0.238829
H41   H     H_    0.408186 0.014380 0.866627 0.085775
H42   H     H_    0.591099 0.022560 0.133448 0.088735
H43   H     H_    0.091812 0.514361 0.633374 0.085772
H44   H     H_    0.908902 0.522595 0.366550 0.088735
H45   H     H_    0.289925 0.858974 0.955294 0.112167
H46   H     H_    0.713307 0.097337 0.043521 0.114289
H47   H     H_    0.210078 0.358996 0.544705 0.112164
H48   H     H_    0.786692 0.597298 0.456480 0.114290
H49   H     H_    0.657645 0.086247 0.945233 0.153734
H50   H     H_    0.346732 0.848664 0.052488 0.158238
H51   H     H_    0.842353 0.586181 0.554769 0.153737
H52   H     H_    0.153272 0.348703 0.447509 0.158240
H53   H     H_    0.560135 0.321542 0.406144 0.147071
H54   H     H_    0.449932 0.690868 0.609636 0.155727
H55   H     H_    0.939863 0.821547 0.093854 0.147072
H56   H     H_    0.050082 0.190846 0.890385 0.155723
O25   O     O_3   0.622482 0.384304 0.332575 -0.570415
C85   C     C_3   0.580166 0.437918 0.288903 0.066660
H57   H     H_    0.582814 0.590386 0.282048 0.148031
H58   H     H_    0.544240 0.414615 0.304180 0.103085
C86   C     C_3   0.579585 0.340615 0.228085 -0.336915
H59   H     H_    0.615794 0.363960 0.213770 0.223270
H60   H     H_    0.574408 0.188494 0.233080 0.164691
C87   C     C_3   0.537624 0.414668 0.178914 -0.822146
H61   H     H_    0.501055 0.401010 0.193140 0.230012
H62   H     H_    0.536308 0.334196 0.136559 0.238894
H63   H     H_    0.544313 0.563215 0.169559 0.231927
O26   O     O_3   0.386769 0.626297 0.679332 -0.574335
C88   C     C_3   0.406140 0.643378 0.742193 0.134863
H64   H     H_    0.386441 0.540020 0.765793 0.158151
H65   H     H_    0.399259 0.782242 0.761124 0.065723
C89   C     C_3   0.462027 0.600210 0.756630 -0.365265
H66   H     H_    0.469128 0.466027 0.735310 0.204127
H67   H     H_    0.482704 0.712083 0.737940 0.198717
C90   C     C_3   0.480948 0.587317 0.824895 -0.817750
H68   H     H_    0.468179 0.708595 0.848146 0.239406
H69   H     H_    0.522342 0.585355 0.834938 0.242739
H70   H     H_    0.466775 0.458456 0.842936 0.220959
O27   O     O_3   0.877517 0.884308 0.167424 -0.570415
C91   C     C_3   0.919832 0.937925 0.211096 0.066645
H71   H     H_    0.917187 0.090396 0.217948 0.148037
H72   H     H_    0.955759 0.914608 0.195822 0.103086
C92   C     C_3   0.920410 0.840638 0.271915 -0.336900
H73   H     H_    0.884200 0.863987 0.286226 0.223278
H74   H     H_    0.925588 0.688517 0.266924 0.164682
C93   C     C_3   0.962369 0.914703 0.321087 -0.822150
H75   H     H_    0.998939 0.901049 0.306864 0.230010
H76   H     H_    0.963684 0.834237 0.363443 0.238896
H77   H     H_    0.955677 0.063252 0.330440 0.231922
O28   O     O_3   0.113241 0.126279 0.820683 -0.574339
C94   C     C_3   0.093855 0.143333 0.757826 0.134854
H78   H     H_    0.113552 0.039973 0.734223 0.158142
H79   H     H_    0.100726 0.282201 0.738886 0.065726
C95   C     C_3   0.037968 0.100128 0.743411 -0.365253
H80   H     H_    0.030880 0.965940 0.764740 0.204122
H81   H     H_    0.017289 0.211993 0.762104 0.198715
C96   C     C_3   0.019031 0.087211 0.675152 -0.817715
H82   H     H_    0.031775 0.208521 0.651893 0.239412
H83   H     H_    0.977636 0.085171 0.665129 0.242730
H84   H     H_    0.033215 0.958374 0.657106 0.220952

loop_
_geom_bond_atom_site_label_1
_geom_bond_atom_site_label_2
_ccdc_geom_bond_type
C48   C68   A    
C78   H26   S    
C51   H11   S    
C92   H73   S    
O1    C5    A    
C84   H38   S    
O19   V1    S    
C9    C21   A    
O12   C8    A    
O3    C7    A    
C10   C18   A    
C79   C80   S    
C64   C68   A    
C40   H4    S    
O15   V3    S    
O22   C76   S    
C48   C52   A    
C73   H14   S    
C85   H57   S    
C25   C33   A    
C78   H24   S    
C24   H43   S    
C19   H48   S    
C87   H61   S    
C96   H84   S    
O7    C3    A    
C6    C11   S    
C92   H74   S    
C35   C40   A    
C26   C30   A    
C36   C39   A    
C40   C44   A    
N4    C71   A    
O9    V1    S    
C2    C67   S    
C79   H28   S    
C14   C18   A    
C1    C68   S    
C13   H49   S    
O4    C8    A    
C59   C63   A    
C85   H58   S    
C82   C83   S    
C58   C62   A    
C80   H29   S    
C80   H30   S    
O1    V3    S    
O13   V1    S    
C55   C72   S    
C38   H2    S    
O2    V4    S    
C54   C69   S    
C64   O28   S    
O3    V1    S    
C59   H55   S    
C73   H13   S    
C74   C75   S    
C62   O26   S    
C28   C36   A    
N2    N6    A    
C13   C17   A    
O27   C91   S    
C1    O15   A    
C15   C31   A    
C2    O16   A    
C77   H22   S    
C16   C32   A    
C22   H41   S    
O2    C6    A    
C15   H51   S    
C82   H34   S    
C14   H50   S    
C10   C22   A    
C11   C19   A    
N6    C70   A    
C16   C20   A    
C83   H37   S    
C18   H45   S    
N5    C69   A    
C46   C66   A    
C76   C77   S    
C49   C53   A    
C34   C37   A    
O11   C7    A    
C11   C23   A    
C35   C36   A    
C84   H39   S    
C47   C67   A    
C88   H64   S    
C46   C50   A    
C45   C49   A    
C54   C58   A    
C81   H32   S    
C86   H60   S    
C56   C60   A    
C92   C93   S    
C39   C43   A    
O7    V3    S    
C38   C42   A    
N2    C69   A    
C13   C29   A    
C26   C34   A    
C89   C90   S    
C52   H12   S    
N1    C70   A    
C33   C38   A    
C79   H27   S    
C83   C84   S    
C63   C67   A    
C80   C81   S    
C5    C12   S    
C95   H80   S    
C91   H71   S    
C15   C19   A    
C27   C31   A    
C96   H82   S    
C86   H59   S    
O4    V2    S    
N4    N8    A    
O26   C88   S    
C73   C74   S    
O8    V4    S    
C88   C89   S    
C21   H42   S    
O5    C1    A    
C62   C66   A    
C81   H33   S    
C61   O25   S    
C94   H78   S    
C14   C30   A    
C21   C25   A    
O8    C4    A    
C7    C10   S    
C17   H46   S    
C16   H52   S    
C74   H15   S    
O9    C5    A    
C76   H21   S    
C83   H36   S    
C58   H54   S    
C75   H19   S    
O14   V2    S    
C23   H44   S    
C91   H72   S    
O6    V2    S    
C39   H3    S    
O28   C94   S    
C84   H40   S    
C12   C20   A    
C27   C35   A    
C4    O14   A    
O5    V1    S    
C57   C61   A    
N8    C72   A    
C43   O23   S    
C75   H18   S    
C81   H31   S    
O16   V4    S    
C86   C87   S    
C37   H1    S    
C78   H25   S    
N1    N5    A    
C53   C70   S    
C3    O13   A    
C45   H5    S    
C45   C65   A    
C60   H56   S    
C94   H79   S    
C93   H75   S    
N3    N7    A    
O17   V3    S    
C48   H8    S    
C95   C96   S    
O6    C2    A    
C23   C27   A    
O23   C79   S    
O11   V3    S    
O18   V4    S    
O12   V4    S    
C51   C55   A    
C22   C26   A    
C4    C65   S    
C8    C9    S    
C50   C54   A    
C87   H63   S    
C9    C17   A    
C89   H66   S    
O10   C6    A    
O20   V2    S    
C76   H20   S    
O10   V2    S    
C31   C43   A    
C87   H62   S    
C50   H10   S    
O21   C73   S    
C93   H77   S    
C47   C51   A    
C33   C34   A    
C29   C41   A    
C91   C92   S    
C25   C29   A    
C60   C64   A    
C57   H53   S    
C77   C78   S    
C32   C44   A    
C42   O22   S    
C12   C24   A    
C3    C66   S    
C95   H81   S    
C82   H35   S    
C53   C57   A    
C96   H83   S    
C56   C71   S    
C61   C65   A    
N3    C72   A    
C74   H16   S    
C85   C86   S    
C44   O24   S    
C55   C59   A    
C90   H68   S    
C90   H70   S    
C37   C41   A    
C24   C28   A    
C94   C95   S    
C77   H23   S    
O25   C85   S    
C46   H6    S    
C63   O27   S    
C41   O21   S    
O24   C82   S    
N7    C71   A    
C52   C56   A    
C88   H65   S    
C30   C42   A    
C93   H76   S    
C47   H7    S    
C20   H47   S    
C49   H9    S    
C28   C32   A    
C89   H67   S    
C75   H17   S    
C90   H69   S    
