data_mof_unit_24487.cif
_audit_creation_date              2012-12-10T19:27:35-0500
_audit_creation_method            fapswitch 2.2
_symmetry_space_group_name_H-M    P1
_symmetry_Int_Tables_number       1
_space_group_crystal_system       triclinic
_cell_length_a                    23.308145
_cell_length_b                    10.499003
_cell_length_c                    9.742469
_cell_angle_alpha                 90.247465
_cell_angle_beta                  90.320348
_cell_angle_gamma                 89.382042
_cell_volume                      2383.90429556

loop_
_atom_site_label
_atom_site_type_symbol
_atom_type_description
_atom_site_fract_x
_atom_site_fract_y
_atom_site_fract_z
_atom_type_partial_charge
C1    C     C_R   0.500869 0.257629 0.499679 0.858363
C2    C     C_R   0.704907 0.554153 0.412930 -0.270525
C3    C     C_R   0.245737 0.387193 0.613190 -0.093126
C4    C     C_R   0.764309 0.543363 0.413109 -0.096576
C5    C     C_R   0.209511 0.434863 0.511078 0.281274
C6    C     C_R   0.791430 0.457537 0.501820 0.284147
C7    C     C_3   0.543810 0.040887 0.581024 -0.229035
C8    C     C_3   0.456935 0.959490 0.419380 -0.229671
C9    C     C_3   0.550116 0.956233 0.452461 0.220189
C10   C     C_3   0.450633 0.044056 0.547959 0.220731
C11   C     C_3   0.499702 0.877398 0.501134 -0.060686
C12   C     C_R   0.499463 0.742450 0.500367 0.871571
C13   C     C_3   0.501026 0.122806 0.499172 -0.056671
C14   C     C_3   0.492818 0.960091 0.630424 -0.186069
C15   C     C_3   0.507936 0.040185 0.369986 -0.188682
C16   C     C_R   0.389226 0.498636 0.499443 0.867711
C17   C     C_R   0.610476 0.495748 0.500468 0.854742
C18   C     C_3   0.463684 0.418890 0.047864 -0.078506
C19   C     C_3   0.536301 0.581114 0.952161 -0.074609
C20   C     C_3   0.513791 0.388854 0.950999 -0.077067
C21   C     C_3   0.486185 0.611140 0.049017 -0.075298
C22   C     C_3   0.449837 0.530050 0.950963 -0.081164
C23   C     C_R   0.231616 0.504901 0.402187 -0.146183
C24   C     C_3   0.550144 0.469937 0.049062 -0.082775
C25   C     C_R   0.880803 0.506773 0.611844 0.509718
C26   C     C_R   0.120359 0.354116 0.422027 0.505652
C27   C     C_R   0.880272 0.380500 0.406791 0.508059
C28   C     C_R   0.120655 0.482879 0.625256 0.510323
C29   C     C_R   0.940047 0.368833 0.410872 -0.016954
C30   C     C_R   0.060772 0.484474 0.628055 -0.016246
C31   C     C_R   0.970298 0.428981 0.518261 -0.021395
C32   C     C_R   0.030522 0.421795 0.522487 -0.021631
C33   C     C_R   0.940521 0.498056 0.620245 -0.017685
C34   C     C_R   0.759573 0.380865 0.588753 -0.129587
C35   C     C_R   0.060399 0.354280 0.419530 -0.016136
C36   C     C_R   0.970134 0.299524 0.310356 -0.158958
C37   C     C_R   0.030639 0.550784 0.730767 -0.157998
C38   C     C_R   0.029819 0.292113 0.314790 -0.158355
C39   C     C_R   0.970992 0.557415 0.726964 -0.157860
C40   C     C_3   0.310943 0.608952 0.274515 -0.388168
C41   C     C_3   0.329923 0.740778 0.321591 -0.859005
C42   C     C_3   0.667524 0.297297 0.678855 -0.427455
C43   C     C_3   0.666853 0.341996 0.828097 -0.796003
C44   C     C_3   0.606570 0.900577 0.398764 -0.431901
C45   C     C_R   0.290337 0.529485 0.393952 0.133981
C46   C     C_3   0.648313 0.005555 0.361203 -0.840951
C47   C     C_3   0.394429 0.100934 0.601829 -0.428452
C48   C     C_3   0.352585 0.997169 0.642064 -0.843263
C49   C     C_R   0.699839 0.389449 0.589315 0.139183
C50   C     C_R   0.326996 0.482093 0.499589 -0.061950
C51   C     C_R   0.672450 0.479369 0.501815 -0.068945
C52   C     C_R   0.303966 0.411138 0.607880 -0.279648
H1    H     H_    0.947742 0.251925 0.227366 0.192092
H2    H     H_    0.781663 0.313628 0.655224 0.142570
H3    H     H_    0.331253 0.372446 0.688267 0.165596
H4    H     H_    0.684236 0.622367 0.345092 0.158191
H5    H     H_    0.228565 0.332984 0.697595 0.154403
H6    H     H_    0.789355 0.602527 0.345776 0.147819
H7    H     H_    0.486240 0.923983 0.736074 0.148188
H8    H     H_    0.514520 0.076296 0.264337 0.148491
H9    H     H_    0.407609 0.555403 0.904768 0.128737
H10   H     H_    0.592349 0.444520 0.095332 0.133213
H11   H     H_    0.365971 0.733975 0.395977 0.249649
H12   H     H_    0.053023 0.599188 0.813225 0.192192
H13   H     H_    0.344260 0.796187 0.231475 0.242545
H14   H     H_    0.293505 0.792389 0.370527 0.264096
H15   H     H_    0.345749 0.559273 0.217849 0.225292
H16   H     H_    0.275946 0.622850 0.197802 0.206208
H17   H     H_    0.711244 0.345814 0.869851 0.264000
H18   H     H_    0.646724 0.437996 0.836471 0.269528
H19   H     H_    0.641819 0.274369 0.890663 0.227785
H20   H     H_    0.622969 0.283676 0.641965 0.209645
H21   H     H_    0.688320 0.201608 0.673351 0.194822
H22   H     H_    0.629604 0.067212 0.279724 0.255676
H23   H     H_    0.525434 0.295348 0.904699 0.123440
H24   H     H_    0.658417 0.064827 0.452703 0.252509
H25   H     H_    0.688778 0.962179 0.322468 0.259260
H26   H     H_    0.626261 0.838961 0.479016 0.203351
H27   H     H_    0.597733 0.841128 0.306598 0.212436
H28   H     H_    0.341927 0.937099 0.551669 0.261262
H29   H     H_    0.371473 0.936253 0.723949 0.254922
H30   H     H_    0.312420 0.041685 0.681152 0.257398
H31   H     H_    0.403679 0.161550 0.692864 0.210470
H32   H     H_    0.374596 0.161603 0.520944 0.207140
H33   H     H_    0.579197 0.076880 0.646594 0.138199
H34   H     H_    0.474459 0.704603 0.095318 0.123216
H35   H     H_    0.421690 0.923967 0.353309 0.147705
H36   H     H_    0.433138 0.350764 0.093422 0.119259
H37   H     H_    0.566857 0.649229 0.906632 0.121445
H38   H     H_    0.051895 0.239351 0.234819 0.192342
H39   H     H_    0.948938 0.610390 0.806813 0.192571
H40   H     H_    0.202267 0.542685 0.325489 0.144210
N1    N     N_R   0.852316 0.449022 0.506001 -0.354721
N2    N     N_R   0.148962 0.420282 0.521942 -0.351518
N3    N     N_3   0.499960 0.500030 0.863290 -0.069786
N4    N     N_3   0.500040 0.499970 0.136710 -0.070603
O1    O     O_R   0.500000 0.313960 0.616610 -0.632369
O2    O     O_2   0.149992 0.290173 0.324524 -0.561793
O3    O     O_2   0.850192 0.323780 0.305208 -0.558267
O4    O     O_2   0.150437 0.546503 0.722491 -0.561544
O5    O     O_R   0.500000 0.686040 0.383390 -0.625614
O6    O     O_R   0.500030 0.313950 0.383350 -0.619946
O7    O     O_R   0.499970 0.686050 0.616650 -0.618838
O8    O     O_R   0.416140 0.499970 0.616650 -0.621278
O9    O     O_R   0.583860 0.500030 0.383350 -0.619697
O10   O     O_R   0.416170 0.499960 0.383400 -0.615939
O11   O     O_R   0.583830 0.500040 0.616600 -0.608146
O12   O     O_2   0.851270 0.572816 0.707952 -0.555810
Zn1   Zn    Zn3+2 0.499980 0.500010 0.655740 0.931536
Zn2   Zn    Zn3+2 0.500020 0.499990 0.344260 0.932006

loop_
_geom_bond_atom_site_label_1
_geom_bond_atom_site_label_2
_ccdc_geom_bond_type
C26   N2    A    
O9    Zn2   S    
C25   N1    A    
C23   C45   A    
C27   C29   A    
C18   N4    S    
C22   N3    S    
C17   C51   S    
C46   H24   S    
C5    N2    S    
C14   H7    S    
C29   C36   A    
C27   O3    S    
C33   C39   A    
C19   C21   S    
C16   C50   S    
C17   O11   A    
O8    Zn1   S    
C11   C14   S    
C48   H29   S    
C28   N2    A    
C15   H8    S    
C36   H1    S    
C16   O8    A    
C7    C14   S    
C31   C32   A    
C28   C30   A    
C49   C51   A    
C40   H15   S    
C50   C52   A    
C31   C33   A    
C47   H31   S    
C52   H3    S    
C16   O10   A    
C28   O4    S    
C43   H17   S    
C21   C22   S    
O11   Zn1   S    
C39   H39   S    
C44   C46   S    
C40   C45   S    
C32   C35   A    
C20   C24   S    
C35   C38   A    
C43   H19   S    
C12   O7    A    
C4    C6    A    
N3    Zn1   S    
C1    O1    A    
C41   H13   S    
O5    Zn2   S    
N4    Zn2   S    
C18   H36   S    
C6    C34   A    
C30   C37   A    
C2    C4    A    
C19   H37   S    
C17   O9    A    
O1    Zn1   S    
C47   C48   S    
C5    C23   A    
C3    C52   A    
C6    N1    S    
C24   N4    S    
C42   H20   S    
C47   H32   S    
C9    C11   S    
C26   O2    S    
C3    H5    S    
C8    C10   S    
C40   C41   S    
C20   N3    S    
C34   H2    S    
C8    C15   S    
C13   C15   S    
C10   C14   S    
C27   N1    A    
C1    C13   S    
C42   C43   S    
C41   H11   S    
C46   H22   S    
C37   H12   S    
C19   N3    S    
O10   Zn2   S    
C7    C9    S    
C21   H34   S    
C9    C44   S    
C24   H10   S    
C18   C22   S    
C44   H27   S    
C3    C5    A    
C10   C13   S    
C46   H25   S    
C11   C12   S    
C41   H14   S    
C21   N4    S    
C43   H18   S    
C38   H38   S    
O7    Zn1   S    
C8    H35   S    
C48   H28   S    
C36   C38   A    
C19   C24   S    
C9    C15   S    
C12   O5    A    
C29   C31   A    
C2    H4    S    
C22   H9    S    
C30   C32   A    
C7    H33   S    
C45   C50   A    
C8    C11   S    
C44   H26   S    
C42   H21   S    
C48   H30   S    
C18   C20   S    
O6    Zn2   S    
C2    C51   A    
C42   C49   S    
C26   C35   A    
C7    C13   S    
C20   H23   S    
C34   C49   A    
C37   C39   A    
C40   H16   S    
C4    H6    S    
C10   C47   S    
C23   H40   S    
C1    O6    A    
C25   O12   S    
C25   C33   A    
