data_mof_unit_44820.cif
_audit_creation_date              2013-03-05T15:51:27-0500
_audit_creation_method            fapswitch 2.2
_symmetry_space_group_name_H-M    P1
_symmetry_Int_Tables_number       1
_space_group_crystal_system       triclinic
_cell_length_a                    19.413017
_cell_length_b                    11.259729
_cell_length_c                    18.602134
_cell_angle_alpha                 89.889716
_cell_angle_beta                  90.852298
_cell_angle_gamma                 89.261717
_cell_volume                      4065.35674053

loop_
_atom_site_label
_atom_site_type_symbol
_atom_site_description
_atom_site_fract_x
_atom_site_fract_y
_atom_site_fract_z
_atom_type_partial_charge
O1    O     O_R   0.957020 0.451640 0.669920 -0.439827
O2    O     O_R   0.042980 0.451640 0.330080 -0.523658
O3    O     O_R   0.457020 0.951640 0.669920 -0.476408
O4    O     O_R   0.542980 0.951640 0.330080 -0.471273
O5    O     O_R   0.821450 0.543440 0.674610 -0.474699
O6    O     O_R   0.178550 0.543440 0.325390 -0.453488
O7    O     O_R   0.321450 0.043440 0.674610 -0.440172
O8    O     O_R   0.678550 0.043440 0.325390 -0.447905
C1    C     C_R   0.757558 0.538990 0.648995 0.515029
C2    C     C_R   0.225954 0.480900 0.361674 0.554904
C3    C     C_R   0.275170 0.981160 0.638537 0.553383
C4    C     C_R   0.741195 0.037442 0.351146 0.541652
O9    O     O_R   0.715320 0.458650 0.668100 -0.539782
O10   O     O_R   0.284680 0.458650 0.331900 -0.527080
O11   O     O_R   0.215320 0.958650 0.668100 -0.525449
O12   O     O_R   0.784680 0.958650 0.331900 -0.556943
O13   O     O_R   0.737170 0.209590 0.674530 -0.509068
O14   O     O_R   0.262830 0.209590 0.325470 -0.542384
O15   O     O_R   0.237170 0.709590 0.674530 -0.533367
O16   O     O_R   0.762830 0.709590 0.325470 -0.536778
C5    C     C_R   0.792567 0.170805 0.638667 0.550072
C6    C     C_R   0.228659 0.121221 0.351313 0.545032
C7    C     C_R   0.271868 0.621045 0.648747 0.574383
C8    C     C_R   0.705806 0.672615 0.360909 0.542025
O17   O     O_R   0.832710 0.092740 0.669580 -0.445928
O18   O     O_R   0.167290 0.092740 0.330420 -0.454764
O19   O     O_R   0.332710 0.592740 0.669580 -0.473728
O20   O     O_R   0.667290 0.592740 0.330420 -0.453192
O21   O     O_R   0.946290 0.250060 0.676040 -0.470714
O22   O     O_R   0.053710 0.250060 0.323960 -0.535847
O23   O     O_R   0.446290 0.750060 0.676040 -0.532116
O24   O     O_R   0.553710 0.750060 0.323960 -0.488336
C9    C     C_R   0.969101 0.350392 0.646360 0.552589
C10   C     C_R   0.028995 0.344960 0.352630 0.549313
C11   C     C_R   0.471761 0.843386 0.648711 0.574670
C12   C     C_R   0.554716 0.852658 0.361460 0.531302
O25   O     O_R   0.956270 0.452200 0.830470 -0.480492
O26   O     O_R   0.043730 0.452200 0.169530 -0.512857
O27   O     O_R   0.456270 0.952200 0.830470 -0.465209
O28   O     O_R   0.543730 0.952200 0.169530 -0.498521
O29   O     O_R   0.820760 0.543950 0.823440 -0.497532
O30   O     O_R   0.179240 0.543950 0.176560 -0.476635
O31   O     O_R   0.320760 0.043950 0.823440 -0.483840
O32   O     O_R   0.679240 0.043950 0.176560 -0.491817
C13   C     C_R   0.762254 0.527142 0.853400 0.567571
C14   C     C_R   0.239699 0.530135 0.147213 0.593023
C15   C     C_R   0.262209 0.027243 0.853353 0.593136
C16   C     C_R   0.739694 0.030096 0.147202 0.572410
O33   O     O_R   0.714570 0.459210 0.828640 -0.455698
O34   O     O_R   0.285430 0.459210 0.171360 -0.457337
O35   O     O_R   0.214570 0.959210 0.828640 -0.451416
O36   O     O_R   0.785430 0.959210 0.171360 -0.462113
O37   O     O_R   0.736470 0.210100 0.823360 -0.447642
O38   O     O_R   0.263530 0.210100 0.176640 -0.431152
O39   O     O_R   0.236470 0.710100 0.823360 -0.458864
O40   O     O_R   0.763530 0.710100 0.176640 -0.437025
C17   C     C_R   0.771767 0.122023 0.850540 0.573548
C18   C     C_R   0.228597 0.121971 0.149837 0.581247
C19   C     C_R   0.271774 0.622049 0.850554 0.584854
C20   C     C_R   0.728652 0.621878 0.149901 0.572425
O41   O     O_R   0.831960 0.093290 0.830130 -0.485690
O42   O     O_R   0.168040 0.093290 0.169870 -0.459379
O43   O     O_R   0.331960 0.593290 0.830130 -0.473335
O44   O     O_R   0.668040 0.593290 0.169870 -0.465586
O45   O     O_R   0.945600 0.250580 0.824860 -0.433531
O46   O     O_R   0.054400 0.250580 0.175140 -0.427509
O47   O     O_R   0.445600 0.750580 0.824860 -0.431939
O48   O     O_R   0.554400 0.750580 0.175140 -0.429195
C21   C     C_R   0.935521 0.352385 0.859781 0.553586
C22   C     C_R   0.024204 0.349180 0.150955 0.561795
C23   C     C_R   0.435560 0.852395 0.859791 0.551961
C24   C     C_R   0.524243 0.849173 0.150917 0.563832
Cr1   Cr    Cr6+3 0.885860 0.491680 0.749630 1.098927
Cr2   Cr    Cr6+3 0.114140 0.491680 0.250370 1.098602
Cr3   Cr    Cr6+3 0.385860 0.991680 0.749630 1.143778
Cr4   Cr    Cr6+3 0.614140 0.991680 0.250370 1.107360
Cr5   Cr    Cr6+3 0.730490 0.332970 0.748720 1.090348
Cr6   Cr    Cr6+3 0.269510 0.332970 0.251280 1.092032
Cr7   Cr    Cr6+3 0.230490 0.832970 0.748720 1.072998
Cr8   Cr    Cr6+3 0.769510 0.832970 0.251280 1.058804
Cr9   Cr    Cr6+3 0.887570 0.179310 0.750150 1.147782
Cr10  Cr    Cr6+3 0.112430 0.179310 0.249850 1.129829
Cr11  Cr    Cr6+3 0.387570 0.679310 0.750150 1.123826
Cr12  Cr    Cr6+3 0.612430 0.679310 0.249850 1.146208
O49   O     O_3   0.834640 0.334650 0.749500 -0.362786
O50   O     O_3   0.165360 0.334650 0.250500 -0.327120
O51   O     O_3   0.334640 0.834650 0.749500 -0.370864
O52   O     O_3   0.665360 0.834650 0.250500 -0.333377
C25   C     C_R   0.764347 0.109989 0.412235 -0.019840
C26   C     C_R   0.272244 0.003457 0.561057 -0.031420
C27   C     C_R   0.234777 0.507846 0.437301 -0.025196
C28   C     C_R   0.729058 0.618404 0.589990 -0.051282
C29   C     C_R   0.720556 0.185568 0.448858 0.044213
C30   C     C_R   0.313888 0.088884 0.530239 0.094964
C31   C     C_R   0.202933 0.607610 0.464265 0.092853
C32   C     C_R   0.764650 0.706262 0.554636 -0.030548
C33   C     C_R   0.734513 0.210137 0.521701 -0.044160
C34   C     C_R   0.304108 0.121291 0.458327 -0.034189
C35   C     C_R   0.209616 0.636512 0.536330 -0.040633
C36   C     C_R   0.749607 0.734901 0.482693 -0.046236
C37   C     C_R   0.839118 0.091929 0.518247 0.180626
C38   C     C_R   0.226260 0.958333 0.441786 0.187764
C39   C     C_R   0.274914 0.456653 0.558521 0.168023
C40   C     C_R   0.651879 0.605900 0.484291 0.180747
C41   C     C_R   0.828010 0.080906 0.444192 -0.146019
C42   C     C_R   0.231183 0.933995 0.515557 -0.189342
C43   C     C_R   0.270808 0.430669 0.484594 -0.194751
C44   C     C_R   0.664258 0.593407 0.559425 -0.153031
C45   C     C_3   0.713510 0.315387 0.432808 -0.238262
C46   C     C_3   0.390066 0.077476 0.521644 -0.223141
C47   C     C_3   0.127668 0.622651 0.463841 -0.232620
C48   C     C_3   0.838593 0.714125 0.544364 -0.209258
C49   C     C_3   0.727375 0.339633 0.511050 -0.266313
C50   C     C_3   0.379556 0.119568 0.445600 -0.279535
C51   C     C_3   0.134311 0.651133 0.542013 -0.295905
C52   C     C_3   0.822974 0.747903 0.467095 -0.248577
C53   C     C_R   0.788744 0.155438 0.559604 -0.019595
C54   C     C_R   0.256679 0.061550 0.415145 0.014156
C55   C     C_R   0.247578 0.565436 0.583057 0.009934
C56   C     C_R   0.701532 0.671100 0.442187 -0.022322
H1    H     H_    0.866612 0.035171 0.412785 0.175591
H2    H     H_    0.203963 0.861239 0.537630 0.130920
H3    H     H_    0.293951 0.350318 0.464315 0.148796
H4    H     H_    0.628132 0.543704 0.590990 0.183035
H5    H     H_    0.101021 0.537749 0.453182 0.136096
H6    H     H_    0.859849 0.623259 0.549489 0.187256
H7    H     H_    0.660625 0.339495 0.414562 0.204517
H8    H     H_    0.407829 0.983475 0.524827 0.119106
H9    H     H_    0.754626 0.348867 0.397254 0.163458
H10   H     H_    0.420598 0.139044 0.555390 0.208404
H11   H     H_    0.109614 0.697999 0.430271 0.211588
H12   H     H_    0.861871 0.784666 0.578013 0.225161
H13   H     H_    0.776084 0.388228 0.521299 0.131615
H14   H     H_    0.397364 0.211425 0.436523 0.136789
H15   H     H_    0.118412 0.743257 0.554774 0.117926
H16   H     H_    0.834513 0.839872 0.451819 0.200766
H17   H     H_    0.682121 0.371347 0.540651 0.193210
H18   H     H_    0.395729 0.053057 0.404802 0.153083
H19   H     H_    0.113735 0.580130 0.576853 0.157686
H20   H     H_    0.838499 0.679382 0.428301 0.171386
C57   C     C_R   0.995680 0.332971 0.423733 -0.007642
C58   C     C_R   0.998439 0.360949 0.573776 -0.022112
C59   C     C_R   0.528588 0.860009 0.435523 -0.012657
C60   C     C_R   0.511702 0.823789 0.583018 -0.036616
C61   C     C_R   0.030965 0.121152 0.443805 -0.026057
C62   C     C_R   0.062111 0.173789 0.586580 -0.024324
C63   C     C_R   0.443685 0.704109 0.411909 -0.022086
C64   C     C_R   0.461265 0.627224 0.552927 -0.031776
C65   C     C_R   0.062005 0.035564 0.488495 -0.048778
C66   C     C_R   0.080140 0.063378 0.558835 -0.072674
C67   C     C_R   0.414498 0.598274 0.433661 -0.072728
C68   C     C_R   0.426782 0.556795 0.502949 -0.061392
C69   C     C_R   0.025860 0.257762 0.543476 0.003492
C70   C     C_R   0.017081 0.237294 0.469378 -0.019335
C71   C     C_R   0.487088 0.739227 0.532823 -0.022855
C72   C     C_R   0.486842 0.767924 0.459546 0.015289
H21   H     H_    0.069838 0.946007 0.469668 0.154192
H22   H     H_    0.103949 0.996694 0.593213 0.135276
H23   H     H_    0.386189 0.545146 0.395527 0.158733
H24   H     H_    0.410693 0.469185 0.517485 0.172904
H25   H     H_    0.014956 0.093156 0.390687 0.156993
H26   H     H_    0.074118 0.191735 0.642542 0.149100
H27   H     H_    0.434357 0.733350 0.357123 0.146415
H28   H     H_    0.470963 0.589487 0.605582 0.170612
C73   C     C_R   0.982819 0.463772 0.528032 -0.034531
C74   C     C_R   0.970849 0.440026 0.454011 -0.012754
C75   C     C_R   0.551861 0.918365 0.560174 -0.054583
C76   C     C_R   0.551958 0.949059 0.486238 -0.039527
C77   C     C_R   0.984638 0.589580 0.548585 0.253755
C78   C     C_R   0.945220 0.531135 0.407708 0.292716
C79   C     C_R   0.584708 0.992065 0.611929 0.289747
C80   C     C_R   0.567295 0.071497 0.470154 0.272647
C81   C     C_R   0.983257 0.675440 0.493510 -0.169505
C82   C     C_R   0.963638 0.647692 0.424221 -0.163637
C83   C     C_R   0.594006 0.110195 0.595881 -0.098153
C84   C     C_R   0.582623 0.149998 0.526676 -0.164523
H29   H     H_    0.991002 0.767403 0.504753 0.185685
H30   H     H_    0.956668 0.720484 0.386732 0.121436
H31   H     H_    0.610839 0.171386 0.637096 0.181478
H32   H     H_    0.592082 0.241922 0.515802 0.178098
C85   C     C_R   0.753123 0.072907 0.074283 0.031917
C86   C     C_R   0.256136 0.066707 0.927090 0.101665
C87   C     C_R   0.253129 0.573018 0.074298 0.030966
C88   C     C_R   0.756264 0.566504 0.927175 0.104202
C89   C     C_R   0.812526 0.038690 0.035745 -0.075595
C90   C     C_R   0.191854 0.080903 0.957518 0.014800
C91   C     C_R   0.312499 0.538739 0.035749 -0.076308
C92   C     C_R   0.692002 0.580761 0.957610 0.009238
C93   C     C_R   0.811037 0.035621 0.962322 -0.035963
C94   C     C_R   0.186307 0.090865 0.030625 0.051604
C95   C     C_R   0.310995 0.535596 0.962333 -0.039175
C96   C     C_R   0.686472 0.590665 0.030711 0.056205
C97   C     C_R   0.697815 0.115271 0.958577 -0.018727
C98   C     C_R   0.308097 0.067579 0.048344 -0.065651
C99   C     C_R   0.197809 0.615360 0.958573 -0.020382
C100  C     C_R   0.808250 0.567417 0.048453 -0.068648
C101  C     C_R   0.698788 0.122112 0.033918 -0.082635
C102  C     C_R   0.314454 0.061467 0.973407 -0.069339
C103  C     C_R   0.198815 0.622306 0.033928 -0.083703
C104  C     C_R   0.814604 0.561204 0.973500 -0.060333
C105  C     C_3   0.867098 0.940816 0.035082 0.124638
C106  C     C_3   0.127880 0.006311 0.952847 0.122917
C107  C     C_3   0.367094 0.440926 0.035109 0.122001
C108  C     C_3   0.628017 0.506202 0.952957 0.121449
C109  C     C_3   0.864912 0.942110 0.952155 0.382767
C110  C     C_3   0.121426 0.022188 0.033677 0.363964
C111  C     C_3   0.364946 0.442216 0.952178 0.378513
C112  C     C_3   0.621626 0.521945 0.033800 0.368521
C113  C     C_R   0.755880 0.077578 0.921507 0.078226
C114  C     C_R   0.242676 0.083945 0.077208 0.084587
C115  C     C_R   0.255866 0.577610 0.921511 0.081504
C116  C     C_R   0.742817 0.583785 0.077303 0.083346
H33   H     H_    0.653624 0.148479 0.929152 0.222146
H34   H     H_    0.353348 0.061700 0.082838 0.164353
H35   H     H_    0.153587 0.648408 0.929112 0.220323
H36   H     H_    0.853496 0.561572 0.082967 0.152985
H37   H     H_    0.655298 0.159793 0.061015 0.210815
H38   H     H_    0.364485 0.048476 0.951327 0.144287
H39   H     H_    0.155345 0.660006 0.061039 0.211960
H40   H     H_    0.864647 0.548141 0.951429 0.146446
H41   H     H_    0.916588 0.966495 0.060108 0.200973
H42   H     H_    0.087464 0.048969 0.918417 0.206445
H43   H     H_    0.416548 0.466635 0.060204 0.202162
H44   H     H_    0.587618 0.548965 0.918560 0.203996
C117  C     C_R   0.978771 0.357529 0.086127 0.052042
C118  C     C_R   0.943922 0.352428 0.938178 0.044028
C119  C     C_R   0.478734 0.857485 0.086140 0.056880
C120  C     C_R   0.443897 0.852509 0.938207 0.039655
C121  C     C_R   0.988008 0.455278 0.041110 0.008272
C122  C     C_R   0.978003 0.445327 0.969315 -0.015654
C123  C     C_R   0.487671 0.955533 0.041264 0.010805
C124  C     C_R   0.477548 0.945817 0.969447 -0.019815
C125  C     C_R   0.910159 0.277173 0.986465 -0.080563
C126  C     C_R   0.929860 0.274591 0.060963 -0.065022
C127  C     C_R   0.410445 0.776723 0.986388 -0.080814
C128  C     C_R   0.430078 0.774189 0.060888 -0.061268
C129  C     C_3   0.045767 0.538208 0.028950 0.063934
C130  C     C_3   0.034872 0.522290 0.947767 0.085441
C131  C     C_3   0.545365 0.038665 0.029122 0.062030
C132  C     C_3   0.534262 0.023154 0.947987 0.089014
H45   H     H_    0.872431 0.219123 0.965350 0.129037
H46   H     H_    0.910779 0.206237 0.096075 0.144716
H47   H     H_    0.373041 0.718219 0.965155 0.129082
H48   H     H_    0.411210 0.705544 0.095920 0.147640
H49   H     H_    0.094002 0.500692 0.052217 0.148215
H50   H     H_    0.016588 0.601022 0.916446 0.206216
H51   H     H_    0.593685 0.001055 0.052135 0.148295
H52   H     H_    0.515786 0.101989 0.916880 0.210747
N1    N     N_R   0.898349 0.028547 0.547624 0.069565
O53   O     O_R   0.934449 0.068751 0.600813 -0.309190
O54   O     O_R   0.925496 0.942194 0.511334 -0.465680
N2    N     N_R   0.199976 0.871068 0.393044 0.068645
O55   O     O_R   0.243566 0.802964 0.359624 -0.326199
O56   O     O_R   0.136869 0.878363 0.368960 -0.360364
N3    N     N_R   0.304457 0.372505 0.608504 0.092002
O57   O     O_R   0.275430 0.354182 0.670090 -0.268360
O58   O     O_R   0.362293 0.318850 0.594774 -0.382640
N4    N     N_R   0.595483 0.536154 0.455260 0.056288
O59   O     O_R   0.564031 0.561195 0.395317 -0.311646
O60   O     O_R   0.568907 0.452769 0.494103 -0.452120
N5    N     N_R   0.840750 0.832361 0.063843 0.096995
O61   O     O_R   0.876692 0.774110 0.112100 -0.300672
O62   O     O_R   0.776294 0.808542 0.051605 -0.329845
N6    N     N_R   0.141923 0.884134 0.933663 0.086881
O63   O     O_R   0.101208 0.831433 0.887970 -0.293896
O64   O     O_R   0.203248 0.841217 0.946798 -0.389942
N7    N     N_R   0.340734 0.332453 0.063825 0.092410
O65   O     O_R   0.376693 0.274104 0.112018 -0.284741
O66   O     O_R   0.276274 0.308661 0.051592 -0.336296
N8    N     N_R   0.642010 0.384047 0.933701 0.087426
O67   O     O_R   0.601179 0.331381 0.888109 -0.281898
O68   O     O_R   0.703352 0.341089 0.946694 -0.388067
N9    N     N_R   0.927666 0.984817 0.918039 0.092831
O69   O     O_R   0.945574 0.946306 0.854966 -0.247853
O70   O     O_R   0.966438 0.061442 0.949887 -0.352120
N10   N     N_R   0.064672 0.101304 0.051397 0.097027
O71   O     O_R   0.060101 0.202156 0.017688 -0.333798
O72   O     O_R   0.017215 0.071738 0.096277 -0.309621
N11   N     N_R   0.427665 0.485070 0.918071 0.091447
O73   O     O_R   0.445420 0.447030 0.854847 -0.227175
O74   O     O_R   0.466827 0.560682 0.950295 -0.354199
N12   N     N_R   0.564893 0.601011 0.051643 0.097331
O75   O     O_R   0.560347 0.702008 0.018090 -0.335231
O76   O     O_R   0.517432 0.571275 0.096479 -0.307739
N13   N     N_R   0.839971 0.833121 0.917840 0.122988
O77   O     O_R   0.884301 0.749251 0.903506 -0.303338
O78   O     O_R   0.778425 0.828162 0.889333 -0.312886
N14   N     N_R   0.127633 0.913448 0.078857 0.123188
O79   O     O_R   0.078063 0.881846 0.120649 -0.189639
O80   O     O_R   0.187469 0.862366 0.089280 -0.367026
N15   N     N_R   0.340112 0.333170 0.917860 0.127777
O81   O     O_R   0.384524 0.249416 0.903551 -0.293110
O82   O     O_R   0.278607 0.328111 0.889270 -0.273704
N16   N     N_R   0.627949 0.413169 0.078942 0.120154
O83   O     O_R   0.578576 0.381739 0.121038 -0.202349
O84   O     O_R   0.687807 0.362038 0.089116 -0.381729
N17   N     N_R   0.026465 0.656692 0.055113 0.070290
O85   O     O_R   0.013835 0.671843 0.122960 -0.261958
O86   O     O_R   0.018062 0.746026 0.011216 -0.261339
N18   N     N_R   0.089104 0.453541 0.911818 0.062227
O87   O     O_R   0.125313 0.372622 0.945842 -0.272642
O88   O     O_R   0.102598 0.475715 0.844857 -0.297832
N19   N     N_R   0.526167 0.157051 0.055521 0.069041
O89   O     O_R   0.513887 0.172017 0.123456 -0.244771
O90   O     O_R   0.517798 0.246624 0.011795 -0.262163
N20   N     N_R   0.588526 0.954968 0.911793 0.058108
O91   O     O_R   0.624245 0.872745 0.945209 -0.279858
O92   O     O_R   0.602617 0.979155 0.845264 -0.283516
O93   O     O_3   0.909455 0.497851 0.344986 -0.577204
C133  C     C_3   0.912338 0.581631 0.288383 -0.046535
H53   H     H_    0.882056 0.662699 0.300590 0.140358
H54   H     H_    0.889341 0.541592 0.239293 0.148658
H55   H     H_    0.966130 0.605655 0.275665 0.171990
O94   O     O_3   0.968878 0.630767 0.617166 -0.536120
C134  C     C_3   0.013021 0.716961 0.646911 -0.067989
H56   H     H_    0.019738 0.796275 0.612768 0.112726
H57   H     H_    0.062635 0.676364 0.664760 0.133890
H58   H     H_    0.988759 0.750671 0.696607 0.182484
O95   O     O_3   0.575352 0.113908 0.401120 -0.523564
C135  C     C_3   0.530262 0.209698 0.383722 -0.068928
H59   H     H_    0.509860 0.259757 0.430312 0.126296
H60   H     H_    0.486765 0.176315 0.350554 0.140335
H61   H     H_    0.558260 0.273647 0.349849 0.169826
O96   O     O_3   0.598843 0.954740 0.681615 -0.505049
C136  C     C_3   0.653830 0.871785 0.680513 -0.050255
H62   H     H_    0.699404 0.907647 0.652259 0.123375
H63   H     H_    0.637313 0.786889 0.655797 0.104873
H64   H     H_    0.670165 0.852005 0.736719 0.208300

loop_
_geom_bond_atom_site_label_1
_geom_bond_atom_site_label_2
_geom_bond_distance
_ccdc_geom_bond_type
O4    C12   1.273495 A    
O25   C21   1.318528 A    
N15   O81   1.300130 A    
C40   C44   1.421024 A    
Cr7   O51   2.022036 S    
N19   O90   1.301506 A    
C57   C74   1.413617 A    
C118  C125  1.408312 A    
O39   C19   1.295677 A    
C31   C35   1.384711 A    
C57   C70   1.424288 A    
C34   C50   1.487042 S    
O21   C9    1.339746 A    
C90   C106  1.509739 S    
C1    O9    1.281998 A    
O44   Cr12  2.084102 S    
C5    C53   1.482076 S    
C136  H63   1.110484 S    
C62   C66   1.389630 A    
C3    O11   1.320108 A    
C45   H7    1.106784 S    
C4    O12   1.272330 A    
C19   C115  1.449683 S    
O96   C136  1.409753 S    
C47   H5    1.109599 S    
O2    C10   1.304750 A    
C49   H13   1.112771 S    
O17   Cr9   2.077397 S    
C102  H38   1.068576 S    
C44   H4    1.082092 S    
C112  N16   1.486423 S    
C73   C77   1.468686 A    
C17   C113  1.449789 S    
C8    C56   1.515532 S    
N1    O54   1.295669 A    
O16   Cr8   1.963163 S    
C135  H61   1.108806 S    
C27   C43   1.407638 A    
C75   C79   1.421477 A    
O94   C134  1.411318 S    
O13   C5    1.342642 A    
O28   Cr4   2.069888 S    
C79   O96   1.384446 S    
O12   Cr8   2.084270 S    
C90   C94   1.370496 A    
O15   C7    1.293027 A    
O6    C2    1.327154 A    
C121  C122  1.351813 A    
O46   Cr10  1.941738 S    
N19   O89   1.300390 A    
O48   C24   1.323493 A    
N20   O91   1.301061 A    
N12   O75   1.297545 A    
C129  H49   1.104365 S    
O93   C133  1.414568 S    
C17   O41   1.272092 A    
C20   C116  1.446941 S    
C127  H47   1.059239 S    
C51   H19   1.110270 S    
C2    C27   1.447870 S    
C104  H40   1.068819 S    
N8    O68   1.298698 A    
C121  C129  1.487975 S    
N18   O87   1.301101 A    
C132  N20   1.467900 S    
C78   C82   1.398202 A    
C6    C54   1.457937 S    
Cr12  O52   2.039925 S    
O7    Cr3   1.943408 S    
C97   H33   1.073479 S    
C19   O43   1.272119 A    
C20   O44   1.283914 A    
C94   C114  1.387010 A    
C37   C53   1.437364 A    
N13   O78   1.301867 A    
O46   C22   1.323657 A    
C107  C111  1.542683 S    
N11   O74   1.291209 A    
C33   C53   1.394412 A    
C35   C55   1.379207 A    
C100  C116  1.396477 A    
C16   O36   1.263251 A    
Cr8   O52   2.021548 S    
C71   C72   1.400208 A    
O27   C23   1.318264 A    
C39   C43   1.407849 A    
O31   C15   1.288757 A    
O32   C16   1.309418 A    
C13   C88   1.448841 S    
C67   H23   1.077775 S    
N2    O55   1.300526 A    
C108  N8    1.445364 S    
C119  C123  1.396945 A    
C10   C57   1.487608 S    
O47   Cr11  1.955895 S    
C109  N9    1.467991 S    
C105  H41   1.103507 S    
C85   C101  1.393974 A    
C21   C118  1.465034 S    
N1    O53   1.290089 A    
C61   H25   1.080232 S    
C117  C126  1.415667 A    
O24   C12   1.350864 A    
N15   O82   1.301820 A    
C95   C115  1.381022 A    
O30   C14   1.309364 A    
N5    O61   1.300064 A    
O8    Cr4   1.954649 S    
O32   Cr4   1.973935 S    
C96   C116  1.386717 A    
C28   C44   1.404798 A    
O11   Cr7   2.075178 S    
N6    O63   1.301286 A    
C88   C104  1.413450 A    
C24   C119  1.485621 S    
C64   C71   1.414797 A    
O27   Cr3   2.061060 S    
O3    Cr3   2.087507 S    
C125  C126  1.432259 A    
C46   C50   1.501204 S    
O8    C4    1.301348 A    
C11   C60   1.472424 S    
N3    O58   1.297112 A    
Cr5   O49   2.022036 S    
C129  C130  1.532978 S    
N17   O86   1.301481 A    
C1    C28   1.508594 S    
C94   C110  1.488188 S    
C77   O94   1.395163 S    
C34   C54   1.393389 A    
C99   C103  1.403952 A    
C78   O93   1.402899 S    
O22   C10   1.285703 A    
C60   C75   1.397103 A    
C64   H28   1.079932 S    
C108  C112  1.521312 S    
C103  H39   1.072810 S    
C2    O10   1.296606 A    
C93   C109  1.488802 S    
C95   C111  1.488763 S    
C118  C122  1.369712 A    
C92   C108  1.509687 S    
N14   O80   1.301289 A    
C63   C67   1.388240 A    
O5    C1    1.323664 A    
C98   C114  1.396356 A    
O3    C11   1.311305 A    
C67   C68   1.386347 A    
C42   H2    1.065486 S    
C50   H14   1.108170 S    
C40   N4    1.453680 S    
Cr1   O49   2.039653 S    
C126  H46   1.081105 S    
C131  N19   1.467003 S    
C61   C70   1.416416 A    
Cr3   O51   2.039653 S    
C74   C78   1.418646 A    
C80   O95   1.381014 S    
C45   H9    1.113153 S    
C29   C33   1.406602 A    
C48   C52   1.511495 S    
O26   Cr2   2.069888 S    
C47   H11   1.102880 S    
C5    O17   1.295250 A    
C134  H58   1.109160 S    
O29   C13   1.288562 A    
O28   C24   1.271879 A    
O14   C6    1.298404 A    
C99   H35   1.073675 S    
C37   N1    1.445258 S    
C64   C68   1.392596 A    
N7    O65   1.299976 A    
C89   C93   1.366217 A    
N12   O76   1.298605 A    
O40   Cr8   1.965215 S    
C92   C96   1.370297 A    
N4    O59   1.292196 A    
O41   Cr9   2.094345 S    
C98   C102  1.403013 A    
C51   H15   1.105651 S    
C32   C36   1.401646 A    
N9    O70   1.291254 A    
O33   Cr5   2.082468 S    
C50   H18   1.112924 S    
C25   C29   1.382689 A    
O35   Cr7   2.082468 S    
O29   Cr1   1.965784 S    
C84   H32   1.072911 S    
N10   O71   1.297526 A    
C25   C41   1.398209 A    
C105  C109  1.542611 S    
C40   C56   1.456029 A    
Cr9   O49   2.017054 S    
C80   C84   1.405835 A    
C29   C45   1.495476 S    
C18   O42   1.283570 A    
Cr11  O51   2.017054 S    
O26   C22   1.271848 A    
O20   Cr12  2.061753 S    
C39   N3    1.434528 S    
C23   C120  1.465258 S    
C131  C132  1.532065 S    
C36   C52   1.466857 S    
C43   H3    1.076369 S    
C119  C128  1.415558 A    
C62   H26   1.083354 S    
C35   C51   1.474406 S    
N16   O83   1.298885 A    
C100  H36   1.081500 S    
C30   C34   1.395527 A    
C91   C107  1.518794 S    
C131  H51   1.104359 S    
C86   C90   1.385432 A    
C89   C105  1.518996 S    
C120  C127  1.407791 A    
C129  N17   1.467022 S    
N20   O92   1.300498 A    
C127  C128  1.431964 A    
O6    Cr2   1.954649 S    
C82   H30   1.080995 S    
C48   H6    1.101689 S    
O42   Cr10  2.084102 S    
C134  H56   1.105078 S    
O18   Cr10  2.061753 S    
O31   Cr3   1.965784 S    
C101  H37   1.072900 S    
O34   Cr6   2.083997 S    
N18   O88   1.301045 A    
C26   C30   1.392519 A    
C133  H54   1.109544 S    
O24   Cr12  1.965245 S    
O30   Cr2   1.973935 S    
O48   Cr12  1.941738 S    
C8    O20   1.302414 A    
C26   C42   1.400732 A    
C75   C76   1.417512 A    
O37   C17   1.295725 A    
C15   O35   1.288569 A    
Cr10  O50   2.039925 S    
C30   C46   1.493753 S    
C117  C121  1.396716 A    
O40   C20   1.304533 A    
C109  N13   1.468682 S    
C135  H60   1.108418 S    
O37   Cr5   1.959337 S    
O21   Cr9   1.974977 S    
N13   O77   1.300137 A    
C87   C91   1.416257 A    
O39   Cr7   1.959337 S    
O45   Cr9   1.955895 S    
C13   O33   1.288809 A    
C130  H50   1.111342 S    
O13   Cr5   1.964557 S    
C107  H43   1.103530 S    
C48   H12   1.108888 S    
O15   Cr7   1.964557 S    
C63   C72   1.413979 A    
O2    Cr2   2.093955 S    
O23   C11   1.275146 A    
C120  C124  1.370045 A    
N2    O56   1.299717 A    
C133  H53   1.105113 S    
C66   H22   1.080176 S    
C98   H34   1.081377 S    
C112  N12   1.449997 S    
C52   H16   1.100012 S    
C110  N10   1.450077 S    
O1    Cr1   2.087507 S    
O19   Cr11  2.077397 S    
N11   O73   1.302176 A    
C93   C113  1.381160 A    
C65   C66   1.387387 A    
N14   O79   1.298872 A    
C7    C55   1.449492 S    
N7    O66   1.299954 A    
C62   C69   1.412556 A    
O45   C21   1.332344 A    
C46   H8    1.110144 S    
C46   H10   1.107760 S    
O47   C23   1.332428 A    
C136  H62   1.115465 S    
O95   C135  1.414257 S    
C76   C80   1.445815 A    
N6    O64   1.298698 A    
C6    O18   1.292196 A    
O43   Cr11  2.094345 S    
C132  H52   1.111339 S    
N8    O67   1.301261 A    
C63   H27   1.082372 S    
O36   Cr8   2.083997 S    
C65   H21   1.077784 S    
C61   C65   1.396411 A    
O38   Cr6   1.965215 S    
C133  H55   1.110860 S    
C130  N18   1.468591 S    
C68   H24   1.073876 S    
O22   Cr10  1.965245 S    
C73   C74   1.419491 A    
N17   O85   1.300411 A    
C106  H42   1.109337 S    
C86   C102  1.413020 A    
C22   C117  1.485531 S    
C28   C32   1.384614 A    
C16   C85   1.466820 S    
C100  C104  1.403371 A    
O1    C9    1.242913 A    
C81   C82   1.376222 A    
O7    C3    1.322625 A    
C32   C48   1.454742 S    
C38   N2    1.431971 S    
C110  N14   1.486334 S    
C12   C59   1.477286 S    
C105  N5    1.435578 S    
O23   Cr11  1.974977 S    
C123  C131  1.488412 S    
C83   C84   1.376135 A    
C36   C56   1.397601 A    
C7    O19   1.273976 A    
Cr4   O52   2.017309 S    
C91   C95   1.366090 A    
C38   C54   1.403274 A    
C45   C49   1.502375 S    
Cr6   O50   2.021548 S    
C108  H44   1.109279 S    
O5    Cr1   1.943408 S    
C96   C112  1.487893 S    
C15   C86   1.448675 S    
C18   C114  1.446903 S    
C37   C41   1.397193 A    
O9    Cr5   2.075178 S    
C134  H57   1.106974 S    
O16   C8    1.365984 A    
C4    C25   1.469178 S    
N5    O62   1.299942 A    
C85   C89   1.416463 A    
C83   H31   1.081529 S    
C79   C83   1.377366 A    
C87   C103  1.394073 A    
C88   C92   1.385207 A    
C14   C87   1.467013 S    
C136  H64   1.109388 S    
N4    O60   1.300296 A    
C107  N7    1.435504 S    
C99   C115  1.392186 A    
C97   C113  1.392185 A    
C81   H29   1.068864 S    
N9    O69   1.302205 A    
C41   H1    1.082747 S    
Cr2   O50   2.017309 S    
C125  H45   1.059585 S    
O14   Cr6   1.963163 S    
N10   O72   1.298585 A    
C122  C130  1.472046 S    
C33   C49   1.475588 S    
N3    O57   1.301483 A    
C111  N11   1.467920 S    
O38   C18   1.304744 A    
O25   Cr1   2.061060 S    
C77   C81   1.407006 A    
C39   C55   1.408137 A    
C111  N15   1.468546 S    
C106  N6    1.445441 S    
C9    C58   1.478376 S    
C14   O34   1.263398 A    
C135  H59   1.109972 S    
C128  H48   1.081069 S    
C60   C71   1.417269 A    
C31   C47   1.468643 S    
C58   C73   1.461491 A    
N16   O84   1.301292 A    
C3    C26   1.462661 S    
C59   C72   1.400786 A    
C97   C101  1.403630 A    
C38   C42   1.400494 A    
C49   H17   1.099799 S    
O10   Cr6   2.084270 S    
C58   C69   1.395167 A    
C59   C76   1.450467 A    
O4    Cr4   2.093955 S    
C27   C31   1.374436 A    
C106  C110  1.521381 S    
C123  C124  1.352276 A    
C124  C132  1.471821 S    
C47   C51   1.493780 S    
C69   C70   1.406184 A    
C52   H20   1.099761 S    
