data_mof_unit_20767.cif
_audit_creation_date              2012-10-26T21:08:00-0400
_audit_creation_method            fapswitch 2.2
_symmetry_space_group_name_H-M    P1
_symmetry_Int_Tables_number       1
_space_group_crystal_system       triclinic
_cell_length_a                    15.863947
_cell_length_b                    10.958407
_cell_length_c                    9.633796
_cell_angle_alpha                 90.30264
_cell_angle_beta                  89.931227
_cell_angle_gamma                 93.425511
_cell_volume                      1671.75740321

loop_
_atom_site_label
_atom_site_type_symbol
_atom_type_description
_atom_site_fract_x
_atom_site_fract_y
_atom_site_fract_z
_atom_type_partial_charge
C1    C     C_R   0.501966 0.263008 0.499704 0.623386
C2    C     C_R   0.569265 0.062400 0.861102 0.132539
C3    C     C_R   0.516510 0.956842 0.878687 -0.116979
C4    C     C_R   0.340038 0.499734 0.500031 0.557852
C5    C     C_R   0.479231 0.894981 0.764018 0.228147
C6    C     C_R   0.495699 0.941378 0.629232 -0.017578
C7    C     C_R   0.525253 0.064770 0.619021 -0.055939
C8    C     C_R   0.503093 0.129491 0.499104 0.018318
C9    C     C_R   0.474162 0.064233 0.381202 0.234944
C10   C     C_R   0.482761 0.938563 0.377056 0.094783
C11   C     C_R   0.487181 0.872368 0.503139 0.003294
C12   C     C_3   0.083196 0.503356 0.500477 0.060459
C13   C     C_R   0.625533 0.641598 0.142053 -0.131052
C14   C     C_R   0.692708 0.698788 0.069980 -0.179525
C15   C     C_R   0.689898 0.705509 0.925961 0.205539
C16   C     C_R   0.495639 0.737774 0.500728 0.565081
C17   C     C_R   0.621489 0.648709 0.856358 -0.008138
C18   C     C_R   0.560083 0.572331 0.925326 0.082918
C19   C     C_R   0.560990 0.570656 0.074148 0.082967
C20   C     C_R   0.442520 0.429673 0.074132 0.360510
C21   C     C_R   0.443131 0.429950 0.925365 -0.000575
C22   C     C_R   0.659920 0.500478 0.499990 0.547592
C23   C     C_3   0.975339 0.595614 0.580316 -0.140240
C24   C     C_3   0.967544 0.395011 0.552812 -0.108081
C25   C     C_3   0.023883 0.411363 0.423152 0.292143
C26   C     C_1   0.250348 0.500860 0.500108 0.004934
C27   C     C_1   0.749572 0.501054 0.500081 0.006106
C28   C     C_3   0.027653 0.489018 0.631681 -0.144055
C29   C     C_3   0.600729 0.917641 0.227545 -0.286726
C30   C     C_3   0.004177 0.545023 0.126332 -0.295538
C31   C     C_3   0.702839 0.092686 0.980727 -0.314184
C32   C     C_3   0.916750 0.501809 0.501166 0.017486
C33   C     C_3   0.032406 0.610488 0.449074 -0.127593
C34   C     C_3   0.973074 0.516166 0.372706 0.170043
C35   C     C_1   0.174829 0.502039 0.500173 -0.007660
C36   C     C_1   0.825103 0.501493 0.500554 -0.034285
C37   C     C_R   0.573274 0.118833 0.729581 0.268871
Cu1   Cu    Cu3+1 0.499990 0.499990 0.640660 0.977318
Cu2   Cu    Cu3+1 0.500010 0.500010 0.359340 1.025238
H1    H     H_    0.504378 0.922158 0.981491 0.133896
H2    H     H_    0.998765 0.272622 0.305297 0.325610
H3    H     H_    0.415353 0.779801 0.883369 0.312840
H4    H     H_    0.482873 0.814247 0.206704 0.272055
H5    H     H_    0.617390 0.893260 0.120535 0.160987
H6    H     H_    0.637366 0.865801 0.302825 0.125663
H7    H     H_    0.618305 0.016507 0.242022 0.196740
H8    H     H_    0.346961 0.310426 0.079201 0.298668
H9    H     H_    0.795609 0.803999 0.914721 0.317497
H10   H     H_    0.895349 0.592771 0.227729 0.249378
H11   H     H_    0.972995 0.546983 0.023293 0.141956
H12   H     H_    0.624500 0.660940 0.250065 0.187277
H13   H     H_    0.046411 0.467851 0.126777 0.198168
H14   H     H_    0.042184 0.632473 0.142049 0.135782
H15   H     H_    0.423559 0.065655 0.196480 0.343031
H16   H     H_    0.643254 0.262473 0.789052 0.332777
H17   H     H_    0.600544 0.202580 0.000066 0.263270
H18   H     H_    0.729820 0.123773 0.082062 0.138722
H19   H     H_    0.737152 0.144004 0.896967 0.165352
H20   H     H_    0.712958 0.993959 0.967880 0.174579
H21   H     H_    0.742928 0.747637 0.127362 0.093784
H22   H     H_    0.618952 0.668111 0.748485 0.198765
H23   H     H_    0.397017 0.372716 0.868543 0.108305
H24   H     H_    0.940431 0.306731 0.594005 0.119899
H25   H     H_    0.059524 0.698033 0.405995 0.114569
H26   H     H_    0.953821 0.671190 0.646154 0.138296
H27   H     H_    0.051516 0.478640 0.739006 0.118433
N1    N     N_R   0.500800 0.501210 0.147910 -0.213341
N2    N     N_R   0.500830 0.501290 0.852040 -0.265948
N3    N     N_2   0.511077 0.892937 0.248615 -0.532085
N4    N     N_2   0.940668 0.529358 0.233499 -0.516585
N5    N     N_2   0.613521 0.113451 0.977926 -0.521507
O1    O     O_R   0.499990 0.319640 0.618810 -0.488961
O2    O     O_3   0.418918 0.800277 0.783275 -0.663340
O3    O     O_3   0.383941 0.356897 0.146301 -0.618384
O4    O     O_3   0.751129 0.770620 0.850367 -0.719352
O5    O     O_3   0.449790 0.125259 0.263779 -0.638247
O6    O     O_3   0.628594 0.218179 0.701994 -0.685346
O7    O     O_R   0.500000 0.319660 0.381240 -0.400484
O8    O     O_R   0.379070 0.499980 0.618770 -0.498400
O9    O     O_R   0.379080 0.500000 0.381190 -0.444107
O10   O     O_R   0.500000 0.680340 0.618760 -0.471090
O11   O     O_R   0.500010 0.680360 0.381190 -0.544849
O12   O     O_R   0.620920 0.500000 0.618810 -0.508984
O13   O     O_R   0.620930 0.500020 0.381230 -0.532984
O14   O     O_3   0.051075 0.315944 0.340733 -0.694627

loop_
_geom_bond_atom_site_label_1
_geom_bond_atom_site_label_2
_ccdc_geom_bond_type
C15   O4    S    
Cu1   O12   S    
C1    C8    S    
C20   N1    A    
C7    C8    A    
C12   C28   S    
C32   C36   S    
C31   H19   S    
Cu2   O13   S    
C4    O9    A    
C5    C6    A    
H16   O6    S    
Cu1   O8    S    
C18   N2    A    
C18   C19   A    
C31   H20   S    
C17   H22   S    
C13   H12   S    
C8    C9    A    
C23   C33   S    
C19   N1    A    
C9    O5    S    
C9    C10   A    
C34   N4    S    
C25   C34   S    
C31   N5    S    
C30   H11   S    
H4    N3    S    
C13   C14   A    
C1    O7    A    
H9    O4    S    
C25   O14   S    
C30   N4    S    
C33   C34   S    
C29   N3    S    
C30   H14   S    
Cu1   O1    S    
C1    O1    A    
C13   C19   A    
Cu2   O7    S    
C24   C25   S    
Cu2   O11   S    
C4    O8    A    
C6    C11   A    
C37   O6    S    
C29   H6    S    
C32   C34   S    
C28   H27   S    
C24   C32   S    
C11   C16   S    
H17   N5    S    
C16   O11   A    
C17   C18   A    
C7    C37   A    
C20   O3    S    
C23   C28   S    
C12   C35   S    
C21   H23   S    
H15   O5    S    
Cu1   N2    S    
C3    H1    S    
C24   H24   S    
H10   N4    S    
C21   N2    A    
C2    N5    S    
H2    O14   S    
C15   C17   A    
C30   H13   S    
H3    O2    S    
Cu2   N1    S    
C24   C28   S    
H8    O3    S    
C3    C5    A    
C4    C26   S    
C6    C7    A    
C27   C36   T    
C14   H21   S    
C12   C25   S    
C29   H7    S    
C22   C27   S    
C23   C32   S    
C23   H26   S    
C2    C3    A    
Cu1   O10   S    
Cu2   O9    S    
C22   O12   A    
C2    C37   A    
C31   H18   S    
Cu1   Cu2   S    
C33   H25   S    
C16   O10   A    
C29   H5    S    
C5    O2    S    
C10   C11   A    
C10   N3    S    
C26   C35   T    
C20   C21   A    
C14   C15   A    
C12   C33   S    
C22   O13   A    
