data_mof_unit_42116.cif
_audit_creation_date              2012-12-10T19:11:31-0500
_audit_creation_method            fapswitch 2.2
_symmetry_space_group_name_H-M    P1
_symmetry_Int_Tables_number       1
_space_group_crystal_system       triclinic
_cell_length_a                    7.789972
_cell_length_b                    9.090197
_cell_length_c                    17.222758
_cell_angle_alpha                 90.00135
_cell_angle_beta                  85.039202
_cell_angle_gamma                 90.013351
_cell_volume                      1215.01600803

loop_
_atom_site_label
_atom_site_type_symbol
_atom_type_description
_atom_site_fract_x
_atom_site_fract_y
_atom_site_fract_z
_atom_type_partial_charge
C1    C     C_R   0.500012 0.779946 0.500007 0.890651
C2    C     C_R   0.499985 0.220049 0.500014 0.827418
C3    C     C_1   0.500013 0.934607 0.500023 -0.099019
C4    C     C_1   0.499978 0.065375 0.500026 -0.123859
C5    C     C_R   0.476292 0.500903 0.650246 0.869305
C6    C     C_R   0.523766 0.500892 0.349646 0.862294
C7    C     C_R   0.459012 0.498566 0.734722 -0.165884
C8    C     C_R   0.541358 0.494505 0.265047 -0.163270
C9    C     C_R   0.513144 0.373519 0.772946 -0.258429
C10   C     C_R   0.460510 0.379765 0.228173 -0.267360
C11   C     C_R   0.497356 0.366990 0.853962 0.444909
C12   C     C_R   0.478808 0.367171 0.147373 0.445497
C13   C     C_R   0.432721 0.489751 0.897245 -0.039795
C14   C     C_R   0.574667 0.473612 0.102814 -0.123549
C15   C     C_R   0.372952 0.612700 0.858599 -0.209767
C16   C     C_R   0.657230 0.587349 0.139889 -0.273017
C17   C     C_R   0.385100 0.617541 0.777495 0.384518
C18   C     C_R   0.642588 0.597628 0.220831 0.386998
C19   C     C_2   0.431457 0.494465 0.982600 0.465527
C20   C     C_2   0.580219 0.474962 0.016784 0.420402
Cu1   Cu    Cu3+1 0.330920 0.500000 0.500000 1.068112
Cu2   Cu    Cu3+1 0.669080 0.500000 0.500000 1.072723
H1    H     H_    0.320844 0.706646 0.891291 0.199966
H2    H     H_    0.729984 0.669887 0.105602 0.207458
H3    H     H_    0.564971 0.280003 0.739604 0.191695
H4    H     H_    0.385823 0.298351 0.262453 0.191522
N1    N     N_1   0.923170 0.500000 0.500010 -0.025621
N2    N     N_1   0.076830 0.500000 0.499990 -0.026871
O1    O     O_R   0.357240 0.711600 0.500000 -0.567380
O2    O     O_R   0.642760 0.288400 0.500000 -0.582344
O3    O     O_R   0.642760 0.711600 0.500000 -0.565531
O4    O     O_R   0.357240 0.288400 0.500000 -0.582190
O5    O     O_R   0.340660 0.500000 0.613590 -0.556248
O6    O     O_R   0.659340 0.500000 0.386410 -0.550461
O7    O     O_R   0.626230 0.500000 0.613600 -0.578873
O8    O     O_R   0.373770 0.500000 0.386400 -0.585204
Cl1   Cl    Cl    0.382683 0.215732 0.104219 -0.526494
Cl2   Cl    Cl    0.553173 0.201421 0.898641 -0.524384
Cl3   Cl    Cl    0.745096 0.745034 0.264567 -0.582497
Cl4   Cl    Cl    0.314101 0.776534 0.731300 -0.562586
O9    O     O_3   0.735953 0.477928 0.970029 -0.609426
C21   C     C_3   0.862410 0.390012 0.001421 -0.094912
H5    H     H_    0.811429 0.279605 0.019491 0.196780
H6    H     H_    0.916642 0.446419 0.050976 0.182656
H7    H     H_    0.969794 0.372711 0.955699 0.220944
O10   O     O_3   0.273223 0.511022 0.025566 -0.594704
C22   C     C_3   0.258284 0.653635 0.058361 -0.271646
H8    H     H_    0.346080 0.737181 0.028697 0.165897
H9    H     H_    0.281313 0.648731 0.120998 0.203383
H10   H     H_    0.124273 0.692680 0.054765 0.212665

loop_
_geom_bond_atom_site_label_1
_geom_bond_atom_site_label_2
_ccdc_geom_bond_type
C1    C3    S    
C11   Cl2   S    
C2    C4    S    
C18   Cl3   S    
C5    C7    S    
C9    C11   A    
O9    C21   S    
C5    O7    A    
C19   C20   D    
C2    O2    A    
C16   C18   A    
C10   H4    S    
C15   H1    S    
C20   O9    S    
C19   O10   S    
C9    H3    S    
C16   H2    S    
Cu1   O8    S    
Cu1   Cu2   S    
Cu2   O7    S    
C11   C13   A    
C21   H6    S    
C10   C12   A    
C2    O4    A    
C1    O1    A    
Cu1   N2    S    
C12   C14   A    
C22   H10   S    
C7    C9    A    
Cu2   N1    S    
C13   C15   A    
Cu2   O6    S    
Cu1   O4    S    
C14   C16   A    
Cu1   O5    S    
Cu2   O3    S    
C13   C19   S    
C3    C4    T    
C22   H8    S    
C14   C20   S    
C1    O3    A    
C22   H9    S    
C21   H5    S    
C12   Cl1   S    
C15   C17   A    
O10   C22   S    
C6    C8    S    
Cu2   O2    S    
C7    C17   A    
Cu1   O1    S    
C17   Cl4   S    
C8    C10   A    
C8    C18   A    
C6    O6    A    
C6    O8    A    
N1    N2    T    
C21   H7    S    
C5    O5    A    
