data_mof_unit_31247.cif
_audit_creation_date              2012-12-11T16:56:14-0500
_audit_creation_method            fapswitch 2.2
_symmetry_space_group_name_H-M    P1
_symmetry_Int_Tables_number       1
_space_group_crystal_system       triclinic
_cell_length_a                    6.985315
_cell_length_b                    14.567494
_cell_length_c                    16.159956
_cell_angle_alpha                 90.439141
_cell_angle_beta                  89.841451
_cell_angle_gamma                 89.962702
_cell_volume                      1644.35847105

loop_
_atom_site_label
_atom_site_type_symbol
_atom_type_description
_atom_site_fract_x
_atom_site_fract_y
_atom_site_fract_z
_atom_type_partial_charge
O1    O     O_R   0.505830 0.583360 0.413880 -0.524621
O2    O     O_R   0.175830 0.595460 0.585520 -0.532235
O3    O     O_R   0.005520 0.416640 0.586120 -0.546876
C1    C     C_R   0.344386 0.617702 0.614153 0.710490
O4    O     O_R   0.176120 0.594390 0.414490 -0.535371
O5    O     O_R   0.005810 0.415570 0.413870 -0.530879
C2    C     C_R   0.345057 0.616269 0.385996 0.763705
O6    O     O_R   0.505540 0.584430 0.586130 -0.539878
O7    O     O_3   0.339200 0.441330 0.500000 -0.375925
V1    V     V_3+5 0.064350 0.510880 0.500000 1.485575
O8    O     O_R   0.676100 0.404540 0.414480 -0.533980
C3    C     C_R   0.845608 0.383910 0.384714 0.755113
O9    O     O_R   0.675810 0.405610 0.585510 -0.546324
C4    C     C_R   0.844898 0.383817 0.613604 0.725175
V2    V     V_3+5 0.564340 0.489120 0.500000 1.475922
O10   O     O_3   0.839360 0.558670 0.500000 -0.356357
C5    C     C_2   0.721752 0.208889 0.786189 -0.116172
C6    C     C_2   0.885822 0.181750 0.822622 -0.293746
C7    C     C_2   0.709158 0.277396 0.718216 -0.120983
C8    C     C_2   0.861358 0.315596 0.680479 -0.291918
H1    H     H_    0.005525 0.297338 0.698438 0.129855
C9    C     C_R   0.753036 0.172699 0.251929 0.099923
C10   C     C_R   0.883341 0.180878 0.186556 -0.128392
C11   C     C_R   0.017988 0.252416 0.191781 -0.191157
H2    H     H_    0.125602 0.259373 0.143850 0.154495
C12   C     C_R   0.006547 0.319827 0.254781 0.156575
C13   C     C_R   0.861753 0.314868 0.316943 -0.128952
C14   C     C_R   0.744294 0.236847 0.315762 0.057027
C15   C     C_3   0.532726 0.226137 0.324289 -0.380414
C16   C     C_3   0.542332 0.156536 0.253496 -0.389427
H3    H     H_    0.469991 0.180347 0.196312 0.189933
C17   C     C_R   0.511878 0.744877 0.692612 0.093706
C18   C     C_R   0.352351 0.687834 0.681435 -0.101775
C19   C     C_R   0.200651 0.698131 0.738379 -0.110219
C20   C     C_R   0.212785 0.761133 0.804963 -0.136438
H4    H     H_    0.097036 0.766594 0.848602 0.165549
C21   C     C_R   0.379104 0.812702 0.819135 -0.084071
C22   C     C_R   0.527988 0.802147 0.762031 0.048375
C23   C     C_3   0.729029 0.772198 0.776665 -0.077150
C24   C     C_3   0.717013 0.718707 0.695546 -0.055504
H5    H     H_    0.830665 0.830751 0.775735 0.147477
H6    H     H_    0.739970 0.643556 0.701465 0.147582
C25   C     C_R   0.518827 0.738038 0.305441 0.072563
C26   C     C_R   0.354273 0.685866 0.319274 -0.085310
C27   C     C_R   0.199527 0.700315 0.265814 -0.128810
H7    H     H_    0.075921 0.657257 0.270974 0.172442
C28   C     C_R   0.210515 0.763980 0.200776 -0.148346
C29   C     C_R   0.377506 0.815901 0.187452 -0.084913
C30   C     C_R   0.528424 0.804227 0.243284 0.055216
C31   C     C_3   0.730567 0.780853 0.223551 -0.433506
C32   C     C_3   0.715779 0.704675 0.286728 0.002766
H8    H     H_    0.812121 0.713817 0.340767 0.129413
O11   O     O_R   0.229930 0.912420 0.917160 -0.543227
O12   O     O_R   0.559420 0.902500 0.088780 -0.535600
O13   O     O_R   0.729660 0.081330 0.089380 -0.539100
C33   C     C_R   0.390315 0.880982 0.117457 0.707288
O14   O     O_R   0.559650 0.901420 0.917750 -0.527584
O15   O     O_R   0.729880 0.080250 0.917130 -0.539599
C34   C     C_R   0.390882 0.878983 0.889336 0.727163
O16   O     O_R   0.229700 0.913500 0.089410 -0.544422
O17   O     O_3   0.396250 0.055540 0.003280 -0.375997
V3    V     V_3+5 0.671130 0.986010 0.003260 1.452411
O18   O     O_R   0.059600 0.091310 0.917720 -0.544961
C35   C     C_R   0.891013 0.113140 0.889612 0.744767
O19   O     O_R   0.059370 0.092380 0.088750 -0.546583
C36   C     C_R   0.890491 0.113948 0.117473 0.707157
V4    V     V_3+5 0.171120 0.007820 0.003230 1.422757
O20   O     O_3   0.896130 0.938240 0.003240 -0.364635
H9    H     H_    0.586803 0.180172 0.807183 0.137161
H10   H     H_    0.505985 0.085578 0.272850 0.160592
H11   H     H_    0.076353 0.654430 0.733582 0.151615
I1    I     I_    0.742738 0.680867 0.881855 -0.410273
I2    I     I_    0.862970 0.783022 0.594350 -0.435290
H12   H     H_    0.092623 0.768959 0.157930 0.147520
H13   H     H_    0.829000 0.837004 0.242710 0.150496
H14   H     H_    0.022438 0.209767 0.803723 0.129513
H15   H     H_    0.749507 0.756585 0.158651 0.213789
I3    I     I_    0.715422 0.571300 0.227107 -0.330474
H16   H     H_    0.566083 0.296309 0.698439 0.134655
I4    I     I_    0.196847 0.432408 0.241415 -0.358172
H17   H     H_    0.454032 0.289584 0.308485 0.213088
H18   H     H_    0.491939 0.195029 0.384396 0.166719

loop_
_geom_bond_atom_site_label_1
_geom_bond_atom_site_label_2
_ccdc_geom_bond_type
O15   V3    S    
C5    H9    S    
C7    C8    D    
C1    O6    A    
C25   C32   S    
O11   C34   A    
O14   V3    S    
C23   H5    S    
C27   H7    S    
C12   C13   A    
C21   C22   A    
C10   C36   S    
C14   C15   S    
C20   C21   A    
C11   C12   A    
O5    C3    A    
C16   H3    S    
O14   C34   A    
V2    O10   S    
O13   V3    S    
C24   I2    S    
C19   C20   A    
O8    V2    S    
C20   H4    S    
O16   V4    S    
O19   V4    S    
C10   C11   A    
O1    V2    S    
C17   C22   A    
O7    V1    S    
C24   H6    S    
C9    C14   A    
O9    C4    A    
C16   H10   S    
C5    C6    D    
O12   C33   A    
C27   C28   A    
O15   C35   A    
O18   V4    S    
C3    C13   S    
V4    O20   S    
C4    C8    S    
C11   H2    S    
C23   C24   S    
O4    C2    A    
C25   C30   A    
O12   V3    S    
C31   C32   S    
C12   I4    S    
C32   H8    S    
O2    C1    A    
C25   C26   A    
C15   H17   S    
C15   C16   S    
O17   V4    S    
C28   C29   A    
C23   I1    S    
C18   C19   A    
C2    C26   S    
C7    H16   S    
C21   C34   S    
O3    C4    A    
C29   C30   A    
C30   C31   S    
O6    V2    S    
O9    V2    S    
O2    V1    S    
C31   H15   S    
O13   C36   A    
C26   C27   A    
C29   C33   S    
C1    C18   S    
C6    H14   S    
C9    C16   S    
O1    C2    A    
C28   H12   S    
O5    V1    S    
O8    C3    A    
V3    O20   S    
C17   C18   A    
O7    V2    S    
C32   I3    S    
C15   H18   S    
O3    V1    S    
V1    O10   S    
C31   H13   S    
C6    C35   S    
C22   C23   S    
C5    C7    S    
C17   C24   S    
O17   V3    S    
O11   V4    S    
O18   C35   A    
C33   O16   A    
O4    V1    S    
C8    H1    S    
O19   C36   A    
C13   C14   A    
C9    C10   A    
C19   H11   S    
