data_mof_unit_31621.cif
_audit_creation_date              2013-03-05T15:54:37-0500
_audit_creation_method            fapswitch 2.2
_symmetry_space_group_name_H-M    P1
_symmetry_Int_Tables_number       1
_space_group_crystal_system       triclinic
_cell_length_a                    17.43162
_cell_length_b                    24.448209
_cell_length_c                    15.047528
_cell_angle_alpha                 90.746503
_cell_angle_beta                  125.608231
_cell_angle_gamma                 89.420045
_cell_volume                      5213.27551775

loop_
_atom_site_label
_atom_site_type_symbol
_atom_site_description
_atom_site_fract_x
_atom_site_fract_y
_atom_site_fract_z
_atom_type_partial_charge
C1    C     C_R   0.851474 0.652492 0.908111 -0.048241
C2    C     C_R   0.192755 0.618843 0.092488 0.013110
C3    C     C_R   0.347898 0.151332 0.906975 -0.045587
C4    C     C_R   0.693398 0.117346 0.092205 0.012420
H1    H     H_    0.811802 0.665100 0.824575 0.193349
H2    H     H_    0.253249 0.616046 0.174011 0.180390
H3    H     H_    0.301903 0.161961 0.823180 0.176333
H4    H     H_    0.753354 0.114828 0.173837 0.175599
N1    N     N_R   0.892620 0.603790 0.941770 -0.062704
N2    N     N_R   0.107380 0.603790 0.058230 -0.045422
N3    N     N_R   0.392620 0.103790 0.941770 -0.067128
N4    N     N_R   0.607380 0.103790 0.058230 -0.038903
C5    C     C_R   0.944662 0.350433 0.093756 0.016796
C6    C     C_R   0.093812 0.374558 0.905903 -0.033413
C7    C     C_R   0.445336 0.850380 0.093796 0.014825
C8    C     C_R   0.593445 0.873227 0.906166 -0.024645
H5    H     H_    0.995064 0.335635 0.174937 0.159713
H6    H     H_    0.064280 0.369495 0.821923 0.138289
H7    H     H_    0.496144 0.835621 0.174697 0.152850
H8    H     H_    0.564128 0.867014 0.821822 0.138388
N5    N     N_R   0.952270 0.397640 0.058010 -0.055488
N6    N     N_R   0.047730 0.397640 0.941990 -0.066236
N7    N     N_R   0.452270 0.897640 0.058010 -0.056579
N8    N     N_R   0.547730 0.897640 0.941990 -0.066712
C9    C     C_R   0.986065 0.548273 0.254167 -0.054164
C10   C     C_R   0.949428 0.546083 0.695690 -0.059525
C11   C     C_R   0.473923 0.047610 0.237911 0.009291
C12   C     C_R   0.451313 0.047162 0.699358 -0.060288
H9    H     H_    0.983436 0.590746 0.272769 0.166166
H10   H     H_    0.934558 0.588044 0.669390 0.177865
H11   H     H_    0.447429 0.088200 0.226745 0.196741
H12   H     H_    0.429510 0.087538 0.673468 0.205434
N9    N     N_R   0.026310 0.529110 0.206760 -0.072273
N10   N     N_R   0.973690 0.529110 0.793240 -0.070233
N11   N     N_R   0.526310 0.029110 0.206760 -0.066842
N12   N     N_R   0.473690 0.029110 0.793240 -0.072374
C13   C     C_R   0.731129 0.453771 0.725490 0.510845
C14   C     C_R   0.251514 0.455965 0.307551 0.445826
C15   C     C_R   0.231297 0.953625 0.726227 0.509141
C16   C     C_R   0.752118 0.956056 0.307275 0.459342
N13   N     N_R   0.818570 0.472310 0.793020 -0.105756
N14   N     N_R   0.181430 0.472310 0.206980 -0.113364
N15   N     N_R   0.318570 0.972310 0.793020 -0.105056
N16   N     N_R   0.681430 0.972310 0.206980 -0.115632
C17   C     C_R   0.979067 0.457032 0.246331 0.002256
C18   C     C_R   0.948663 0.455327 0.695020 -0.014377
C19   C     C_R   0.480844 0.957153 0.248654 0.000711
C20   C     C_R   0.451146 0.956782 0.694889 0.020823
H13   H     H_    0.964187 0.415856 0.252497 0.155322
H14   H     H_    0.931678 0.413489 0.667660 0.159051
H15   H     H_    0.472428 0.915886 0.263181 0.158643
H16   H     H_    0.438926 0.914932 0.667220 0.150297
N17   N     N_R   0.026930 0.472300 0.207330 -0.062963
N18   N     N_R   0.973070 0.472300 0.792670 -0.063423
N19   N     N_R   0.526930 0.972300 0.207330 -0.062290
N20   N     N_R   0.473070 0.972300 0.792670 -0.062125
C21   C     C_R   0.728646 0.546036 0.735794 -0.082974
C22   C     C_R   0.252352 0.546296 0.306686 -0.156304
C23   C     C_R   0.228637 0.045893 0.736009 -0.143775
C24   C     C_R   0.753194 0.046524 0.305923 -0.141706
H17   H     H_    0.705299 0.588184 0.721084 0.161596
H18   H     H_    0.264889 0.587771 0.335679 0.215703
H19   H     H_    0.204820 0.087918 0.720237 0.163663
H20   H     H_    0.766181 0.088206 0.334408 0.221482
N21   N     N_R   0.817960 0.529130 0.792460 -0.073643
N22   N     N_R   0.182040 0.529130 0.207540 -0.088616
N23   N     N_R   0.317960 0.029130 0.792460 -0.074949
N24   N     N_R   0.682040 0.029130 0.207540 -0.091574
C25   C     C_R   0.849815 0.349255 0.913048 -0.064801
C26   C     C_R   0.188232 0.375388 0.088253 -0.071457
C27   C     C_R   0.349903 0.849282 0.913132 -0.050183
C28   C     C_R   0.687509 0.874706 0.089033 -0.079736
H21   H     H_    0.812289 0.332094 0.832376 0.195942
H22   H     H_    0.248371 0.371093 0.171688 0.167597
H23   H     H_    0.312088 0.832218 0.832361 0.191938
H24   H     H_    0.746841 0.870633 0.172945 0.165621
N25   N     N_R   0.894850 0.397640 0.943830 -0.061842
N26   N     N_R   0.105150 0.397640 0.056170 -0.046495
N27   N     N_R   0.394850 0.897640 0.943830 -0.066441
N28   N     N_R   0.605150 0.897640 0.056170 -0.047081
C29   C     C_R   0.944960 0.653581 0.089732 0.007021
C30   C     C_R   0.098914 0.626810 0.911201 -0.019141
C31   C     C_R   0.446364 0.154824 0.087157 0.008101
C32   C     C_R   0.600409 0.125175 0.911658 -0.014955
H25   H     H_    0.992658 0.667718 0.173217 0.109138
H26   H     H_    0.071492 0.636007 0.827546 0.119633
H27   H     H_    0.497787 0.170886 0.167981 0.186353
H28   H     H_    0.574544 0.133081 0.828552 0.164311
N29   N     N_R   0.950040 0.603780 0.055950 -0.052016
N30   N     N_R   0.049960 0.603780 0.944050 -0.055292
N31   N     N_R   0.450040 0.103780 0.055950 -0.073177
N32   N     N_R   0.549960 0.103780 0.944050 -0.051334
C33   C     C_R   0.884965 0.685308 0.998656 0.046303
C34   C     C_R   0.188918 0.637511 0.005286 -0.001079
C35   C     C_R   0.382698 0.185425 0.995423 0.060618
C36   C     C_R   0.690519 0.135454 0.005355 -0.005788
C37   C     C_R   0.877726 0.320254 0.005978 0.010821
C38   C     C_R   0.183072 0.360620 0.995093 0.022238
C39   C     C_R   0.378354 0.820272 0.006230 0.024227
C40   C     C_R   0.682448 0.859071 0.996426 0.026544
C41   C     C_R   0.954875 0.503510 0.279414 0.114374
C42   C     C_R   0.930952 0.500554 0.631172 0.100736
C43   C     C_R   0.451738 0.004459 0.274258 0.046720
C44   C     C_R   0.435175 0.003768 0.634474 0.076006
C45   C     C_R   0.673224 0.499395 0.695951 -0.098479
C46   C     C_R   0.295802 0.501854 0.370509 -0.083946
C47   C     C_R   0.173553 0.999169 0.697132 -0.102764
C48   C     C_R   0.797301 0.002067 0.369318 -0.079052
Ni1   Ni    Ni4+2 0.934160 0.565860 0.869070 0.290232
Ni2   Ni    Ni4+2 0.065840 0.565860 0.130930 0.273299
Ni3   Ni    Ni4+2 0.434160 0.065860 0.869070 0.274609
Ni4   Ni    Ni4+2 0.565840 0.065860 0.130930 0.302926
Ni5   Ni    Ni4+2 0.067260 0.435560 0.132230 0.319804
Ni6   Ni    Ni4+2 0.932740 0.435560 0.867770 0.298376
Ni7   Ni    Ni4+2 0.567260 0.935560 0.132230 0.316070
Ni8   Ni    Ni4+2 0.432740 0.935560 0.867770 0.291918
C49   C     C_3   0.506930 0.449869 0.573523 -0.005482
C50   C     C_3   0.462379 0.474333 0.459912 -0.093558
C51   C     C_3   0.006838 0.949971 0.576967 -0.007585
C52   C     C_3   0.963914 0.971742 0.461648 -0.081975
C53   C     C_3   0.434098 0.479643 0.583951 -0.082171
C54   C     C_3   0.525667 0.524926 0.508905 -0.039455
C55   C     C_3   0.933928 0.982393 0.583635 -0.083734
C56   C     C_3   0.028540 0.021939 0.507524 -0.065208
H29   H     H_    0.395457 0.462077 0.614865 0.211395
H30   H     H_    0.562302 0.544256 0.477287 0.232309
H31   H     H_    0.893657 0.967066 0.614212 0.211651
H32   H     H_    0.068779 0.037914 0.477270 0.194285
H33   H     H_    0.521633 0.406101 0.593052 0.229887
H34   H     H_    0.447335 0.451383 0.387161 0.173919
H35   H     H_    0.021997 0.906743 0.601573 0.221708
H36   H     H_    0.948633 0.946863 0.390765 0.179915
C57   C     C_3   0.390176 0.503676 0.470686 0.125322
C58   C     C_3   0.570917 0.500211 0.621807 0.093058
C59   C     C_3   0.891835 0.003786 0.468934 0.100197
C60   C     C_3   0.071730 0.999934 0.621984 0.102207
C61   C     C_3   0.453318 0.554457 0.520018 -0.127716
C62   C     C_3   0.500283 0.530096 0.635158 -0.207414
C63   C     C_3   0.956214 0.054176 0.515022 -0.087049
C64   C     C_3   0.001147 0.032450 0.631597 -0.202779
H37   H     H_    0.429605 0.597583 0.500420 0.196070
H38   H     H_    0.518905 0.552940 0.709459 0.180768
H39   H     H_    0.934107 0.097342 0.492939 0.229750
H40   H     H_    0.019635 0.057272 0.703819 0.178839
C65   C     C_R   0.857610 0.251493 0.109768 -0.074103
C66   C     C_R   0.228814 0.307231 0.890911 -0.146754
C67   C     C_R   0.360621 0.751050 0.111231 -0.087377
C68   C     C_R   0.734290 0.807078 0.896144 -0.164299
C69   C     C_R   0.849792 0.266158 0.014805 0.104148
C70   C     C_R   0.253623 0.330313 0.990492 0.200076
C71   C     C_R   0.350912 0.766229 0.015336 0.151728
C72   C     C_R   0.753847 0.828056 0.994904 0.206438
C73   C     C_R   0.809237 0.228649 0.927200 -0.116189
C74   C     C_R   0.340405 0.315745 0.087190 -0.063584
C75   C     C_R   0.307928 0.729470 0.926470 -0.111196
C76   C     C_R   0.836577 0.811085 0.093945 -0.065766
H41   H     H_    0.805772 0.237299 0.854584 0.151016
H42   H     H_    0.364551 0.334435 0.164861 0.129773
H43   H     H_    0.303090 0.738460 0.853128 0.133121
H44   H     H_    0.856530 0.827175 0.171857 0.128572
C77   C     C_R   0.261923 0.683255 0.927337 -0.108010
C78   C     C_R   0.890920 0.768959 0.095037 -0.096403
C79   C     C_R   0.764563 0.181791 0.928612 -0.106258
C80   C     C_R   0.393819 0.273372 0.086146 -0.059186
H45   H     H_    0.221606 0.658166 0.854137 0.132285
H46   H     H_    0.948374 0.753456 0.173522 0.120025
H47   H     H_    0.726969 0.155684 0.856821 0.177373
H48   H     H_    0.457528 0.260906 0.162849 0.144878
C81   C     C_R   0.259832 0.673181 0.017605 0.141352
C82   C     C_R   0.863856 0.743251 0.997012 0.140919
C83   C     C_R   0.760803 0.171966 0.017798 0.113708
C84   C     C_R   0.358843 0.243416 0.989665 0.128930
C85   C     C_R   0.317935 0.704786 0.113535 -0.083535
C86   C     C_R   0.791522 0.766399 0.897269 -0.146952
C87   C     C_R   0.816120 0.204726 0.112521 -0.073368
C88   C     C_R   0.281355 0.264058 0.890136 -0.145728
C89   C     C_3   0.326442 0.723567 0.215936 0.599103
C90   C     C_3   0.798489 0.796191 0.814414 0.605382
C91   C     C_3   0.819390 0.224399 0.211088 0.582877
C92   C     C_3   0.280334 0.288343 0.797313 0.615184
C93   C     C_3   0.846358 0.281428 0.190410 0.296744
C94   C     C_3   0.218301 0.335101 0.795691 0.377246
C95   C     C_3   0.354880 0.780463 0.196627 0.332112
C96   C     C_3   0.724162 0.836981 0.803224 0.383806
C97   C     C_R   0.874187 0.547015 0.454985 -0.164454
C98   C     C_R   0.882289 0.546945 0.367517 -0.160354
C99   C     C_R   0.423611 0.058759 0.488890 -0.141226
C100  C     C_R   0.424177 0.058650 0.397922 -0.089183
C101  C     C_R   0.896093 0.498874 0.516227 0.043687
C102  C     C_R   0.926046 0.502538 0.352726 0.039207
C103  C     C_R   0.408950 0.008957 0.524510 0.059800
C104  C     C_R   0.431656 0.008842 0.354596 0.059387
C105  C     C_R   0.921279 0.452216 0.484597 0.174947
C106  C     C_R   0.958957 0.459082 0.426090 0.128759
C107  C     C_R   0.406509 0.960625 0.471813 0.142513
C108  C     C_R   0.444448 0.961472 0.412815 0.136954
C109  C     C_3   0.788230 0.574168 0.289284 0.585493
C110  C     C_3   0.780910 0.577239 0.389132 0.589385
C111  C     C_3   0.422035 0.120324 0.390224 0.513817
C112  C     C_3   0.397517 0.119327 0.476775 0.570333
S1    S     S_3+6 0.424212 0.685161 0.330920 0.017196
O1    O     O_2   0.403500 0.625265 0.322218 -0.352135
O2    O     O_2   0.511962 0.690932 0.334789 -0.197549
O3    O     O_3   0.444842 0.709279 0.448203 -0.449254
H49   H     H_    0.500623 0.688618 0.506678 0.392311
S2    S     S_3+6 0.759902 0.756305 0.692639 0.034197
O4    O     O_2   0.681618 0.718011 0.664382 -0.293426
O5    O     O_2   0.724979 0.794358 0.598453 -0.197817
O6    O     O_3   0.849441 0.718740 0.710821 -0.480772
H50   H     H_    0.873561 0.739656 0.675971 0.401519
S3    S     S_3+6 0.916427 0.187498 0.330169 -0.000973
O7    O     O_2   0.903221 0.126796 0.316553 -0.348004
O8    O     O_2   0.009164 0.198445 0.347742 -0.224804
O9    O     O_3   0.922209 0.206390 0.441921 -0.452746
H51   H     H_    0.976415 0.231589 0.483213 0.413273
S4    S     S_3+6 0.220154 0.245277 0.675466 0.028393
O10   O     O_2   0.141406 0.214582 0.666268 -0.345748
O11   O     O_2   0.181273 0.280004 0.576055 -0.150773
O12   O     O_3   0.292935 0.199595 0.677547 -0.461164
H52   H     H_    0.250989 0.171402 0.622981 0.411572
S5    S     S_3+6 0.227282 0.727355 0.226224 0.030340
O13   O     O_2   0.214721 0.675772 0.268659 -0.347585
O14   O     O_2   0.247126 0.771155 0.307852 -0.178725
O15   O     O_3   0.126032 0.741067 0.104858 -0.457083
H53   H     H_    0.081031 0.751623 0.122104 0.378524
S6    S     S_3+6 0.917532 0.820375 0.875296 0.038602
O16   O     O_2   0.979565 0.771919 0.896753 -0.244346
O17   O     O_2   0.919196 0.857719 0.797925 -0.221899
O18   O     O_3   0.961979 0.852793 0.994949 -0.477028
H54   H     H_    0.025815 0.864624 0.019866 0.406136
S7    S     S_3+6 0.715919 0.226658 0.213666 0.035085
O19   O     O_2   0.705208 0.175565 0.259194 -0.311156
O20   O     O_2   0.728078 0.271946 0.289096 -0.183821
O21   O     O_3   0.616694 0.236563 0.087959 -0.465405
H55   H     H_    0.571622 0.253442 0.100092 0.385562
S8    S     S_3+6 0.398046 0.304037 0.837560 0.072548
O22   O     O_2   0.451666 0.251514 0.860176 -0.255262
O23   O     O_2   0.391835 0.332893 0.745932 -0.184800
O24   O     O_3   0.458313 0.342577 0.951821 -0.469802
H56   H     H_    0.508454 0.360406 0.950632 0.416685
I1    I     I_    0.967233 0.318100 0.335618 -0.120194
I2    I     I_    0.070389 0.333912 0.658879 -0.194895
I3    I     I_    0.480509 0.814057 0.342283 -0.067984
I4    I     I_    0.578906 0.824911 0.662498 -0.140264
S9    S     S_3+6 0.752581 0.332645 0.114102 0.038883
O25   O     O_2   0.710048 0.350718 0.172143 -0.126078
O26   O     O_2   0.791232 0.383060 0.097631 -0.310882
O27   O     O_3   0.666233 0.307154 0.990571 -0.465792
H57   H     H_    0.671882 0.326259 0.937003 0.368885
S10   S     S_3+6 0.262187 0.404909 0.825738 0.021936
O28   O     O_2   0.298026 0.419407 0.759358 -0.193900
O29   O     O_2   0.182673 0.443160 0.796177 -0.304979
O30   O     O_3   0.349044 0.414552 0.959013 -0.499466
H58   H     H_    0.366711 0.453539 0.965618 0.378329
S11   S     S_3+6 0.263150 0.833371 0.126508 0.011654
O31   O     O_2   0.223314 0.850358 0.188042 -0.185547
O32   O     O_2   0.302598 0.883910 0.111856 -0.341154
O33   O     O_3   0.174953 0.810218 0.001930 -0.461434
H59   H     H_    0.141704 0.843417 0.958919 0.393741
S12   S     S_3+6 0.752332 0.909381 0.828843 0.032634
O34   O     O_2   0.787851 0.928734 0.764683 -0.178243
O35   O     O_2   0.664489 0.941078 0.792544 -0.317687
O36   O     O_3   0.833448 0.923189 0.962147 -0.488087
H60   H     H_    0.839542 0.963539 0.966919 0.377887
I5    I     I_    0.831076 0.384229 0.440430 -0.008085
I6    I     I_    0.105045 0.440146 0.512124 -0.133016
I7    I     I_    0.315759 0.894980 0.441800 -0.041966
I8    I     I_    0.589897 0.939435 0.512707 -0.089540
S13   S     S_3+6 0.706550 0.529129 0.175093 0.071930
O37   O     O_2   0.716250 0.535507 0.082885 -0.223439
O38   O     O_2   0.726208 0.470218 0.208788 -0.211130
O39   O     O_3   0.594962 0.545039 0.128256 -0.447995
H61   H     H_    0.555988 0.515327 0.075938 0.380282
S14   S     S_3+6 0.795089 0.643537 0.453581 0.068083
O40   O     O_2   0.778843 0.637755 0.540722 -0.214972
O41   O     O_2   0.893249 0.665103 0.506893 -0.281964
O42   O     O_3   0.715871 0.689056 0.362874 -0.402179
H62   H     H_    0.728626 0.723152 0.405643 0.401711
S15   S     S_3+6 0.332444 0.149459 0.257895 0.027603
O43   O     O_2   0.278564 0.104833 0.174525 -0.244983
O44   O     O_2   0.263769 0.185883 0.260083 -0.190157
O45   O     O_3   0.384459 0.188754 0.217588 -0.556573
H63   H     H_    0.404134 0.221913 0.264479 0.374575
S16   S     S_3+6 0.465614 0.169313 0.586856 0.024096
O46   O     O_2   0.568142 0.153972 0.659331 -0.303352
O47   O     O_2   0.453796 0.224154 0.536230 -0.212645
O48   O     O_3   0.427745 0.178577 0.665388 -0.495347
H64   H     H_    0.465680 0.209545 0.714194 0.421002
S17   S     S_3+6 0.800432 0.637771 0.237542 0.030378
O49   O     O_2   0.813552 0.625929 0.149072 -0.301278
O50   O     O_2   0.712079 0.671310 0.188554 -0.192288
O51   O     O_3   0.894240 0.674092 0.335361 -0.500868
H65   H     H_    0.891591 0.708404 0.299346 0.365118
S18   S     S_3+6 0.686211 0.541081 0.381255 0.046232
O52   O     O_2   0.713145 0.534784 0.495353 -0.307622
O53   O     O_2   0.597575 0.574827 0.316445 -0.177671
O54   O     O_3   0.663986 0.478231 0.325762 -0.453771
H66   H     H_    0.614270 0.463413 0.331416 0.390240
S19   S     S_3+6 0.543295 0.142959 0.442959 0.020406
O55   O     O_2   0.565467 0.139791 0.360733 -0.308684
O56   O     O_2   0.561229 0.201276 0.482083 -0.196455
O57   O     O_3   0.621529 0.102240 0.547251 -0.485236
H67   H     H_    0.684205 0.117667 0.575313 0.390310
S20   S     S_3+6 0.274476 0.122351 0.428523 0.057683
O58   O     O_2   0.262883 0.093843 0.507841 -0.335552
O59   O     O_2   0.243286 0.180828 0.419657 -0.128644
O60   O     O_3   0.204734 0.090560 0.306669 -0.469821
H68   H     H_    0.139757 0.095709 0.285784 0.394047
S21   S     S_3+6 0.706174 0.394134 0.644944 -0.055702
O61   O     O_2   0.642977 0.408467 0.525833 -0.268083
O62   O     O_2   0.796580 0.370748 0.669475 -0.317873
O63   O     O_3   0.653179 0.346730 0.671908 -0.575606
H69   H     H_    0.640956 0.315561 0.622584 0.415922
S22   S     S_3+6 0.258800 0.390620 0.360807 -0.031052
O64   O     O_2   0.267254 0.396457 0.465636 -0.220671
O65   O     O_2   0.172326 0.357807 0.280659 -0.301839
O66   O     O_3   0.354728 0.357768 0.386030 -0.559811
H70   H     H_    0.353696 0.321513 0.413920 0.427280
S23   S     S_3+6 0.206325 0.894305 0.645006 -0.071064
O67   O     O_2   0.143414 0.908987 0.526083 -0.272216
O68   O     O_2   0.296919 0.871088 0.669693 -0.322880
O69   O     O_3   0.152902 0.846730 0.670949 -0.582409
H71   H     H_    0.141460 0.815578 0.621924 0.392709
S24   S     S_3+6 0.757360 0.891698 0.362632 -0.054044
O70   O     O_2   0.762739 0.899691 0.465275 -0.234577
O71   O     O_2   0.671288 0.858689 0.282216 -0.321195
O72   O     O_3   0.854017 0.857720 0.392755 -0.570542
H72   H     H_    0.853232 0.822791 0.424848 0.400259

loop_
_geom_bond_atom_site_label_1
_geom_bond_atom_site_label_2
_geom_bond_distance
_ccdc_geom_bond_type
S11   O32   1.499662 D    
C57   C61   1.534942 S    
C30   C34   1.395140 A    
S4    O12   1.668505 S    
C60   C64   1.533342 S    
C59   C63   1.535404 S    
O45   H63   0.990768 S    
S16   O46   1.500527 D    
C95   S11   1.836376 S    
C74   H42   1.081225 S    
C82   C86   1.402413 A    
C93   S9    1.835448 S    
S10   O29   1.503392 D    
S14   O40   1.502544 D    
C69   C73   1.405304 A    
C66   C70   1.406818 A    
C46   C57   1.446593 S    
C72   C76   1.405058 A    
S24   O70   1.502122 D    
C66   C88   1.394855 A    
C26   H22   1.074634 S    
C71   C75   1.404556 A    
C4    N4    1.316240 A    
S10   O30   1.681946 S    
S21   O62   1.502187 D    
C111  C112  1.590173 S    
S9    O25   1.498347 D    
N17   Ni5   1.861182 S    
C9    H9    1.079406 S    
C33   C82   1.456884 S    
C11   H11   1.063485 S    
C12   H12   1.049122 S    
N6    N26   1.396865 A    
S2    O4    1.503106 D    
C11   N11   1.320150 A    
S22   O64   1.501405 D    
C27   C39   1.386083 A    
C68   C86   1.394742 A    
C98   C102  1.408766 A    
C47   C60   1.446421 S    
C12   C44   1.348010 A    
C76   H44   1.079870 S    
C8    H8    1.065972 S    
N12   Ni3   1.860220 S    
N20   Ni8   1.882144 S    
C5    N5    1.319575 A    
N22   Ni2   1.873290 S    
N10   N18   1.388930 A    
S13   O38   1.501846 D    
N26   Ni5   1.856300 S    
C109  S13   1.823675 S    
C38   C70   1.464773 S    
C10   N10   1.339825 A    
C14   S22   1.766693 S    
S16   O48   1.667892 S    
C32   H28   1.073520 S    
C54   C61   1.537446 S    
N18   Ni6   1.882144 S    
N13   N21   1.389176 A    
C63   C64   1.545509 S    
N32   Ni3   1.888294 S    
C21   H17   1.081195 S    
C51   C55   1.542621 S    
C31   N31   1.341691 A    
N6    Ni6   1.872741 S    
C23   H19   1.080420 S    
C51   C60   1.531194 S    
C99   C112  1.526310 S    
C24   H20   1.074115 S    
C52   C59   1.530585 S    
C10   C42   1.378501 A    
C39   C71   1.444695 S    
S24   O72   1.681228 S    
C90   S2    1.814530 S    
S7    O21   1.679865 S    
S15   O44   1.500228 D    
C5    C37   1.359338 A    
C3    N3    1.324778 A    
C107  C108  1.382167 A    
N3    N31   1.396870 A    
C20   H16   1.074996 S    
C92   S8    1.813046 S    
C1    C33   1.376816 A    
C105  C106  1.383485 A    
S9    O27   1.685213 S    
C3    C35   1.369407 A    
C77   H45   1.083091 S    
C10   H10   1.077947 S    
S23   O68   1.502759 D    
C14   C46   1.374892 A    
C112  S16   1.825737 S    
C56   C63   1.538383 S    
C25   N25   1.345822 A    
C106  I6    2.127910 S    
C27   N27   1.344650 A    
C40   C72   1.462238 S    
C53   H29   1.109262 S    
C73   C79   1.399012 A    
C74   C80   1.391928 A    
S4    O11   1.502885 D    
O30   H58   0.990487 S    
C65   C93   1.515803 S    
C42   C101  1.461970 S    
O63   H69   0.990635 S    
C50   C54   1.532095 S    
C54   C58   1.526496 S    
C23   N23   1.330371 A    
C63   H39   1.106538 S    
C51   H35   1.102029 S    
C98   C109  1.505913 S    
C85   C89   1.524460 S    
C49   H33   1.100882 S    
C35   C84   1.462815 S    
C77   C81   1.404821 A    
S20   O59   1.504020 D    
C17   N17   1.327418 A    
C4    C36   1.358193 A    
O42   H62   0.990761 S    
S1    O2    1.504498 D    
C95   I3    2.162032 S    
C93   I1    2.154950 S    
C6    C38   1.381231 A    
S20   O60   1.682362 S    
C27   H23   1.070122 S    
C75   H43   1.082116 S    
C65   C87   1.372942 A    
C2    C34   1.359178 A    
C48   C59   1.444834 S    
N5    Ni5   1.878412 S    
C16   S24   1.766514 S    
C8    C40   1.385327 A    
C89   S1    1.831933 S    
C15   N15   1.324704 A    
N29   Ni2   1.882656 S    
C23   C47   1.385566 A    
C55   C59   1.527050 S    
N31   Ni4   1.882656 S    
C67   C71   1.405997 A    
C13   C45   1.388609 A    
S5    O13   1.495152 D    
N15   Ni8   1.848402 S    
C55   H31   1.109442 S    
O6    H50   0.990658 S    
C96   I4    2.176607 S    
N2    N30   1.396864 A    
C109  S17   1.816727 S    
N8    Ni8   1.872741 S    
C110  S18   1.821937 S    
C111  S19   1.860892 S    
C108  I8    2.129209 S    
N4    Ni4   1.882407 S    
C79   C83   1.405044 A    
N4    N32   1.396864 A    
C68   C72   1.407647 A    
S12   O34   1.501079 D    
C97   C101  1.410562 A    
S8    O24   1.679904 S    
C5    H5    1.072538 S    
C100  C104  1.414187 A    
C6    N6    1.322636 A    
S16   O47   1.502895 D    
O33   H59   0.990411 S    
C94   S10   1.818239 S    
C28   N28   1.335755 A    
C49   C50   1.534493 S    
S14   O41   1.502734 D    
C13   N13   1.326529 A    
C109  C110  1.580974 S    
S19   O57   1.683655 S    
C103  C107  1.401470 A    
C80   C84   1.402276 A    
C101  C105  1.392657 A    
C16   N16   1.339443 A    
S3    O9    1.683619 S    
O3    H49   0.990040 S    
N15   N23   1.389176 A    
S6    O16   1.501463 D    
C81   C85   1.410986 A    
N9    Ni2   1.881202 S    
C32   N32   1.341518 A    
N30   Ni1   1.888294 S    
C89   S5    1.824370 S    
C29   H25   1.080335 S    
N11   Ni4   1.881202 S    
C84   C88   1.404412 A    
C9    N9    1.337133 A    
C25   C37   1.386162 A    
C22   H18   1.071535 S    
C31   H27   1.077969 S    
S14   O42   1.679873 S    
O24   H56   0.990133 S    
O15   H53   0.990206 S    
O36   H60   0.990441 S    
C75   C77   1.396723 A    
C7    H7    1.070536 S    
C96   S12   1.817195 S    
C1    H1    1.070899 S    
C104  C108  1.397193 A    
C19   N19   1.327740 A    
S5    O15   1.677265 S    
C3    H3    1.061756 S    
S18   O52   1.502868 D    
S2    O5    1.504305 D    
S22   O65   1.500867 D    
S17   O51   1.679752 S    
S1    O1    1.497494 D    
C78   H46   1.080789 S    
C111  S15   1.817839 S    
C92   C94   1.556158 S    
C36   C83   1.443465 S    
S15   O43   1.503091 D    
C25   H21   1.070100 S    
C15   S23   1.770174 S    
C86   C90   1.517040 S    
C24   C48   1.355921 A    
C28   H24   1.074434 S    
C56   H32   1.110781 S    
C29   N29   1.335194 A    
S22   O66   1.681374 S    
O69   H71   0.990516 S    
S11   O33   1.682865 S    
S13   O37   1.502471 D    
S12   O36   1.681112 S    
C49   C58   1.532190 S    
N1    Ni1   1.861022 S    
C19   C43   1.395564 A    
C66   C94   1.505989 S    
N3    Ni3   1.861022 S    
O60   H68   0.990529 S    
C92   S4    1.817420 S    
C1    N1    1.328193 A    
S18   O54   1.676394 S    
C41   C102  1.454848 S    
C62   H38   1.109998 S    
N1    N29   1.396870 A    
O12   H52   0.990058 S    
C56   C60   1.526005 S    
C19   H15   1.064558 S    
S10   O28   1.501323 D    
C30   H26   1.080808 S    
C44   C103  1.444484 S    
S19   O55   1.496688 D    
N12   N20   1.388930 A    
S3    O7    1.497141 D    
C78   C82   1.401718 A    
N28   Ni7   1.856300 S    
C80   H48   1.080780 S    
C18   N18   1.331172 A    
S7    O20   1.500328 D    
N21   Ni1   1.878541 S    
C17   C41   1.391716 A    
N23   Ni3   1.878541 S    
S9    O26   1.501269 D    
O72   H72   0.990601 S    
O21   H55   0.989664 S    
N25   Ni6   1.877747 S    
O27   H57   0.990334 S    
C61   H37   1.107609 S    
C64   H40   1.110010 S    
C21   N21   1.331190 A    
C51   C52   1.535702 S    
C67   C85   1.371974 A    
C30   N30   1.340780 A    
C105  I5    2.117576 S    
C99   C100  1.374571 A    
C89   C95   1.567581 S    
C9    C41   1.378769 A    
C97   C98   1.403099 A    
N19   Ni7   1.861184 S    
C11   C43   1.353213 A    
S8    O23   1.503463 D    
N2    Ni2   1.882407 S    
C112  S20   1.821435 S    
C73   H41   1.082242 S    
S23   O67   1.502446 D    
C16   C48   1.375351 A    
C12   N12   1.309077 A    
S13   O39   1.681391 S    
C65   C69   1.405207 A    
C45   C58   1.452063 S    
C21   C45   1.386755 A    
C26   N26   1.342832 A    
O54   H66   0.991232 S    
C6    H6    1.056851 S    
N13   Ni6   1.848402 S    
C4    H4    1.053887 S    
S21   O61   1.502713 D    
S8    O22   1.501679 D    
C15   C47   1.386198 A    
C18   C42   1.384323 A    
O18   H54   0.990121 S    
C50   H34   1.111154 S    
O51   H65   0.990680 S    
C14   N14   1.339916 A    
C34   C81   1.440034 S    
N24   Ni4   1.873290 S    
C20   C44   1.396257 A    
C91   S3    1.835118 S    
C32   C36   1.392172 A    
S15   O45   1.669174 S    
C49   C53   1.541650 S    
N8    N28   1.396865 A    
O48   H64   0.989939 S    
N16   Ni7   1.853731 S    
C17   H13   1.060670 S    
C97   C110  1.513362 S    
C99   C103  1.420536 A    
C7    N7    1.316972 A    
S23   O69   1.682134 S    
C76   C78   1.385974 A    
C8    N8    1.328171 A    
N27   Ni8   1.877747 S    
C2    H2    1.056350 S    
C94   I2    2.169293 S    
C22   N22   1.330007 A    
N9    N17   1.388937 A    
N11   N19   1.388935 A    
S4    O10   1.504503 D    
S12   O35   1.502212 D    
O9    H51   0.988219 S    
C87   C91   1.522484 S    
C100  C111  1.512176 S    
C83   C87   1.410085 A    
C55   C64   1.553312 S    
C22   C46   1.356493 A    
C53   C62   1.554050 S    
C54   H30   1.106021 S    
C79   H47   1.081659 S    
C29   C33   1.384148 A    
N14   Ni5   1.853731 S    
C88   C92   1.515336 S    
C68   C96   1.502407 S    
C31   C35   1.386722 A    
S19   O56   1.499966 D    
C50   C57   1.530138 S    
S24   O71   1.500520 D    
S20   O58   1.502185 D    
S3    O8    1.504631 D    
S6    O17   1.502482 D    
S1    O3    1.682175 S    
N16   N24   1.389171 A    
O39   H61   0.990594 S    
S11   O31   1.498300 D    
C2    N2    1.314831 A    
S17   O49   1.500511 D    
C28   C40   1.392615 A    
S21   O63   1.682696 S    
C67   C95   1.517398 S    
C20   N20   1.337341 A    
O57   H67   0.990547 S    
C37   C69   1.448051 S    
C52   H36   1.110910 S    
C7    C39   1.357175 A    
C58   C62   1.534993 S    
N7    N27   1.396867 A    
C110  S14   1.821210 S    
S6    O18   1.679591 S    
C61   C62   1.546634 S    
C18   H14   1.075469 S    
C13   S21   1.771121 S    
S5    O14   1.501173 D    
S18   O53   1.503158 D    
C107  I7    2.117260 S    
S2    O6    1.683658 S    
S17   O50   1.501954 D    
O66   H70   0.990405 S    
C90   S6    1.814361 S    
C24   N24   1.329269 A    
C102  C106  1.399026 A    
N7    Ni7   1.878412 S    
C26   C38   1.394345 A    
C70   C74   1.404241 A    
N5    N25   1.396867 A    
S7    O19   1.496824 D    
N14   N22   1.389171 A    
N10   Ni1   1.860220 S    
C43   C104  1.443652 S    
C53   C57   1.527645 S    
C91   S7    1.826791 S    
C90   C96   1.557470 S    
C52   C56   1.533627 S    
C91   C93   1.567383 S    
