data_mof_unit_25790.cif
_audit_creation_date              2013-03-05T16:45:55-0500
_audit_creation_method            fapswitch 2.2
_symmetry_space_group_name_H-M    P1
_symmetry_Int_Tables_number       1
_space_group_crystal_system       triclinic
_cell_length_a                    9.843178
_cell_length_b                    10.718092
_cell_length_c                    16.802969
_cell_angle_alpha                 90.058516
_cell_angle_beta                  94.691075
_cell_angle_gamma                 90.529431
_cell_volume                      1766.69811416

loop_
_atom_site_label
_atom_site_type_symbol
_atom_site_description
_atom_site_fract_x
_atom_site_fract_y
_atom_site_fract_z
_atom_type_partial_charge
O1    O     O_R   0.614690 0.316790 0.499990 -0.609934
O2    O     O_R   0.385350 0.316760 0.500000 -0.598473
C1    C     C_R   0.499110 0.260192 0.499066 0.937825
O3    O     O_R   0.627460 0.498860 0.616130 -0.565242
O4    O     O_R   0.398120 0.498820 0.616130 -0.635340
C2    C     C_R   0.518187 0.501028 0.652885 1.025843
Zn1   Zn    Zn3+2 0.653130 0.500020 0.499990 1.065119
Zn2   Zn    Zn3+2 0.346870 0.499980 0.500010 1.045481
O5    O     O_R   0.614650 0.683240 0.500000 -0.618744
O6    O     O_R   0.385310 0.683210 0.500010 -0.634372
O7    O     O_R   0.601880 0.501180 0.383870 -0.579348
O8    O     O_R   0.372540 0.501140 0.383870 -0.579902
C3    C     C_R   0.500079 0.739996 0.498423 0.952772
C4    C     C_R   0.482135 0.497469 0.345939 0.948228
C5    C     C_R   0.531125 0.520127 0.737946 -0.348241
C6    C     C_R   0.478219 0.631129 0.768001 0.130732
C7    C     C_R   0.484922 0.651578 0.850407 0.236283
C8    C     C_R   0.545044 0.560341 0.900907 0.125144
C9    C     C_R   0.604031 0.454090 0.870881 -0.346646
C10   C     C_R   0.598429 0.432114 0.789193 0.266776
C11   C     C_R   0.583378 0.494875 0.134866 -0.275338
C12   C     C_R   0.592801 0.490358 0.217085 0.285810
C13   C     C_R   0.456833 0.499960 0.091012 0.140313
N1    N     N_2   0.543227 0.571165 0.983309 -0.095666
N2    N     N_2   0.450161 0.505433 0.007310 -0.111372
C14   C     C_R   0.472025 0.490111 0.258008 -0.343875
H1    H     H_    0.676553 0.493748 0.104609 0.202821
H2    H     H_    0.650926 0.386532 0.912192 0.203167
C15   C     C_R   0.342868 0.488006 0.212956 0.155416
C16   C     C_R   0.336564 0.491743 0.129292 0.400045
C17   C     C_R   0.599538 0.065737 0.459261 -0.008634
C18   C     C_R   0.494114 0.128921 0.491264 -0.083780
C19   C     C_R   0.377986 0.063340 0.511284 -0.127444
H3    H     H_    0.290333 0.110583 0.531590 0.222295
C20   C     C_R   0.379115 0.934642 0.511467 -0.086718
H4    H     H_    0.291842 0.885310 0.531838 0.208735
C21   C     C_R   0.496562 0.871842 0.491843 -0.050828
C22   C     C_R   0.601498 0.938432 0.459893 -0.027597
C23   C     C_3   0.755193 0.936235 0.470833 0.403399
C24   C     C_3   0.751485 0.079522 0.470098 -0.000474
H5    H     H_    0.788906 0.124867 0.527474 0.142485
C25   C     C_R   0.075935 0.408483 0.539373 0.195762
N3    N     N_R   0.142860 0.499130 0.500540 -0.154558
C26   C     C_R   0.066289 0.579350 0.452592 0.005183
H6    H     H_    0.116273 0.645462 0.415827 0.194394
C27   C     C_R   0.922017 0.578115 0.451942 0.044167
H7    H     H_    0.862713 0.641414 0.413915 0.215106
N4    N     N_R   0.857210 0.499170 0.500530 -0.137129
C28   C     C_R   0.933672 0.410351 0.540220 0.062366
C29   C     C_3   0.941224 0.376186 0.626856 0.201309
C30   C     C_3   0.096906 0.372565 0.625786 0.132880
H8    H     H_    0.895052 0.282341 0.634557 0.187117
H9    H     H_    0.156801 0.442920 0.662987 0.118176
N5    N     N_R   0.727003 0.486636 0.257116 0.234335
O9    O     O_R   0.770496 0.383631 0.290677 -0.281495
O10   O     O_R   0.814486 0.574619 0.244350 -0.297990
N6    N     N_R   0.809688 0.885845 0.548174 0.173859
O11   O     O_R   0.753409 0.914120 0.613236 -0.359797
O12   O     O_R   0.924726 0.826499 0.554060 -0.420221
N7    N     N_R   0.817891 0.881410 0.402593 0.217927
O13   O     O_R   0.948309 0.894223 0.396678 -0.314101
O14   O     O_R   0.743170 0.827072 0.344833 -0.349049
N8    N     N_R   0.807606 0.136389 0.400446 0.269046
O15   O     O_R   0.748133 0.121063 0.328923 -0.272971
O16   O     O_R   0.922587 0.197471 0.409503 -0.308126
O17   O     O_3   0.890136 0.463073 0.681126 -0.596361
C31   C     C_3   0.934356 0.588780 0.674415 0.162526
H10   H     H_    0.844198 0.646630 0.656073 0.224215
H11   H     H_    0.009334 0.605044 0.629652 0.101445
C32   C     C_3   0.997768 0.635733 0.755271 -0.324773
H12   H     H_    0.091352 0.581876 0.772972 0.217037
H13   H     H_    0.027206 0.735435 0.749384 0.252094
C33   C     C_3   0.899589 0.624492 0.820726 -0.728034
H14   H     H_    0.802773 0.673305 0.802932 0.264669
H15   H     H_    0.946649 0.667421 0.876630 0.256498
H16   H     H_    0.877891 0.524799 0.832767 0.281204
O18   O     O_3   0.147413 0.249837 0.633668 -0.626867
C34   C     C_3   0.156377 0.212972 0.714866 0.082651
H17   H     H_    0.128145 0.112499 0.717020 0.208098
H18   H     H_    0.084552 0.263239 0.751574 0.164363
C35   C     C_3   0.302597 0.229308 0.751525 -0.326731
H19   H     H_    0.370663 0.168190 0.719475 0.286820
H20   H     H_    0.335069 0.327709 0.744620 0.216162
C36   C     C_3   0.315255 0.196519 0.840133 -0.825272
H21   H     H_    0.252954 0.260970 0.873644 0.236192
H22   H     H_    0.423389 0.205915 0.864095 0.288755
H23   H     H_    0.280850 0.098919 0.849104 0.301125
N9    N     N_R   0.658790 0.320174 0.760317 0.246251
O19   O     O_R   0.756999 0.265783 0.803308 -0.390599
O20   O     O_R   0.611071 0.266761 0.694162 -0.421229
N10   N     N_R   0.217492 0.480953 0.250659 0.237014
O21   O     O_R   0.126874 0.567806 0.237967 -0.278221
O22   O     O_R   0.184128 0.378125 0.285616 -0.329920
N11   N     N_R   0.431775 0.763981 0.882534 0.239197
O23   O     O_R   0.360538 0.759653 0.944396 -0.333960
O24   O     O_R   0.456423 0.871785 0.850916 -0.314646
O25   O     O_3   0.212044 0.498568 0.085038 -0.568975
C37   C     C_3   0.167833 0.376645 0.063373 0.126033
H24   H     H_    0.153777 0.319666 0.117592 0.185210
H25   H     H_    0.242686 0.330048 0.027098 0.127707
C38   C     C_3   0.031286 0.384372 0.013407 -0.333835
H26   H     H_    0.956423 0.433494 0.048106 0.259996
H27   H     H_    0.044665 0.438675 0.958195 0.230892
C39   C     C_3   0.975329 0.254943 0.990419 -0.848704
H28   H     H_    0.046348 0.205376 0.953441 0.266987
H29   H     H_    0.875377 0.263979 0.955406 0.289647
H30   H     H_    0.960439 0.199185 0.044775 0.288729
N12   N     N_R   0.420563 0.724054 0.714499 0.237538
O26   O     O_R   0.500623 0.793559 0.675148 -0.355776
O27   O     O_R   0.292151 0.751601 0.714104 -0.402058

loop_
_geom_bond_atom_site_label_1
_geom_bond_atom_site_label_2
_geom_bond_distance
_ccdc_geom_bond_type
N8    O16   1.300241 A    
C38   H26   1.112183 S    
C33   H14   1.110943 S    
C20   H4    1.083875 S    
C36   H23   1.110775 S    
C15   N10   1.433983 S    
C39   H29   1.109356 S    
O25   C37   1.411444 S    
C12   N5    1.433427 S    
O18   C34   1.416850 S    
C17   C24   1.497745 S    
Zn1   O7    1.975053 S    
C16   O25   1.383205 S    
C21   C22   1.393696 A    
C24   N8    1.465386 S    
C8    N1    1.390919 S    
C20   C21   1.405174 A    
C36   H22   1.110404 S    
O4    C2    1.287948 A    
O7    C4    1.293552 A    
C34   H18   1.117249 S    
N6    O12   1.300643 A    
C5    C6    1.412420 A    
C23   N6    1.470046 S    
N12   O26   1.299460 A    
N7    O14   1.302405 A    
C8    C9    1.395537 A    
O5    C3    1.284671 A    
C2    C5    1.438786 S    
N5    O9    1.300246 A    
C36   H21   1.110781 S    
C9    C10   1.388983 A    
N12   O27   1.300149 A    
C6    C7    1.397807 A    
C29   H8    1.111956 S    
Zn2   N3    2.008791 S    
C32   H12   1.111568 S    
C3    C21   1.418085 S    
C25   C30   1.500900 S    
O17   C31   1.419498 S    
C11   H1    1.084531 S    
C38   H27   1.111963 S    
C11   C12   1.377981 A    
C33   H15   1.110249 S    
C1    C18   1.412959 S    
O3    Zn1   1.988211 S    
C39   H28   1.110950 S    
C35   H20   1.108167 S    
C26   C27   1.419178 A    
C35   H19   1.111041 S    
C27   N4    1.366035 A    
C5    C10   1.410722 A    
N5    O10   1.300929 A    
C31   H10   1.110322 S    
C13   C16   1.394883 A    
N1    N2    1.243887 D    
O3    C2    1.283728 A    
C23   C24   1.536577 S    
C34   H17   1.111037 S    
C29   C30   1.534832 S    
N7    O13   1.301666 A    
O1    C1    1.283309 A    
N3    C26   1.367660 A    
C30   O18   1.413038 S    
C15   C16   1.402713 A    
N10   O22   1.301432 A    
C17   C18   1.388583 A    
Zn2   O8    1.988211 S    
C32   C33   1.526457 S    
C7    C8    1.398844 A    
C4    C14   1.474689 S    
N11   O24   1.301291 A    
C9    H2    1.083526 S    
C29   O17   1.426045 S    
N4    C28   1.360109 A    
N9    O20   1.300905 A    
C28   C29   1.497562 S    
C38   C39   1.525446 S    
C37   H25   1.115108 S    
C11   C13   1.395956 A    
C33   H16   1.109766 S    
C25   N3    1.365072 A    
N10   O21   1.300885 A    
C35   C36   1.525561 S    
C26   H6    1.081655 S    
C31   H11   1.108820 S    
Zn1   O5    2.003398 S    
C27   H7    1.075417 S    
C24   H5    1.113098 S    
O1    Zn1   1.996557 S    
O2    Zn2   2.003399 S    
O8    C4    1.297959 A    
O6    C3    1.280471 A    
O4    Zn2   1.975053 S    
C37   C38   1.528357 S    
C17   C22   1.364820 A    
C31   C32   1.530620 S    
Zn1   N4    2.008180 S    
O2    C1    1.279497 A    
C18   C19   1.400845 A    
C34   C35   1.526987 S    
N6    O11   1.302061 A    
C22   C23   1.509380 S    
C23   N7    1.470378 S    
C10   N9    1.444656 S    
C19   C20   1.379545 A    
C19   H3    1.083090 S    
C13   N2    1.403902 S    
N11   O23   1.301168 A    
C6    N12   1.432151 S    
C25   C28   1.401886 A    
N8    O15   1.302601 A    
N9    O19   1.301238 A    
C14   C15   1.425425 A    
Zn2   O6    1.996557 S    
C37   H24   1.114584 S    
C12   C14   1.421183 A    
C32   H13   1.111246 S    
C7    N11   1.439789 S    
C30   H9    1.112425 S    
C39   H30   1.110952 S    
