data_mof_unit_18809.cif
_audit_creation_date              2012-12-11T20:22:16-0500
_audit_creation_method            fapswitch 2.2
_symmetry_space_group_name_H-M    P1
_symmetry_Int_Tables_number       1
_space_group_crystal_system       triclinic
_cell_length_a                    8.454962
_cell_length_b                    17.088685
_cell_length_c                    27.020095
_cell_angle_alpha                 99.270615
_cell_angle_beta                  93.190768
_cell_angle_gamma                 80.704692
_cell_volume                      3800.62961538

loop_
_atom_site_label
_atom_site_type_symbol
_atom_type_description
_atom_site_fract_x
_atom_site_fract_y
_atom_site_fract_z
_atom_type_partial_charge
Ba1   Ba    Ba6+2 0.860160 0.462360 0.521850 1.628767
Ba2   Ba    Ba6+2 0.329680 0.537570 0.478140 1.658628
C1    C     C_3   0.576472 0.220955 0.694662 -0.312192
C2    C     C_R   0.888833 0.572358 0.178338 0.593651
C3    C     C_2   0.741174 0.543081 0.271331 -0.103713
C4    C     C_3   0.106680 0.227447 0.631622 0.385549
C5    C     C_3   0.720753 0.573094 0.326523 -0.071584
C6    C     C_1   0.978067 0.487371 0.341949 0.019972
C7    C     C_2   0.013632 0.481569 0.293517 -0.174379
C8    C     C_2   0.888516 0.508633 0.254778 0.218465
C9    C     C_R   0.006086 0.498921 0.100137 -0.118150
C10   C     C_R   0.041752 0.430061 0.123775 -0.026423
C11   C     C_R   0.117573 0.358555 0.096087 -0.057029
C12   C     C_3   0.596843 0.268809 0.652988 0.460323
C13   C     C_R   0.925835 0.570553 0.127286 -0.018674
C14   C     C_2   0.843606 0.532022 0.360560 -0.058766
C15   C     C_2   0.352775 0.482870 0.640943 -0.288026
C16   C     C_3   0.118350 0.149763 0.654296 -0.132702
C17   C     C_R   0.147587 0.418524 0.968542 0.012559
C18   C     C_R   0.079186 0.565098 0.977327 0.010396
C19   C     C_R   0.131607 0.490330 0.947153 0.012153
C20   C     C_R   0.191199 0.345060 0.936816 -0.127738
C21   C     C_R   0.224527 0.341183 0.886209 0.168395
C22   C     C_R   0.216578 0.412335 0.864903 -0.008921
C23   C     C_3   0.521361 0.652538 0.637609 0.265165
C24   C     C_R   0.170184 0.487324 0.895625 -0.138439
C25   C     C_R   0.163054 0.559175 0.874977 -0.067218
C26   C     C_R   0.197406 0.553989 0.823188 0.594361
C27   C     C_R   0.253975 0.410614 0.813852 0.603954
C28   C     C_3   0.260541 0.292608 0.340323 0.319865
C29   C     C_2   0.442451 0.457037 0.728051 -0.110820
C30   C     C_3   0.491501 0.473955 0.678003 -0.073634
C31   C     C_1   0.207087 0.512037 0.657287 0.073792
C32   C     C_2   0.164540 0.507618 0.703468 -0.086744
C33   C     C_2   0.287296 0.478394 0.741707 0.225395
C34   C     C_3   0.556647 0.671260 0.694944 0.125942
C35   C     C_R   0.118143 0.422119 0.020758 0.034171
C36   C     C_R   0.049048 0.495748 0.049039 0.040712
C37   C     C_R   0.020500 0.566054 0.026353 0.018419
C38   C     C_R   0.154375 0.354471 0.045862 -0.101539
C39   C     C_R   0.881521 0.637736 0.102061 0.159023
C40   C     C_3   0.168476 0.273369 0.290221 -0.128896
C41   C     C_R   0.094268 0.636206 0.958201 0.142003
C42   C     C_R   0.128959 0.633789 0.907516 0.129788
C43   C     C_R   0.925910 0.634094 0.052467 -0.107121
C44   C     C_2   0.417566 0.278245 0.499168 -0.150511
C45   C     C_3   0.915911 0.765841 0.361621 0.337145
C46   C     C_3   0.281546 0.228369 0.487285 0.059620
C47   C     C_2   0.343757 0.138764 0.477058 -0.004371
C48   C     C_2   0.504680 0.112999 0.474643 0.033635
C49   C     C_2   0.617575 0.172766 0.478499 -0.194707
C50   C     C_1   0.560425 0.249773 0.480602 0.045136
C51   C     C_R   0.799264 0.869114 0.482827 0.064796
C52   C     C_3   0.048971 0.722460 0.607838 0.241692
C53   C     C_R   0.864578 0.787965 0.481187 0.002767
C54   C     C_R   0.626319 0.763177 0.519275 0.052278
C55   C     C_R   0.556426 0.842951 0.518086 -0.181136
C56   C     C_3   0.924006 0.789145 0.309229 -0.068857
C57   C     C_R   0.641172 0.896734 0.500130 -0.005665
C58   C     C_2   0.573387 0.027004 0.467819 -0.091148
C59   C     C_2   0.564825 0.981998 0.503758 -0.068401
C60   C     C_R   0.783573 0.736515 0.502884 -0.130637
C61   C     C_3   0.113733 0.795430 0.636185 -0.372170
C62   C     C_3   0.779228 0.272769 0.362452 0.331383
C63   C     C_3   0.747960 0.284375 0.307565 -0.357370
C64   C     C_3   0.811367 0.182683 0.366099 -0.386668
C65   C     C_3   0.043759 0.728223 0.276616 -0.293430
C66   C     C_3   0.757743 0.797507 0.283353 -0.399705
C67   C     C_3   0.465365 0.748137 0.368734 0.398973
C68   C     C_3   0.140681 0.298108 0.671097 -0.295976
C69   C     C_3   0.222747 0.081420 0.466711 -0.379207
C70   C     C_3   0.386778 0.356971 0.533499 -0.261393
C71   C     C_3   0.349105 0.214191 0.355486 -0.339021
C72   C     C_3   0.396481 0.828541 0.352735 -0.383532
C73   C     C_R   0.000417 0.433713 0.174470 0.599062
H1    H     H_    0.113931 0.218146 0.289492 0.072865
H2    H     H_    0.631150 0.266112 0.293682 0.129878
H3    H     H_    0.842149 0.247982 0.283102 0.080234
H4    H     H_    0.743927 0.348635 0.304189 0.091548
H5    H     H_    0.479227 0.306567 0.647345 -0.007716
H6    H     H_    0.486062 0.180819 0.682961 0.085541
H7    H     H_    0.397940 0.638008 0.631033 -0.040930
H8    H     H_    0.607661 0.599323 0.622158 0.047920
H9    H     H_    0.549088 0.617017 0.711733 0.066031
H10   H     H_    0.537109 0.262539 0.729209 0.139048
H11   H     H_    0.241704 0.132101 0.669363 0.100521
H12   H     H_    0.069534 0.322993 0.286068 0.118504
H13   H     H_    0.887228 0.703906 0.357851 -0.012420
H14   H     H_    0.819507 0.808726 0.382034 -0.040911
H15   H     H_    0.964958 0.848668 0.313611 0.098623
H16   H     H_    0.597818 0.741285 0.367949 -0.125576
H17   H     H_    0.429365 0.749185 0.407788 0.079504
H18   H     H_    0.458742 0.876465 0.374107 0.062801
H19   H     H_    0.266958 0.844012 0.360325 0.149890
H20   H     H_    0.980865 0.241951 0.617796 0.108325
H21   H     H_    0.412090 0.826198 0.311991 0.112626
H22   H     H_    0.135943 0.460133 0.281961 0.124630
H23   H     H_    0.927960 0.746108 0.594224 -0.003993
H24   H     H_    0.148701 0.304760 0.113223 0.109791
H25   H     H_    0.534581 0.438778 0.755311 0.088697
H26   H     H_    0.196123 0.288360 0.949921 0.064256
H27   H     H_    0.215396 0.297503 0.027978 0.065436
H28   H     H_    0.646086 0.562149 0.245184 0.112484
H29   H     H_    0.042303 0.529339 0.714884 0.112419
H30   H     H_    0.877321 0.684726 0.034137 0.097128
H31   H     H_    0.383798 0.490798 0.603984 0.057698
H32   H     H_    0.495662 0.008270 0.536753 0.092423
H33   H     H_    0.745863 0.152671 0.480098 0.102497
H34   H     H_    0.129472 0.695353 0.577599 0.075991
H35   H     H_    0.632864 0.002024 0.433120 0.065459
H36   H     H_    0.437437 0.863792 0.532513 0.095246
H37   H     H_    0.092687 0.100964 0.623798 0.097696
H38   H     H_    0.352673 0.329928 0.335376 0.112575
H39   H     H_    0.661116 0.247214 0.579784 0.181163
H40   H     H_    0.743566 0.175257 0.612649 0.180734
H41   H     H_    0.206079 0.248877 0.215068 0.230197
H42   H     H_    0.360424 0.211954 0.249453 0.161149
H43   H     H_    0.701244 0.155194 0.356817 0.101128
H44   H     H_    0.906380 0.151194 0.339979 0.076854
H45   H     H_    0.053647 0.816146 0.672545 0.132741
H46   H     H_    0.855373 0.172872 0.404301 0.090978
H47   H     H_    0.441200 0.788344 0.704506 0.199442
H48   H     H_    0.325089 0.719595 0.713651 0.184019
H49   H     H_    0.801442 0.640186 0.695636 0.200608
H50   H     H_    0.737564 0.735664 0.685796 0.216996
H51   H     H_    0.167084 0.734382 0.290374 0.162407
H52   H     H_    0.023628 0.665868 0.277558 0.146126
H53   H     H_    0.034389 0.739719 0.237167 0.130619
H54   H     H_    0.678099 0.848424 0.304473 0.090467
H55   H     H_    0.764799 0.810807 0.244693 0.159879
H56   H     H_    0.092213 0.844923 0.613360 0.075202
H57   H     H_    0.704899 0.741621 0.281507 0.168412
H58   H     H_    0.171813 0.231191 0.857541 0.168758
H59   H     H_    0.367699 0.233479 0.873418 0.171742
H60   H     H_    0.682374 0.721596 0.104690 0.168094
H61   H     H_    0.852926 0.757400 0.126005 0.169553
H62   H     H_    0.004515 0.753944 0.978681 0.188243
H63   H     H_    0.204081 0.729687 0.990622 0.191395
H64   H     H_    0.254283 0.282547 0.692056 0.115729
H65   H     H_    0.149462 0.350501 0.652669 0.107264
H66   H     H_    0.042457 0.315783 0.698174 0.144324
H67   H     H_    0.244208 0.780918 0.642665 0.121359
H68   H     H_    0.248692 0.709217 0.877982 0.219720
H69   H     H_    0.045975 0.718976 0.863474 0.228225
H70   H     H_    0.786923 0.624111 0.417179 0.141475
H71   H     H_    0.764909 0.531514 0.429419 0.221266
H72   H     H_    0.889282 0.975047 0.496794 0.178694
H73   H     H_    0.871564 0.935755 0.434468 0.162530
H74   H     H_    0.117962 0.108297 0.445153 0.099684
H75   H     H_    0.272328 0.023433 0.444045 0.118212
H76   H     H_    0.181417 0.069716 0.502722 0.127983
H77   H     H_    0.049390 0.188188 0.726740 0.202406
H78   H     H_    0.885444 0.300538 0.376495 0.085893
H79   H     H_    0.994740 0.100612 0.700925 0.176891
H80   H     H_    0.474766 0.394515 0.539396 0.144118
H81   H     H_    0.288975 0.396325 0.516443 0.156379
H82   H     H_    0.372253 0.346096 0.572112 0.058973
H83   H     H_    0.841647 0.648835 0.546463 0.167111
H84   H     H_    0.984329 0.658378 0.515790 0.186652
H85   H     H_    0.434128 0.181867 0.326587 0.068117
H86   H     H_    0.417872 0.227277 0.390833 0.100625
H87   H     H_    0.262810 0.174269 0.361611 0.096955
H88   H     H_    0.691057 0.183438 0.703372 0.134576
N1    N     N_R   0.927194 0.504651 0.201773 -0.424376
N2    N     N_3   0.134855 0.709240 0.891236 -0.501338
N3    N     N_3   0.837001 0.563518 0.412792 -0.416815
N4    N     N_3   0.900802 0.922540 0.470525 -0.492121
N5    N     N_3   0.002767 0.158135 0.693719 -0.518100
N6    N     N_3   0.863036 0.658012 0.510550 -0.432739
N7    N     N_R   0.243509 0.480691 0.793707 -0.427384
N8    N     N_3   0.637034 0.213588 0.606653 -0.492362
N9    N     N_3   0.274238 0.262747 0.247830 -0.490176
N10   N     N_3   0.439358 0.735994 0.719709 -0.453812
N11   N     N_3   0.717882 0.691365 0.706287 -0.452143
N12   N     N_3   0.266263 0.263586 0.856698 -0.441316
N13   N     N_3   0.788198 0.710180 0.126029 -0.444287
N14   N     N_3   0.092699 0.710867 0.991507 -0.510426
O1    O     O_2   0.906370 0.542040 0.619810 -0.466049
O2    O     O_2   0.196745 0.779679 0.476065 -0.476297
O3    O     O_3   0.063442 0.770638 0.387438 -0.592087
O4    O     O_3   0.138370 0.541980 0.559630 -0.510022
O5    O     O_3   0.572820 0.404940 0.471170 -0.464863
O6    O     O_2   0.345130 0.693150 0.532000 -0.474374
O7    O     O_3   0.534862 0.719306 0.614821 -0.662217
O8    O     O_2   0.408941 0.531226 0.325200 -0.469002
O9    O     O_3   0.407384 0.685513 0.336038 -0.591143
O10   O     O_2   0.027004 0.373093 0.193919 -0.616517
O11   O     O_2   0.295528 0.346648 0.787153 -0.596995
O12   O     O_3   0.642860 0.313112 0.388514 -0.620088
O13   O     O_2   0.823332 0.634804 0.202131 -0.597853
O14   O     O_2   0.187952 0.614755 0.804179 -0.602491
O15   O     O_3   0.686580 0.398330 0.583860 -0.490229
O16   O     O_2   0.824392 0.447023 0.670968 -0.481928
O17   O     O_3   0.034274 0.668265 0.640212 -0.636178
O18   O     O_3   0.721785 0.313970 0.667737 -0.599333
O19   O     O_2   0.844570 0.306830 0.467970 -0.476839
O20   O     O_3   0.101900 0.357890 0.557750 -0.482550
O21   O     O_2   0.976323 0.221744 0.528580 -0.521546
O22   O     O_3   0.220673 0.214038 0.593515 -0.628998
O23   O     O_2   0.283330 0.457940 0.380160 -0.446097
O24   O     O_3   0.051340 0.457960 0.440360 -0.438980
O25   O     O_3   0.503130 0.601610 0.416130 -0.478093
O26   O     O_3   0.153723 0.328556 0.379039 -0.656048
O27   O     O_3   0.616890 0.595000 0.528820 -0.462970
O28   O     O_3   0.087820 0.642040 0.442240 -0.443292
P1    P     P_3+3 0.071770 0.565500 0.613330 0.965542
P2    P     P_3+3 0.664870 0.318630 0.453960 0.996724
P3    P     P_3+3 0.138132 0.253536 0.539986 0.963529
P4    P     P_3+3 0.117940 0.434440 0.386660 1.010448
P5    P     P_3+3 0.052182 0.746635 0.447571 0.990745
P6    P     P_3+3 0.675983 0.409270 0.649636 0.934371
P7    P     P_3+3 0.526647 0.694715 0.549145 0.953070
P8    P     P_3+3 0.510999 0.594652 0.350599 0.975915

loop_
_geom_bond_atom_site_label_1
_geom_bond_atom_site_label_2
_ccdc_geom_bond_type
C19   C24   A    
C3    H28   S    
C34   N11   S    
C70   H81   S    
C1    H10   S    
C50   P2    S    
C72   H19   S    
Ba1   O20   S    
Ba2   O25   S    
C12   O18   S    
Ba1   O24   S    
H61   N13   S    
C62   O12   S    
C51   C57   A    
C55   H36   S    
C68   H65   S    
C28   O26   S    
C71   H85   S    
C24   C25   A    
C16   H11   S    
C20   H26   S    
C46   P3    S    
C58   C59   D    
C63   H4    S    
C17   C19   A    
C35   C36   A    
C16   H37   S    
C32   C33   S    
C35   C38   A    
C4    O22   S    
C33   N7    S    
C55   C57   A    
C69   H75   S    
C21   N12   S    
C52   C61   S    
C53   C60   A    
C44   C50   D    
C54   C55   A    
H41   N9    S    
C4    C68   S    
Ba1   Ba2   S    
Ba2   O5    S    
C66   H57   S    
C22   C27   A    
H68   N2    S    
C11   C38   A    
C71   H86   S    
C17   C35   A    
H77   N5    S    
C9    C13   A    
C25   C42   A    
C51   N4    S    
C69   H76   S    
C14   N3    S    
C6    C7    D    
C68   H66   S    
C1    H6    S    
C7    H22   S    
C21   C22   A    
C2    N1    Am   
C61   H56   S    
C27   N7    Am   
C67   H17   S    
C7    C8    S    
C44   C70   S    
C23   O7    S    
C1    H88   S    
C37   C43   A    
H71   N3    S    
C68   H64   S    
C6    C14   D    
C70   H80   S    
C45   H14   S    
C72   H18   S    
H79   N5    S    
H39   N8    S    
Ba2   O24   S    
C15   C31   D    
C28   C40   S    
C4    C16   S    
H50   N11   S    
O24   P4    S    
H48   N10   S    
C43   H30   S    
O7    P7    S    
C34   N10   S    
H70   N3    S    
C51   C53   A    
C36   C37   A    
O17   P1    S    
C44   C46   S    
C31   P1    S    
C57   C59   S    
C63   H2    S    
H59   N12   S    
Ba1   P2    S    
O21   P3    D    
C49   C50   D    
C72   H21   S    
C17   C20   A    
Ba2   O27   S    
C13   C39   A    
H40   N8    S    
C65   H51   S    
C3    C5    S    
C30   P6    S    
Ba1   O4    S    
O25   P8    S    
C49   H33   S    
H60   N13   S    
C48   C49   S    
O6    P7    D    
C62   H78   S    
C32   H29   S    
C70   H82   S    
C52   H34   S    
C73   N1    Am   
Ba2   O4    S    
C62   C64   S    
C11   H24   S    
C9    C36   A    
O3    P5    S    
C41   C42   A    
O15   P6    S    
O18   P6    S    
C45   O3    S    
C65   H52   S    
C2    O13   D    
H58   N12   S    
Ba1   O1    S    
C29   C30   S    
O2    P5    D    
C41   N14   S    
C9    C10   A    
O27   P7    S    
C31   C32   D    
C64   H46   S    
H62   N14   S    
C67   C72   S    
Ba2   O28   S    
C29   H25   S    
O12   P2    S    
C66   H55   S    
Ba1   P1    S    
C56   H15   S    
C5    P8    S    
C1    C12   S    
H72   N4    S    
C56   C66   S    
C46   C47   S    
C39   N13   S    
O1    P1    D    
C12   H5    S    
C64   H44   S    
C47   C69   S    
C23   H7    S    
C47   C48   D    
Ba2   O23   S    
C16   N5    S    
C6    P4    S    
C26   O14   D    
C18   C41   A    
C26   N7    Am   
C28   C71   S    
C60   N6    S    
C5    C14   S    
Ba2   P4    S    
C8    N1    S    
C63   H3    S    
H84   N6    S    
C18   C19   A    
O26   P4    S    
C73   O10   D    
C40   N9    S    
C22   C24   A    
C12   N8    S    
Ba1   O5    S    
H83   N6    S    
C54   P7    S    
Ba1   O19   S    
H73   N4    S    
O9    P8    S    
H47   N10   S    
C40   H1    S    
O23   P4    D    
C27   O11   D    
H69   N2    S    
C48   C58   S    
C45   H13   S    
C71   H87   S    
C34   H9    S    
O4    P1    S    
C18   C37   A    
C52   O17   S    
C67   H16   S    
C15   H31   S    
C62   C63   S    
C53   P5    S    
C61   H45   S    
Ba1   O27   S    
H42   N9    S    
C69   H74   S    
O28   P5    S    
C2    C13   A    
C58   H35   S    
C42   N2    S    
O5    P2    S    
C29   C33   D    
O22   P3    S    
C61   H67   S    
O8    P8    D    
C54   C60   A    
Ba2   O6    S    
O19   P2    D    
C66   H54   S    
C59   H32   S    
O16   P6    D    
C23   C34   S    
C38   H27   S    
Ba1   O15   S    
C56   C65   S    
C3    C8    D    
H49   N11   S    
C10   C11   A    
C4    H20   S    
C64   H43   S    
C10   C73   A    
C25   C26   A    
C23   H8    S    
C15   C30   S    
C39   C43   A    
C20   C21   A    
C52   H23   S    
O20   P3    S    
C40   H12   S    
C65   H53   S    
H63   N14   S    
C67   O9    S    
C45   C56   S    
C28   H38   S    
