data_mof_unit_45592.cif
_audit_creation_date              2012-12-11T15:43:16-0500
_audit_creation_method            fapswitch 2.2
_symmetry_space_group_name_H-M    P1
_symmetry_Int_Tables_number       1
_space_group_crystal_system       triclinic
_cell_length_a                    19.28649
_cell_length_b                    10.912391
_cell_length_c                    18.823329
_cell_angle_alpha                 90.323815
_cell_angle_beta                  89.771316
_cell_angle_gamma                 89.765957
_cell_volume                      3961.46195496

loop_
_atom_site_label
_atom_site_type_symbol
_atom_type_description
_atom_site_fract_x
_atom_site_fract_y
_atom_site_fract_z
_atom_type_partial_charge
C1    C     C_R   0.729260 0.375309 0.145483 0.549000
C2    C     C_R   0.271581 0.373741 0.855331 0.540913
C3    C     C_R   0.229245 0.875243 0.145456 0.548537
C4    C     C_R   0.771521 0.873908 0.855271 0.540397
C5    C     C_R   0.505623 0.406677 0.927436 0.272624
C6    C     C_R   0.494721 0.408750 0.075897 0.274834
C7    C     C_R   0.003896 0.907587 0.928739 0.271658
C8    C     C_R   0.992816 0.907423 0.077193 0.276221
C9    C     C_R   0.002571 0.016667 0.967262 -0.174921
C10   C     C_R   0.996880 0.016534 0.039896 -0.167651
C11   C     C_R   0.504395 0.516302 0.965317 -0.173734
C12   C     C_R   0.498728 0.517281 0.037947 -0.168898
C13   C     C_R   0.758902 0.900981 0.929358 0.018213
C14   C     C_R   0.244668 0.907049 0.072725 0.013857
C15   C     C_R   0.259155 0.400310 0.929503 0.018612
C16   C     C_R   0.744737 0.407326 0.072800 0.013633
C17   C     C_R   0.710270 0.833500 0.967986 0.035292
C18   C     C_R   0.286240 0.828719 0.031309 0.042541
C19   C     C_R   0.210358 0.333123 0.968085 0.035314
C20   C     C_R   0.786398 0.329131 0.031405 0.042207
C21   C     C_R   0.707419 0.843239 0.041573 0.008996
C22   C     C_R   0.287758 0.839488 0.957828 0.008294
C23   C     C_R   0.207459 0.342910 0.041675 0.008879
C24   C     C_R   0.787966 0.339953 0.957937 0.008594
C25   C     C_R   0.810272 0.967521 0.039182 -0.161908
C26   C     C_R   0.197773 0.993078 0.965660 -0.156423
C27   C     C_R   0.310574 0.466475 0.039353 -0.161397
C28   C     C_R   0.697861 0.493355 0.965715 -0.157039
C29   C     C_R   0.810842 0.963647 0.966357 -0.144854
C30   C     C_R   0.198711 0.986700 0.038587 -0.145359
C31   C     C_R   0.311271 0.462409 0.966547 -0.144991
C32   C     C_R   0.698766 0.486961 0.038647 -0.145242
C33   C     C_3   0.633319 0.838642 0.961697 -0.285639
C34   C     C_3   0.363017 0.812710 0.034521 -0.279309
C35   C     C_3   0.133426 0.338632 0.961691 -0.285758
C36   C     C_3   0.863183 0.313388 0.034686 -0.279788
C37   C     C_3   0.630279 0.848236 0.041922 -0.270170
C38   C     C_3   0.364176 0.821573 0.954238 -0.273679
C39   C     C_3   0.130325 0.348356 0.041911 -0.270113
C40   C     C_3   0.864403 0.322342 0.954410 -0.273394
C41   C     C_R   0.755086 0.916806 0.077879 0.007257
C42   C     C_R   0.245948 0.926307 0.924192 0.006775
C43   C     C_R   0.255213 0.416280 0.078017 0.007666
C44   C     C_R   0.746106 0.426669 0.924293 0.006340
C45   C     C_R   0.530926 0.157578 0.147231 0.553047
C46   C     C_R   0.468174 0.157483 0.853636 0.556405
C47   C     C_R   0.030844 0.657426 0.147313 0.552871
C48   C     C_R   0.968088 0.657577 0.853728 0.555037
C49   C     C_R   0.503785 0.161327 0.579681 0.002682
C50   C     C_R   0.522731 0.160843 0.431627 0.005860
C51   C     C_R   0.982955 0.659372 0.570608 0.012024
C52   C     C_R   0.000921 0.670807 0.422846 0.000136
C53   C     C_R   0.512981 0.052712 0.541555 0.013784
C54   C     C_R   0.525929 0.052168 0.470786 0.032186
C55   C     C_R   0.957177 0.566213 0.525852 0.030971
C56   C     C_R   0.969053 0.570903 0.454076 -0.005403
C57   C     C_R   0.523407 0.272149 0.469955 -0.165191
C58   C     C_R   0.516841 0.272156 0.544452 -0.170031
C59   C     C_R   0.016210 0.772962 0.465668 -0.166756
C60   C     C_R   0.009452 0.766044 0.539547 -0.179886
C61   C     C_3   0.480695 0.927380 0.541440 -0.113888
C62   C     C_3   0.503836 0.920307 0.463195 -0.120238
C63   C     C_3   0.962591 0.427303 0.525554 -0.111765
C64   C     C_3   0.984551 0.437540 0.447621 -0.121630
C65   C     C_R   0.753776 0.922398 0.576852 0.017896
C66   C     C_R   0.218801 0.846696 0.436010 0.014145
C67   C     C_R   0.255104 0.421360 0.576729 0.018190
C68   C     C_R   0.717797 0.344371 0.436471 0.012229
C69   C     C_R   0.803613 0.987504 0.538601 0.022832
C70   C     C_R   0.170420 0.916815 0.473468 0.019166
C71   C     C_R   0.307322 0.478752 0.537592 0.024318
C72   C     C_R   0.669486 0.414468 0.473837 0.031893
C73   C     C_R   0.801673 0.991242 0.465925 0.025600
C74   C     C_R   0.179573 0.943296 0.544276 0.023673
C75   C     C_R   0.303560 0.486148 0.465004 0.025220
C76   C     C_R   0.678894 0.441268 0.544642 0.028815
C77   C     C_R   0.696077 0.877273 0.465090 -0.158962
C78   C     C_R   0.282589 0.818478 0.546719 -0.170512
C79   C     C_R   0.192552 0.386934 0.466895 -0.164426
C80   C     C_R   0.779886 0.312551 0.548353 -0.168178
C81   C     C_R   0.696913 0.875140 0.539639 -0.168801
C82   C     C_R   0.271700 0.788158 0.474766 -0.165015
C83   C     C_R   0.196083 0.380719 0.541089 -0.181345
C84   C     C_R   0.769586 0.283998 0.475886 -0.165896
C85   C     C_3   0.880885 0.975373 0.537436 -0.259824
C86   C     C_3   0.142388 0.041718 0.457588 -0.272050
C87   C     C_3   0.382632 0.446276 0.533422 -0.256900
C88   C     C_3   0.641595 0.539193 0.457807 -0.273326
C89   C     C_R   0.741555 0.969191 0.147700 0.541147
C90   C     C_R   0.258647 0.970715 0.852755 0.538840
C91   C     C_R   0.241584 0.469092 0.147732 0.541967
C92   C     C_R   0.758693 0.470843 0.852801 0.537847
C93   C     C_3   0.878007 0.980240 0.457362 -0.290914
C94   C     C_3   0.151348 0.070053 0.535423 -0.275078
C95   C     C_3   0.378385 0.458907 0.453905 -0.292307
C96   C     C_3   0.651371 0.567927 0.535437 -0.276974
C97   C     C_R   0.749875 0.933650 0.427482 0.020863
C98   C     C_R   0.239288 0.905052 0.580360 0.013121
C99   C     C_R   0.248102 0.436567 0.428129 0.022841
C100  C     C_R   0.738183 0.402352 0.581164 0.012526
C101  C     C_R   0.710830 0.330676 0.359300 0.566567
C102  C     C_R   0.271403 0.377631 0.647340 0.539656
C103  C     C_R   0.211032 0.831215 0.359297 0.568817
C104  C     C_R   0.771134 0.877977 0.647348 0.538471
C105  C     C_R   0.536767 0.156407 0.356102 0.521803
C106  C     C_R   0.468696 0.156471 0.647473 0.531952
C107  C     C_R   0.032743 0.658013 0.353573 0.526881
C108  C     C_R   0.965460 0.655773 0.645183 0.530395
C109  C     C_R   0.741275 0.971738 0.354383 0.530780
C110  C     C_R   0.257858 0.969332 0.646163 0.534572
C111  C     C_R   0.240726 0.473020 0.354806 0.532142
C112  C     C_R   0.757582 0.468455 0.646436 0.533531
C113  C     C_R   0.494709 0.173884 0.926554 0.009265
C114  C     C_R   0.501269 0.174633 0.075954 0.005649
C115  C     C_R   0.994174 0.674195 0.926867 0.008570
C116  C     C_R   0.000691 0.674033 0.076272 0.006175
C117  C     C_R   0.499012 0.290626 0.963189 -0.003997
C118  C     C_R   0.498368 0.291292 0.039824 -0.005147
C119  C     C_R   0.997763 0.790850 0.963888 -0.004144
C120  C     C_R   0.997046 0.790704 0.040511 -0.005064
C121  C     C_R   0.495405 0.066294 0.037457 -0.183235
C122  C     C_R   0.496987 0.065736 0.965136 -0.180895
C123  C     C_R   0.995315 0.565854 0.037554 -0.183244
C124  C     C_R   0.996917 0.565812 0.965224 -0.181088
Cr1   Cr    Cr6+3 0.772010 0.169670 0.250090 0.958847
Cr2   Cr    Cr6+3 0.227990 0.169670 0.749910 0.970155
Cr3   Cr    Cr6+3 0.272010 0.669670 0.250090 0.952911
Cr4   Cr    Cr6+3 0.727990 0.669670 0.749910 0.978422
Cr5   Cr    Cr6+3 0.615000 0.323260 0.249260 1.042832
Cr6   Cr    Cr6+3 0.385000 0.323260 0.750740 1.039652
Cr7   Cr    Cr6+3 0.115000 0.823260 0.249260 1.041457
Cr8   Cr    Cr6+3 0.885000 0.823260 0.750740 1.045021
Cr9   Cr    Cr6+3 0.616710 0.010760 0.250840 0.984375
Cr10  Cr    Cr6+3 0.383290 0.010760 0.749160 0.982186
Cr11  Cr    Cr6+3 0.116710 0.510760 0.250840 0.984703
Cr12  Cr    Cr6+3 0.883290 0.510760 0.749160 0.986328
H1    H     H_    0.495476 0.978067 0.063372 0.131834
H2    H     H_    0.497030 0.977140 0.939155 0.132496
H3    H     H_    0.995843 0.477477 0.063291 0.131817
H4    H     H_    0.997423 0.477374 0.939051 0.132444
H5    H     H_    0.526757 0.358378 0.442369 0.130474
H6    H     H_    0.514650 0.358595 0.572905 0.121364
H7    H     H_    0.038221 0.854044 0.442572 0.138869
H8    H     H_    0.024742 0.843445 0.572143 0.121661
H9    H     H_    0.910976 0.385336 0.532121 0.140757
H10   H     H_    0.041088 0.424659 0.439640 0.158991
H11   H     H_    0.423441 0.933975 0.548376 0.154988
H12   H     H_    0.549768 0.861149 0.456596 0.134158
H13   H     H_    0.655569 0.831538 0.436298 0.114191
H14   H     H_    0.327005 0.781517 0.573940 0.114075
H15   H     H_    0.148020 0.349745 0.439877 0.115190
H16   H     H_    0.822880 0.271818 0.576587 0.113139
H17   H     H_    0.657096 0.826807 0.567806 0.114784
H18   H     H_    0.307498 0.726764 0.448239 0.138978
H19   H     H_    0.156516 0.334069 0.570472 0.116821
H20   H     H_    0.804878 0.222223 0.449486 0.138235
H21   H     H_    0.897559 0.885304 0.557756 0.178626
H22   H     H_    0.087255 0.041733 0.440978 0.120591
H23   H     H_    0.390943 0.350217 0.550326 0.168134
H24   H     H_    0.586297 0.539087 0.441725 0.120536
H25   H     H_    0.906631 0.055741 0.561554 0.120309
H26   H     H_    0.177454 0.096316 0.423106 0.155185
H27   H     H_    0.416579 0.515168 0.558882 0.128302
H28   H     H_    0.676463 0.593273 0.422857 0.153567
H29   H     H_    0.901389 0.064587 0.435209 0.132342
H30   H     H_    0.191804 0.139632 0.545298 0.164305
H31   H     H_    0.407136 0.539397 0.433282 0.128330
H32   H     H_    0.692523 0.636239 0.544902 0.164414
H33   H     H_    0.893564 0.893328 0.430598 0.139902
H34   H     H_    0.101437 0.083744 0.564153 0.127868
H35   H     H_    0.387518 0.371516 0.424574 0.131669
H36   H     H_    0.601989 0.581468 0.564669 0.125318
H37   H     H_    0.005571 0.103542 0.939873 0.114560
H38   H     H_    0.995880 0.103229 0.068227 0.117200
H39   H     H_    0.507595 0.602686 0.937440 0.114908
H40   H     H_    0.497968 0.604440 0.065798 0.116738
H41   H     H_    0.849701 0.022501 0.063971 0.129689
H42   H     H_    0.162767 0.059287 0.942774 0.135605
H43   H     H_    0.349947 0.521629 0.063999 0.127502
H44   H     H_    0.662646 0.559144 0.942696 0.137221
H45   H     H_    0.852583 0.010530 0.939305 0.154195
H46   H     H_    0.162282 0.043385 0.068128 0.148291
H47   H     H_    0.353171 0.508975 0.939556 0.153345
H48   H     H_    0.662249 0.543487 0.068173 0.148972
H49   H     H_    0.111024 0.252335 0.940641 0.123805
H50   H     H_    0.878867 0.222159 0.054587 0.130597
H51   H     H_    0.611043 0.752269 0.940626 0.124099
H52   H     H_    0.378632 0.721449 0.054438 0.130412
H53   H     H_    0.615836 0.922829 0.934050 0.135811
H54   H     H_    0.388167 0.890803 0.061941 0.131014
H55   H     H_    0.116105 0.422872 0.933989 0.135229
H56   H     H_    0.888201 0.391538 0.062176 0.131268
H57   H     H_    0.611218 0.938226 0.061038 0.179002
H58   H     H_    0.390719 0.904035 0.934328 0.172704
H59   H     H_    0.111444 0.438509 0.060955 0.178859
H60   H     H_    0.890840 0.404943 0.934548 0.172923
H61   H     H_    0.606775 0.766893 0.067698 0.127128
H62   H     H_    0.378826 0.734303 0.927333 0.129667
H63   H     H_    0.106620 0.267203 0.067700 0.127318
H64   H     H_    0.879185 0.235165 0.927483 0.130152
O1    O     O_R   0.787520 0.042810 0.170440 -0.557405
O2    O     O_R   0.212480 0.042810 0.829560 -0.558298
O3    O     O_R   0.287520 0.542810 0.170440 -0.555512
O4    O     O_R   0.712480 0.542810 0.829560 -0.559830
O5    O     O_R   0.556610 0.252880 0.323980 -0.529069
O6    O     O_R   0.443390 0.252880 0.676020 -0.515916
O7    O     O_R   0.056610 0.752880 0.323980 -0.529089
O8    O     O_R   0.943390 0.752880 0.676020 -0.516646
O9    O     O_R   0.545950 0.051210 0.330860 -0.528320
O10   O     O_R   0.454050 0.051210 0.669140 -0.532295
O11   O     O_R   0.045950 0.551210 0.330860 -0.531595
O12   O     O_R   0.954050 0.551210 0.669140 -0.527225
O13   O     O_R   0.681390 0.959480 0.325510 -0.509316
O14   O     O_R   0.318610 0.959480 0.674490 -0.521092
O15   O     O_R   0.181390 0.459480 0.325510 -0.511203
O16   O     O_R   0.818610 0.459480 0.674490 -0.514203
O17   O     O_3   0.667900 0.167900 0.250060 -0.265389
O18   O     O_3   0.332100 0.167900 0.749940 -0.243792
O19   O     O_3   0.167900 0.667900 0.250060 -0.263374
O20   O     O_3   0.832100 0.667900 0.749940 -0.245865
O21   O     O_R   0.765640 0.292100 0.175020 -0.498248
O22   O     O_R   0.234360 0.292100 0.824980 -0.500632
O23   O     O_R   0.265640 0.792100 0.175020 -0.499973
O24   O     O_R   0.734360 0.792100 0.824980 -0.500967
O25   O     O_R   0.670190 0.408840 0.168540 -0.498111
O26   O     O_R   0.329810 0.408840 0.831460 -0.508874
O27   O     O_R   0.170190 0.908840 0.168540 -0.499397
O28   O     O_R   0.829810 0.908840 0.831460 -0.506209
O29   O     O_R   0.556620 0.251410 0.175160 -0.423943
O30   O     O_R   0.443380 0.251410 0.824840 -0.424521
O31   O     O_R   0.056620 0.751410 0.175160 -0.423443
O32   O     O_R   0.943380 0.751410 0.824840 -0.425185
O33   O     O_R   0.545960 0.049620 0.170320 -0.546169
O34   O     O_R   0.454040 0.049620 0.829680 -0.547385
O35   O     O_R   0.045960 0.549620 0.170320 -0.546553
O36   O     O_R   0.954040 0.549620 0.829680 -0.547848
O37   O     O_R   0.681390 0.958010 0.176690 -0.497569
O38   O     O_R   0.318610 0.958010 0.823310 -0.499992
O39   O     O_R   0.181390 0.458010 0.176690 -0.496551
O40   O     O_R   0.818610 0.458010 0.823310 -0.499829
O41   O     O_R   0.787510 0.044390 0.330970 -0.553451
O42   O     O_R   0.212490 0.044390 0.669030 -0.535689
O43   O     O_R   0.287510 0.544390 0.330970 -0.554518
O44   O     O_R   0.712490 0.544390 0.669030 -0.531625
O45   O     O_R   0.765630 0.293570 0.323840 -0.518326
O46   O     O_R   0.234370 0.293570 0.676160 -0.514824
O47   O     O_R   0.265630 0.793570 0.323840 -0.527028
O48   O     O_R   0.734370 0.793570 0.676160 -0.509769
O49   O     O_R   0.670190 0.410420 0.329080 -0.521233
O50   O     O_R   0.329810 0.410420 0.670920 -0.522230
O51   O     O_R   0.170190 0.910420 0.329080 -0.521029
O52   O     O_R   0.829810 0.910420 0.670920 -0.523807
C125  C     C_3   0.517046 0.835548 0.591710 -0.247578
C126  C     C_3   0.465223 0.764491 0.637547 -0.302133
C127  C     C_3   0.501872 0.685692 0.692766 -0.439782
H65   H     H_    0.537125 0.618890 0.666496 0.139045
H66   H     H_    0.532258 0.744201 0.729647 0.147938
H67   H     H_    0.462820 0.634263 0.724106 0.155349
H68   H     H_    0.429634 0.827953 0.665853 0.214779
H69   H     H_    0.433885 0.704593 0.602753 0.136378
H70   H     H_    0.546626 0.766969 0.560322 0.121667
H71   H     H_    0.553712 0.884804 0.627189 0.170835
C128  C     C_3   0.447201 0.889228 0.408500 -0.243609
C129  C     C_3   0.475969 0.795365 0.354105 -0.312325
C130  C     C_3   0.423678 0.762295 0.297006 -0.405473
H72   H     H_    0.382912 0.704335 0.320628 0.201112
H73   H     H_    0.400566 0.845990 0.273352 0.170470
H74   H     H_    0.449741 0.708455 0.254287 0.113787
H75   H     H_    0.523141 0.831417 0.327773 0.200626
H76   H     H_    0.491245 0.709986 0.382154 0.126999
H77   H     H_    0.402562 0.847407 0.435933 0.140139
H78   H     H_    0.428246 0.972887 0.381276 0.167325
C131  C     C_3   0.018833 0.368432 0.572500 -0.249046
C132  C     C_3   0.988393 0.289625 0.632444 -0.292500
C133  C     C_3   0.041396 0.266786 0.691015 -0.426178
H79   H     H_    0.088309 0.220952 0.668970 0.161270
H80   H     H_    0.056564 0.354768 0.716408 0.164757
H81   H     H_    0.018420 0.206685 0.732222 0.127884
H82   H     H_    0.941402 0.332148 0.656183 0.209782
H83   H     H_    0.972634 0.200042 0.610066 0.124139
H84   H     H_    0.049921 0.304769 0.538860 0.119377
H85   H     H_    0.053670 0.440224 0.594188 0.170740
C134  C     C_3   0.940389 0.371549 0.391373 -0.239539
C135  C     C_3   0.982505 0.268289 0.355743 -0.315692
C136  C     C_3   0.943637 0.211701 0.293449 -0.432344
H86   H     H_    0.895235 0.168553 0.312384 0.194815
H87   H     H_    0.930896 0.282580 0.253369 0.152620
H88   H     H_    0.976703 0.140667 0.267726 0.134242
H89   H     H_    0.032417 0.304753 0.335219 0.185655
H90   H     H_    0.994504 0.196235 0.395359 0.136174
H91   H     H_    0.893034 0.333670 0.415274 0.145100
H92   H     H_    0.923966 0.437745 0.349899 0.176915
O53   O     O_3   0.509809 0.418245 0.854719 -0.544646
C137  C     C_3   0.579056 0.423409 0.832451 -0.017089
H93   H     H_    0.614938 0.371306 0.867545 0.125964
H94   H     H_    0.592948 0.521625 0.830201 0.168182
C138  C     C_3   0.585503 0.368743 0.758116 -0.335290
H95   H     H_    0.550516 0.417173 0.720879 0.149246
H96   H     H_    0.639691 0.377009 0.738940 0.126935
H97   H     H_    0.571858 0.270064 0.758966 0.146598
O54   O     O_3   0.493059 0.423292 0.148773 -0.538824
C139  C     C_3   0.424726 0.425543 0.174124 -0.020395
H98   H     H_    0.389699 0.363966 0.143508 0.123812
H99   H     H_    0.407332 0.522207 0.172919 0.163718
C140  C     C_3   0.423172 0.383248 0.250945 -0.341956
H100  H     H_    0.457543 0.441343 0.284156 0.147190
H101  H     H_    0.369503 0.389306 0.271856 0.124964
H102  H     H_    0.439971 0.286152 0.254098 0.157615
O55   O     O_3   0.007794 0.920417 0.856101 -0.541466
C141  C     C_3   0.077001 0.928754 0.834093 -0.015959
H103  H     H_    0.112412 0.869602 0.865867 0.125227
H104  H     H_    0.091847 0.026521 0.837773 0.162050
C142  C     C_3   0.082709 0.887618 0.756889 -0.334205
H105  H     H_    0.050817 0.947795 0.722459 0.142531
H106  H     H_    0.137516 0.891477 0.739285 0.132193
H107  H     H_    0.064892 0.791507 0.751300 0.154420
O56   O     O_3   0.990419 0.920556 0.150163 -0.542295
C143  C     C_3   0.922000 0.918222 0.175203 -0.024423
H108  H     H_    0.887160 0.860382 0.142053 0.124177
H109  H     H_    0.904649 0.014658 0.177807 0.170444
C144  C     C_3   0.920007 0.866876 0.250178 -0.343185
H110  H     H_    0.955260 0.919076 0.285541 0.152301
H111  H     H_    0.866477 0.873229 0.271608 0.119660
H112  H     H_    0.935452 0.768879 0.249473 0.151749

loop_
_geom_bond_atom_site_label_1
_geom_bond_atom_site_label_2
_ccdc_geom_bond_type
C10   H38   S    
C127  H66   S    
C129  H75   S    
Cr10  O10   S    
Cr2   O46   S    
C102  O46   A    
C73   C93   S    
Cr4   O24   S    
C75   C95   S    
O54   C139  S    
Cr2   O2    S    
C45   O29   A    
C79   C99   A    
C135  C136  S    
C111  O15   A    
Cr8   O52   S    
C22   C38   S    
C23   C43   A    
C33   H53   S    
C132  C133  S    
C113  C122  A    
C70   C74   A    
C61   C125  S    
C96   H32   S    
C107  O7    A    
C44   C92   S    
C26   H42   S    
C135  H90   S    
C59   C60   A    
C30   H46   S    
C47   O35   A    
C25   C29   A    
C47   C116  S    
C141  H104  S    
C90   O38   A    
C27   C31   A    
C7    C119  A    
C28   C32   A    
C68   C101  S    
C25   C41   A    
C39   H59   S    
C28   C44   A    
C17   C21   A    
C37   H57   S    
C19   C23   A    
C6    O54   S    
C66   C82   A    
C110  O42   A    
C16   C20   A    
C93   H33   S    
C28   H44   S    
Cr12  O40   S    
Cr4   O44   S    
C2    O26   A    
C125  H70   S    
C111  O43   A    
C143  C144  S    
C64   H10   S    
C50   C57   A    
C66   C103  S    
C27   H43   S    
C62   C128  S    
C106  O6    A    
C49   C106  S    
C134  H92   S    
C76   C100  A    
C8    O56   S    
C103  O51   A    
C136  H87   S    
C19   C35   S    
C76   C96   S    
C84   H20   S    
C66   C70   A    
C126  H68   S    
C49   C53   A    
C87   H23   S    
C51   C55   A    
C88   H24   S    
Cr9   O17   S    
C112  O44   A    
Cr6   O26   S    
C8    C10   A    
C144  H110  S    
C5    C117  A    
C42   C90   S    
C94   H34   S    
Cr2   O18   S    
C90   O2    A    
C106  O10   A    
C41   C89   S    
C67   C83   A    
C104  O52   A    
C116  C123  A    
Cr9   O9    S    
C108  O8    A    
Cr7   O7    S    
C123  C124  A    
C74   C98   A    
C53   C54   A    
C131  H85   S    
C46   O34   A    
C1    O21   A    
C110  O14   A    
C125  C126  S    
C142  H106  S    
C83   H19   S    
C123  H3    S    
C81   H17   S    
C121  H1    S    
Cr6   O18   S    
C143  H109  S    
Cr12  O12   S    
C53   C61   S    
C45   C114  S    
C63   C131  S    
C129  C130  S    
C140  H101  S    
C87   C95   S    
Cr2   O42   S    
C50   C105  S    
C38   H62   S    
C9    H37   S    
C9    C10   A    
Cr4   O20   S    
C12   H40   S    
C128  H77   S    
C59   H7    S    
C62   H12   S    
C138  H96   S    
Cr9   O37   S    
C108  O12   A    
Cr7   O51   S    
C18   C34   S    
C139  H99   S    
C132  H82   S    
C34   H54   S    
C133  H81   S    
Cr3   O43   S    
C129  H76   S    
C88   H28   S    
C116  C120  A    
Cr8   O20   S    
O53   C137  S    
Cr6   O6    S    
Cr7   O27   S    
C97   C109  S    
C144  H112  S    
C99   C111  S    
C75   C99   A    
Cr10  O34   S    
C114  C118  A    
C130  H73   S    
C113  C117  A    
C26   C30   A    
C115  C119  A    
C69   C85   S    
C26   C42   A    
Cr7   O31   S    
C39   H63   S    
C92   O40   A    
C3    O23   A    
C46   C113  S    
C18   C22   A    
C101  O49   A    
C95   H31   S    
C15   C31   A    
Cr1   O21   S    
C16   C32   A    
C13   C17   A    
C117  C118  A    
C57   C58   A    
C95   H35   S    
Cr12  O36   S    
C112  O16   A    
C61   C62   S    
C77   C81   A    
C63   C64   S    
Cr5   O25   S    
C134  C135  S    
C51   C60   A    
C63   H9    S    
Cr11  O11   S    
C55   C56   A    
C88   C96   S    
C98   C110  S    
C137  H94   S    
C85   H25   S    
C74   C94   S    
Cr1   O45   S    
C133  H79   S    
C80   C84   A    
C101  O45   A    
C94   H30   S    
Cr3   O19   S    
C128  C129  S    
C15   C19   A    
Cr1   O1    S    
C50   C54   A    
C85   H21   S    
C13   C29   A    
C45   O33   A    
C5    C11   A    
Cr8   O28   S    
C6    C12   A    
C137  H93   S    
C25   H41   S    
C107  O11   A    
Cr6   O30   S    
C2    O22   A    
C105  O9    A    
C7    C9    A    
Cr4   O4    S    
Cr5   O17   S    
C114  C121  A    
C52   C107  S    
C104  O48   A    
C35   H55   S    
C69   C73   A    
C92   O4    A    
C127  H67   S    
C36   H56   S    
C46   O30   A    
C17   C33   S    
Cr5   O49   S    
C68   C84   A    
C89   O37   A    
C122  H2    S    
C137  C138  S    
C77   H13   S    
C40   H64   S    
C134  H91   S    
Cr10  O18   S    
C33   C37   S    
C38   H58   S    
C34   C38   S    
C35   C39   S    
C136  H86   S    
C5    O53   S    
Cr5   O5    S    
C58   H6    S    
C65   C81   A    
C109  O41   A    
C1    C16   S    
Cr9   O33   S    
C2    C15   S    
C121  C122  A    
C3    C14   S    
C21   C41   A    
C135  H89   S    
C100  C112  S    
C24   C44   A    
Cr11  O35   S    
Cr3   O47   S    
C3    O27   A    
C1    O25   A    
C141  H103  S    
C115  C124  A    
C124  H4    S    
C119  C120  A    
C105  O5    A    
Cr12  O20   S    
C54   C62   S    
C11   H39   S    
Cr10  O14   S    
C57   H5    S    
C131  H84   S    
C61   H11   S    
C60   H8    S    
C79   C83   A    
C142  H105  S    
C65   C69   A    
C67   C71   A    
C4    O28   A    
C103  O47   A    
Cr10  O38   S    
C20   C36   S    
C27   C43   A    
C21   C37   S    
C140  H100  S    
Cr3   O3    S    
C91   O3    A    
C141  C142  S    
Cr1   O17   S    
C125  H71   S    
C87   H27   S    
C138  H95   S    
C14   C18   A    
C72   C76   A    
O55   C141  S    
C73   C97   A    
C139  C140  S    
C126  C127  S    
C29   H45   S    
C132  H83   S    
C133  H80   S    
C136  H88   S    
C109  O13   A    
C47   O31   A    
C7    O55   S    
Cr5   O29   S    
Cr7   O19   S    
C4    C13   S    
C78   C82   A    
C86   C94   S    
Cr11  O15   S    
C20   C24   A    
C51   C108  S    
C144  H111  S    
C78   C98   A    
Cr1   O41   S    
C86   H26   S    
C126  H69   S    
C130  H72   S    
C68   C72   A    
C93   H29   S    
C80   C100  A    
C85   C93   S    
C14   C30   A    
Cr8   O32   S    
C72   C88   S    
Cr6   O50   S    
Cr4   O48   S    
C36   C40   S    
C142  H107  S    
C4    O24   A    
C43   C91   S    
C49   C58   A    
C55   C63   S    
C82   H18   S    
C143  H108  S    
C52   C59   A    
C35   H49   S    
C140  H102  S    
Cr11  O19   S    
C56   C64   S    
C131  C132  S    
C33   H51   S    
C34   H52   S    
C86   H22   S    
C48   O36   A    
C48   C115  S    
C128  H78   S    
Cr8   O8    S    
C37   H61   S    
C138  H97   S    
C71   C87   S    
C127  H65   S    
C70   C86   S    
C78   H14   S    
C79   H15   S    
C40   H60   S    
C80   H16   S    
C8    C120  A    
C139  H98   S    
C31   H47   S    
C102  O50   A    
C32   H48   S    
C11   C12   A    
Cr2   O22   S    
Cr3   O23   S    
C89   O1    A    
Cr9   O13   S    
C71   C75   A    
C64   C134  S    
C22   C42   A    
C23   C39   S    
C24   C40   S    
Cr11  O39   S    
C36   H50   S    
O56   C143  S    
C130  H74   S    
C48   O32   A    
C96   H36   S    
C91   O39   A    
C77   C97   A    
C65   C104  S    
C6    C118  A    
C52   C56   A    
C67   C102  S    
Cr12  O16   S    
