data_mof_unit_15968.cif
_audit_creation_date              2012-12-10T18:01:43-0500
_audit_creation_method            fapswitch 2.2
_symmetry_space_group_name_H-M    P1
_symmetry_Int_Tables_number       1
_space_group_crystal_system       triclinic
_cell_length_a                    10.831582
_cell_length_b                    9.511473
_cell_length_c                    19.314615
_cell_angle_alpha                 90.000497
_cell_angle_beta                  90.173138
_cell_angle_gamma                 90.000405
_cell_volume                      1989.86559979

loop_
_atom_site_label
_atom_site_type_symbol
_atom_type_description
_atom_site_fract_x
_atom_site_fract_y
_atom_site_fract_z
_atom_type_partial_charge
C1    C     C_R   0.262038 0.500000 0.499953 0.775855
C2    C     C_R   0.737962 0.500000 0.500048 0.775860
C3    C     C_R   0.500002 0.499595 0.930021 0.413538
C4    C     C_R   0.500019 0.499595 0.069971 0.413527
C5    C     C_R   0.499966 0.500009 0.367444 0.744689
C6    C     C_R   0.500033 0.500009 0.632554 0.744633
C7    C     C_R   0.063857 0.372229 0.499940 -0.163500
C8    C     C_R   0.936142 0.627772 0.500014 -0.165406
C9    C     C_R   0.936141 0.372229 0.500066 -0.163465
C10   C     C_R   0.063859 0.627772 0.499991 -0.165375
C11   C     C_R   0.871786 0.500001 0.500058 -0.032109
C12   C     C_R   0.128214 0.500000 0.499946 -0.032102
C13   C     C_R   0.421098 0.074426 0.458149 0.000155
C14   C     C_R   0.578869 0.925554 0.541871 -0.003745
C15   C     C_R   0.578902 0.074430 0.541851 0.000065
C16   C     C_R   0.421131 0.925551 0.458129 -0.003640
C17   C     C_R   0.582428 0.588830 0.254362 -0.013907
C18   C     C_R   0.582700 0.411295 0.745842 -0.002642
C19   C     C_R   0.417400 0.588621 0.745631 -0.013932
C20   C     C_R   0.417473 0.411091 0.254145 -0.002554
C21   C     C_R   0.578468 0.590135 0.181840 -0.101566
C22   C     C_R   0.578633 0.409541 0.818344 -0.101076
C23   C     C_R   0.421360 0.589930 0.818154 -0.101500
C24   C     C_R   0.421557 0.409341 0.181644 -0.101114
C25   C     C_R   0.500047 0.499638 0.145687 -0.036137
C26   C     C_R   0.499967 0.499639 0.854304 -0.036165
C27   C     C_R   0.499939 0.500019 0.291168 -0.196244
C28   C     C_R   0.500063 0.500019 0.708825 -0.196165
Cu1   Cu    Cu3+1 0.500000 0.640660 0.500000 0.949779
Cu2   Cu    Cu3+1 0.500000 0.359340 0.500000 0.955803
H1    H     H_    0.357866 0.130532 0.424662 0.126948
H2    H     H_    0.642014 0.869391 0.575411 0.133090
H3    H     H_    0.642131 0.130538 0.575340 0.126943
H4    H     H_    0.357986 0.869386 0.424590 0.133102
N1    N     N_R   0.500000 0.852070 0.500000 -0.168384
N2    N     N_R   0.500000 0.147930 0.500000 -0.165828
N3    N     N_R   0.499684 0.376583 0.034433 -0.204171
N4    N     N_R   0.499405 0.622598 0.965559 -0.204679
N5    N     N_R   0.500608 0.376584 0.965558 -0.204190
N6    N     N_R   0.500346 0.622599 0.034433 -0.204654
O1    O     O_R   0.319640 0.618740 0.500000 -0.590614
O2    O     O_R   0.680360 0.381260 0.500000 -0.588714
O3    O     O_R   0.680360 0.618740 0.500000 -0.590605
O4    O     O_R   0.319640 0.381260 0.500000 -0.588728
O5    O     O_R   0.499980 0.618820 0.400140 -0.578813
O6    O     O_R   0.500020 0.381180 0.599860 -0.573877
O7    O     O_R   0.500020 0.618820 0.599860 -0.578820
O8    O     O_R   0.499980 0.381180 0.400140 -0.573866
H5    H     H_    0.111905 0.272341 0.499862 0.155584
H6    H     H_    0.888094 0.727660 0.500009 0.155290
H7    H     H_    0.888092 0.272342 0.500143 0.155594
H8    H     H_    0.111909 0.727660 0.499997 0.155287
C29   C     C_2   0.677613 0.675501 0.290184 0.397023
H9    H     H_    0.701242 0.656594 0.343942 0.083134
O9    O     O_2   0.732707 0.768548 0.259541 -0.521635
C30   C     C_2   0.678243 0.325352 0.710253 0.379418
H10   H     H_    0.702526 0.345586 0.656784 0.068819
O10   O     O_2   0.732838 0.231503 0.740760 -0.527273
C31   C     C_2   0.322045 0.675047 0.709806 0.396901
H11   H     H_    0.298643 0.656272 0.656004 0.083148
O11   O     O_2   0.266535 0.767722 0.740496 -0.521630
C32   C     C_2   0.322072 0.324931 0.289722 0.379499
H12   H     H_    0.297611 0.345237 0.343157 0.068788
O12   O     O_2   0.267802 0.230809 0.259244 -0.527323
H13   H     H_    0.640429 0.657679 0.153018 0.193460
H14   H     H_    0.640761 0.342074 0.847307 0.193370
H15   H     H_    0.359271 0.657317 0.846980 0.193502
H16   H     H_    0.359559 0.341718 0.152679 0.193344

loop_
_geom_bond_atom_site_label_1
_geom_bond_atom_site_label_2
_ccdc_geom_bond_type
C19   C23   A    
C24   C25   A    
C22   H14   S    
Cu1   Cu2   S    
C20   C27   A    
C18   C30   S    
Cu1   N1    S    
C1    O4    A    
C9    H7    S    
Cu2   N2    S    
C2    O3    A    
C5    O5    A    
C16   H4    S    
C19   C31   S    
C4    C25   S    
C17   C29   S    
C10   H8    S    
C31   H11   S    
N3    N5    A    
C14   H2    S    
C5    C27   S    
C29   H9    S    
Cu1   O3    S    
N4    N6    A    
C19   C28   A    
C9    C11   A    
Cu2   O4    S    
C32   H12   S    
C1    C12   S    
C10   C12   A    
Cu1   O7    S    
C8    C11   A    
C2    C11   S    
C1    O1    A    
C2    O2    A    
C7    C9    A    
C29   O9    D    
C16   N1    A    
C20   C32   S    
C7    C12   A    
C20   C24   A    
C5    O8    A    
C17   C21   A    
C31   O11   D    
Cu1   O5    S    
C6    O7    A    
C24   H16   S    
C23   H15   S    
C17   C27   A    
C8    H6    S    
C15   N2    A    
C18   C28   A    
C30   H10   S    
C7    H5    S    
C13   N2    A    
C8    C10   A    
C22   C26   A    
C13   C16   A    
Cu2   O8    S    
C14   N1    A    
C23   C26   A    
C21   C25   A    
C14   C15   A    
Cu2   O2    S    
C32   O12   D    
C6    O6    A    
Cu1   O1    S    
C18   C22   A    
C21   H13   S    
C13   H1    S    
C3    C26   S    
C6    C28   S    
C3    N5    A    
C4    N6    A    
C3    N4    A    
C30   O10   D    
C4    N3    A    
C15   H3    S    
Cu2   O6    S    
