data_mof_unit_37357.cif
_audit_creation_date              2012-10-26T21:24:49-0400
_audit_creation_method            fapswitch 2.2
_symmetry_space_group_name_H-M    P1
_symmetry_Int_Tables_number       1
_space_group_crystal_system       triclinic
_cell_length_a                    9.547075
_cell_length_b                    10.824029
_cell_length_c                    15.512782
_cell_angle_alpha                 90.029611
_cell_angle_beta                  74.181542
_cell_angle_gamma                 90.19496
_cell_volume                      1542.34054848

loop_
_atom_site_label
_atom_site_type_symbol
_atom_type_description
_atom_site_fract_x
_atom_site_fract_y
_atom_site_fract_z
_atom_type_partial_charge
C1    C     C_R   0.999093 0.262357 0.501488 0.550283
C2    C     C_R   0.218980 0.491310 0.041985 0.048352
C3    C     C_R   0.320263 0.523300 0.090289 0.033183
C4    C     C_R   0.917930 0.502187 0.672047 0.543927
C5    C     C_R   0.072283 0.469643 0.087185 -0.145800
C6    C     C_R   0.025609 0.475118 0.180323 -0.145604
C7    C     C_R   0.270453 0.526153 0.184167 -0.137905
C8    C     C_R   0.121183 0.064208 0.509038 0.017171
C9    C     C_R   0.994980 0.129266 0.509773 0.005101
C10   C     C_R   0.863429 0.063961 0.522147 -0.164695
C11   C     C_R   0.863782 0.935166 0.521840 -0.150923
C12   C     C_R   0.667904 0.532557 0.904795 0.033763
C13   C     C_R   0.995702 0.870896 0.509058 0.000937
C14   C     C_R   0.121622 0.937027 0.508473 0.020046
C15   C     C_3   0.269412 0.931985 0.443733 -0.267456
C16   C     C_R   0.999576 0.737709 0.501059 0.546586
C17   C     C_3   0.269303 0.072116 0.444877 -0.264138
C18   C     C_R   0.590077 0.597432 0.464598 0.216272
C19   C     C_R   0.554732 0.410988 0.543651 -0.029724
C20   C     C_R   0.405767 0.411213 0.543907 -0.022454
C21   C     C_R   0.443403 0.595995 0.462906 0.134286
C22   C     C_3   0.484726 0.634933 0.366986 -0.249507
C23   C     C_R   0.766709 0.576175 0.951635 0.051147
C24   C     C_3   0.641637 0.643515 0.370955 0.125472
C25   C     C_R   0.081760 0.499806 0.327830 0.532022
C26   C     C_R   0.871401 0.517631 0.769650 -0.001286
C27   C     C_R   0.125551 0.500870 0.229352 -0.010408
C28   C     C_R   0.915000 0.590724 0.907274 -0.145675
C29   C     C_R   0.967056 0.562160 0.816634 -0.141588
C30   C     C_R   0.724508 0.499412 0.814426 -0.130787
C31   C     C_3   0.761170 0.805356 0.281761 0.003844
C32   C     C_3   0.925364 0.811917 0.270148 -0.252760
C33   C     C_3   0.009128 0.838813 0.173265 -0.484042
C34   C     C_R   0.516647 0.522910 0.949807 0.033255
C35   C     C_R   0.468864 0.545639 0.043637 0.033717
C36   C     C_R   0.570909 0.590802 0.087445 -0.143654
C37   C     C_R   0.716623 0.606109 0.041986 -0.141609
C38   C     C_R   0.411267 0.493740 0.903914 -0.139694
C39   C     C_R   0.265373 0.479267 0.949297 -0.141776
Cu1   Cu    Cu3+1 0.140670 0.499980 0.500000 0.933793
Cu2   Cu    Cu3+1 0.859330 0.500020 0.500000 0.946214
H1    H     H_    0.790973 0.641034 0.078070 0.094774
H2    H     H_    0.334630 0.338149 0.578201 0.119076
H3    H     H_    0.469522 0.558858 0.322666 0.095023
H4    H     H_    0.343592 0.543630 0.224033 0.111793
H5    H     H_    0.436832 0.724708 0.355942 0.133018
H6    H     H_    0.718168 0.578564 0.325868 0.114192
H7    H     H_    0.912520 0.455881 0.213872 0.119134
H8    H     H_    0.188812 0.455719 0.911536 0.109565
H9    H     H_    0.990222 0.626551 0.942400 0.108847
H10   H     H_    0.080919 0.577930 0.782932 0.129843
H11   H     H_    0.656653 0.458685 0.776835 0.116941
H12   H     H_    0.994235 0.445698 0.050601 0.114252
H13   H     H_    0.541220 0.619046 0.156584 0.088665
H14   H     H_    0.436999 0.484123 0.832220 0.103709
H15   H     H_    0.721916 0.899401 0.271910 0.148534
H16   H     H_    0.736691 0.745975 0.228742 0.104291
H17   H     H_    0.949142 0.885424 0.314264 0.167852
H18   H     H_    0.963247 0.722891 0.290579 0.185003
H19   H     H_    0.991055 0.763748 0.128579 0.151800
H20   H     H_    0.127404 0.844252 0.167821 0.151159
H21   H     H_    0.973654 0.928177 0.151173 0.148921
H22   H     H_    0.761750 0.111707 0.527957 0.130611
H23   H     H_    0.762259 0.886644 0.527507 0.170805
H24   H     H_    0.351557 0.891220 0.474117 0.157037
H25   H     H_    0.267187 0.892736 0.377847 0.124315
H26   H     H_    0.350687 0.112152 0.476438 0.135261
H27   H     H_    0.268260 0.113971 0.379584 0.140734
H28   H     H_    0.595063 0.337620 0.577608 0.115826
N1    N     N_R   0.648210 0.500930 0.499430 -0.257948
N2    N     N_R   0.352300 0.500890 0.499430 -0.238685
O1    O     O_R   0.118810 0.319640 0.500000 -0.503051
O2    O     O_R   0.881230 0.319680 0.499990 -0.513194
O3    O     O_R   0.055580 0.499970 0.629840 -0.501920
O4    O     O_R   0.818000 0.500010 0.629830 -0.506003
O5    O     O_R   0.118770 0.680320 0.500010 -0.499131
O6    O     O_R   0.881190 0.680360 0.500000 -0.479563
O7    O     O_R   0.182000 0.499990 0.370170 -0.503815
O8    O     O_R   0.944420 0.500030 0.370160 -0.512282
O9    O     O_3   0.689903 0.767266 0.370132 -0.573278

loop_
_geom_bond_atom_site_label_1
_geom_bond_atom_site_label_2
_ccdc_geom_bond_type
C18   N1    A    
Cu1   N2    S    
C18   C21   A    
C10   H22   S    
C32   H17   S    
C31   O9    S    
C12   C23   A    
C6    H7    S    
C21   N2    A    
C18   C24   S    
C7    H4    S    
C5    H12   S    
C28   C29   A    
C34   C35   A    
C3    C7    A    
Cu2   O6    S    
C38   C39   A    
C15   H24   S    
C7    C27   A    
C16   O6    A    
C37   H1    S    
C4    O4    A    
C28   H9    S    
C2    C39   A    
C24   O9    S    
C22   H3    S    
C38   H14   S    
C19   C20   A    
C33   H21   S    
C20   N2    A    
C31   H15   S    
C9    C10   A    
C4    O3    A    
C16   O5    A    
C21   C22   S    
C17   H26   S    
C1    O1    A    
C25   O7    A    
C1    C9    S    
C11   H23   S    
C8    C9    A    
C23   C37   A    
C15   H25   S    
Cu1   O5    S    
C35   C36   A    
C34   C38   A    
Cu2   O4    S    
C6    C27   A    
C3    C35   A    
C23   C28   A    
Cu1   Cu2   S    
C22   H5    S    
C26   C30   A    
C33   H19   S    
Cu1   O7    S    
C19   H28   S    
C2    C5    A    
C12   C34   A    
C20   H2    S    
C29   H10   S    
C15   C17   S    
C30   H11   S    
C36   C37   A    
C17   H27   S    
C8    C14   A    
Cu1   O1    S    
C12   C30   A    
C25   O8    A    
C24   H6    S    
C31   C32   S    
Cu2   O8    S    
C4    C26   S    
C39   H8    S    
C25   C27   S    
C8    C17   S    
C1    O2    A    
C32   C33   S    
C31   H16   S    
C2    C3    A    
C11   C13   A    
C5    C6    A    
Cu1   O3    S    
C22   C24   S    
C36   H13   S    
C10   C11   A    
Cu2   O2    S    
C26   C29   A    
C33   H20   S    
C13   C16   S    
C14   C15   S    
C19   N1    A    
C32   H18   S    
C13   C14   A    
Cu2   N1    S    
