data_mof_unit_36219.cif
_audit_creation_date              2013-03-05T16:05:19-0500
_audit_creation_method            fapswitch 2.2
_symmetry_space_group_name_H-M    P1
_symmetry_Int_Tables_number       1
_space_group_crystal_system       triclinic
_cell_length_a                    10.854905
_cell_length_b                    9.61109
_cell_length_c                    15.937096
_cell_angle_alpha                 90.156596
_cell_angle_beta                  94.01023
_cell_angle_gamma                 89.670311
_cell_volume                      1658.57396957

loop_
_atom_site_label
_atom_site_type_symbol
_atom_site_description
_atom_site_fract_x
_atom_site_fract_y
_atom_site_fract_z
_atom_type_partial_charge
O1    O     O_R   0.319660 0.618740 0.500000 -0.595898
O2    O     O_R   0.319660 0.381260 0.500000 -0.593874
C1    C     C_R   0.262350 0.500756 0.505764 0.780897
O3    O     O_R   0.500020 0.618840 0.379440 -0.592144
O4    O     O_R   0.500020 0.381160 0.379440 -0.592172
C2    C     C_R   0.498726 0.499706 0.340576 0.779997
Cu1   Cu    Cu3+1 0.500020 0.640660 0.500000 0.990314
Cu2   Cu    Cu3+1 0.500020 0.359340 0.500000 0.999244
O5    O     O_R   0.680370 0.618830 0.500010 -0.544229
O6    O     O_R   0.680370 0.381170 0.500010 -0.545099
O7    O     O_R   0.500010 0.618730 0.620560 -0.541552
O8    O     O_R   0.500010 0.381270 0.620560 -0.525584
C3    C     C_R   0.735905 0.499416 0.490320 0.861562
C4    C     C_R   0.500479 0.500246 0.659635 0.847059
C5    C     C_3   0.433214 0.633168 0.046807 -0.099723
C6    C     C_3   0.413753 0.369833 0.046170 -0.122872
C7    C     C_3   0.405768 0.376470 0.944872 0.339342
C8    C     C_3   0.460518 0.650197 0.951021 0.323921
H1    H     H_    0.331973 0.618977 0.049120 0.155494
H2    H     H_    0.319553 0.387520 0.067827 0.164879
C9    C     C_1   0.500210 0.500920 0.749165 0.010592
C10   C     C_3   0.492753 0.494501 0.083713 0.073488
C11   C     C_3   0.499062 0.497716 0.917355 -0.158724
C12   C     C_3   0.635358 0.460720 0.959637 0.473105
C13   C     C_3   0.627505 0.479227 0.057972 -0.447335
C14   C     C_1   0.500001 0.500408 0.824643 0.143689
C15   C     C_1   0.493837 0.496170 0.176100 -0.001768
C16   C     C_1   0.496051 0.498358 0.251363 -0.182335
H3    H     H_    0.677473 0.573760 0.081026 0.229016
H4    H     H_    0.674833 0.394259 0.094653 0.209916
C17   C     C_R   0.061670 0.374995 0.510605 0.113903
C18   C     C_R   0.059039 0.629607 0.498387 0.127829
C19   C     C_R   0.936313 0.372130 0.483643 0.162339
C20   C     C_R   0.932753 0.625159 0.473352 0.163518
C21   C     C_R   0.869217 0.498244 0.477951 -0.142483
C22   C     C_R   0.126424 0.502623 0.509216 -0.134338
C23   C     C_R   0.428009 0.074624 0.440189 0.217510
C24   C     C_R   0.430672 0.925659 0.438771 0.203240
N1    N     N_R   0.500030 0.852070 0.500020 -0.250853
N2    N     N_R   0.500030 0.147930 0.500020 -0.250915
C25   C     C_R   0.567794 0.925751 0.560658 0.284620
C26   C     C_R   0.567064 0.073791 0.561166 0.280996
C27   C     C_3   0.343938 0.716713 0.902906 -0.760718
H5    H     H_    0.254139 0.680871 0.922232 0.213055
H6    H     H_    0.342503 0.830587 0.915345 0.271755
H7    H     H_    0.345113 0.703878 0.833814 0.238033
C28   C     C_3   0.268226 0.406923 0.915198 -0.791169
H8    H     H_    0.219780 0.475922 0.957708 0.202626
H9    H     H_    0.259261 0.449398 0.850348 0.244505
H10   H     H_    0.214523 0.308689 0.914572 0.268927
N3    N     N_R   0.639475 0.853917 0.625556 0.178569
O9    O     O_R   0.596634 0.844419 0.699361 -0.230474
O10   O     O_R   0.757070 0.835544 0.618842 -0.333261
N4    N     N_R   0.629580 0.144565 0.630611 0.179325
O11   O     O_R   0.741836 0.188010 0.625412 -0.326685
O12   O     O_R   0.584971 0.138557 0.704129 -0.203332
C29   C     C_3   0.446969 0.229629 0.090026 -0.699714
H11   H     H_    0.435625 0.236486 0.158591 0.198498
H12   H     H_    0.381646 0.147368 0.066765 0.247688
H13   H     H_    0.543701 0.197782 0.082552 0.293028
C30   C     C_3   0.454365 0.764430 0.102774 -0.717595
H14   H     H_    0.392889 0.762046 0.155685 0.197724
H15   H     H_    0.550388 0.769794 0.131363 0.264441
H16   H     H_    0.431282 0.860647 0.066439 0.260100
N5    N     N_R   0.433888 0.242946 0.901170 0.187038
O13   O     O_R   0.402527 0.229909 0.821115 -0.308422
O14   O     O_R   0.482679 0.134175 0.938936 -0.273818
N6    N     N_R   0.561518 0.750619 0.938494 0.185106
O15   O     O_R   0.575739 0.798378 0.863536 -0.200866
O16   O     O_R   0.638875 0.792673 0.999181 -0.305138
N7    N     N_R   0.733572 0.552214 0.930869 0.175917
O17   O     O_R   0.743664 0.571518 0.850841 -0.256935
O18   O     O_R   0.831246 0.576433 0.980889 -0.309853
N8    N     N_R   0.673784 0.317725 0.938179 0.166814
O19   O     O_R   0.682862 0.284985 0.859518 -0.203096
O20   O     O_R   0.728650 0.236338 0.994470 -0.313097
C31   C     C_3   0.120258 0.243781 0.548566 -0.727977
H17   H     H_    0.190515 0.269261 0.600254 0.248709
H18   H     H_    0.050759 0.179035 0.577988 0.248493
H19   H     H_    0.162056 0.180713 0.499747 0.224849
C32   C     C_3   0.115916 0.770097 0.520598 -0.749885
H20   H     H_    0.182086 0.761879 0.576746 0.249367
H21   H     H_    0.161222 0.813028 0.466316 0.222747
H22   H     H_    0.045442 0.846544 0.538722 0.242198
C33   C     C_3   0.882122 0.237205 0.448289 -0.778510
H23   H     H_    0.951275 0.181771 0.412086 0.210029
H24   H     H_    0.855684 0.167566 0.499003 0.273929
H25   H     H_    0.801673 0.256079 0.402779 0.229134
C34   C     C_3   0.871745 0.750855 0.429972 -0.785065
H26   H     H_    0.937774 0.803879 0.390687 0.215832
H27   H     H_    0.792800 0.719932 0.385911 0.224888
H28   H     H_    0.839931 0.826339 0.476458 0.270603
C35   C     C_3   0.341790 0.147297 0.374779 -0.747120
H29   H     H_    0.328820 0.258339 0.381513 0.272958
H30   H     H_    0.373250 0.128046 0.310908 0.207592
H31   H     H_    0.246319 0.108702 0.378316 0.176112
C36   C     C_3   0.363566 0.850670 0.364854 -0.755468
H32   H     H_    0.323386 0.751843 0.382399 0.263321
H33   H     H_    0.281458 0.904802 0.336095 0.181849
H34   H     H_    0.427689 0.835957 0.314257 0.227866

loop_
_geom_bond_atom_site_label_1
_geom_bond_atom_site_label_2
_geom_bond_distance
_ccdc_geom_bond_type
C5    C8    1.584356 S    
C9    C14   1.203083 T    
C35   H29   1.081705 S    
C25   C26   1.422804 A    
C36   H34   1.109712 S    
C32   H20   1.110272 S    
Cu1   Cu2   2.703792 S    
C28   H9    1.109984 S    
C31   H17   1.110558 S    
C5    H1    1.111350 S    
C18   C32   1.518588 S    
C7    C11   1.629203 S    
N8    O20   1.301971 A    
C18   C22   1.423924 A    
C4    C9    1.427044 S    
C3    C21   1.474023 S    
C23   N2    1.383899 A    
C24   C36   1.522884 S    
C24   N1    1.383743 A    
O7    C4    1.299224 A    
C29   H12   1.110579 S    
C8    N6    1.489031 S    
C36   H32   1.092650 S    
C20   C21   1.409318 A    
C11   C14   1.478606 S    
C30   H15   1.109392 S    
C19   C33   1.517750 S    
O5    C3    1.307113 A    
C32   H21   1.106480 S    
C5    C10   1.575130 S    
C2    C16   1.420085 S    
C6    C7    1.612071 S    
N5    O14   1.299270 A    
C10   C13   1.552584 S    
C11   C12   1.620244 S    
C17   C19   1.398426 A    
C34   H27   1.110585 S    
C6    H2    1.113847 S    
N2    C26   1.373124 A    
C35   H30   1.110794 S    
O3    Cu1   1.932218 S    
C36   H33   1.101788 S    
C17   C31   1.517226 S    
C28   H10   1.112109 S    
C31   H18   1.110277 S    
C13   H3    1.109348 S    
N4    O12   1.300249 A    
N8    O19   1.301955 A    
C33   H24   1.105068 S    
C8    C11   1.621944 S    
C12   C13   1.584912 S    
O3    C2    1.299986 A    
N7    O18   1.302839 A    
N6    O15   1.300468 A    
C29   H13   1.106350 S    
C33   H23   1.111095 S    
N3    O9    1.298352 A    
N3    O10   1.299405 A    
C18   C20   1.401511 A    
C30   H16   1.110501 S    
Cu1   O7    1.933481 S    
C27   H5    1.100052 S    
C23   C24   1.431991 A    
C28   H8    1.103926 S    
Cu2   O8    1.932335 S    
C5    C30   1.551894 S    
C23   C35   1.520027 S    
C34   H28   1.106539 S    
C27   H6    1.111941 S    
N6    O16   1.300794 A    
O8    C4    1.300437 A    
C35   H31   1.107910 S    
C10   C15   1.471651 S    
C32   H22   1.109845 S    
C33   H25   1.109888 S    
C31   H19   1.105549 S    
C13   H4    1.108299 S    
Cu1   O5    1.967682 S    
N4    O11   1.298531 A    
C6    C10   1.570088 S    
O1    Cu1   1.970298 S    
O2    Cu2   1.967888 S    
C7    C28   1.560566 S    
O6    C3    1.304110 A    
O4    Cu2   1.933357 S    
C7    N5    1.498504 S    
O2    C1    1.309061 A    
C20   C34   1.518975 S    
N7    O17   1.301603 A    
C8    C27   1.567085 S    
C26   N4    1.429775 S    
C12   N8    1.480034 S    
C29   H11   1.109909 S    
O4    C2    1.297855 A    
C1    C22   1.480337 S    
C19   C21   1.410331 A    
C6    C29   1.548742 S    
C30   H14   1.111703 S    
C27   H7    1.108630 S    
N1    C25   1.370879 A    
Cu2   O6    1.970083 S    
N5    O13   1.303156 A    
C15   C16   1.198159 T    
Cu1   N1    2.031880 S    
C17   C22   1.418255 A    
Cu2   N2    2.031882 S    
O1    C1    1.303066 A    
C34   H26   1.110908 S    
C25   N3    1.427227 S    
C12   N7    1.483712 S    
