data_mof_unit_41437.cif
_audit_creation_date              2012-12-11T15:37:37-0500
_audit_creation_method            fapswitch 2.2
_symmetry_space_group_name_H-M    P1
_symmetry_Int_Tables_number       1
_space_group_crystal_system       triclinic
_cell_length_a                    17.382137
_cell_length_b                    24.401067
_cell_length_c                    14.808758
_cell_angle_alpha                 90.160195
_cell_angle_beta                  125.909892
_cell_angle_gamma                 90.195798
_cell_volume                      5087.13797394

loop_
_atom_site_label
_atom_site_type_symbol
_atom_type_description
_atom_site_fract_x
_atom_site_fract_y
_atom_site_fract_z
_atom_type_partial_charge
C1    C     C_R   0.852830 0.653096 0.911675 -0.147290
C2    C     C_R   0.191581 0.377152 0.092884 -0.159955
C3    C     C_R   0.191682 0.623812 0.095128 -0.116633
C4    C     C_R   0.817059 0.365827 0.911412 -0.146104
C5    C     C_R   0.347661 0.151581 0.910564 -0.157774
C6    C     C_R   0.688645 0.872667 0.092973 -0.153590
C7    C     C_R   0.647980 0.152773 0.091367 -0.149639
C8    C     C_R   0.350484 0.846780 0.911338 -0.162575
C9    C     C_3   0.398058 0.501519 0.469272 0.178600
C10   C     C_3   0.574033 0.500981 0.639545 0.187951
C11   C     C_3   0.903789 0.001751 0.463989 0.180877
C12   C     C_3   0.075692 0.999795 0.644001 0.184750
C13   C     C_R   0.663292 0.315275 0.909747 -0.386240
C14   C     C_R   0.337337 0.691083 0.112386 -0.375533
C15   C     C_R   0.332409 0.308598 0.106204 -0.384956
C16   C     C_R   0.810171 0.769485 0.915809 -0.397291
C17   C     C_R   0.306678 0.727341 0.916250 -0.384238
C18   C     C_R   0.706386 0.265545 0.100921 -0.378943
C19   C     C_R   0.835404 0.809727 0.105266 -0.378566
C20   C     C_R   0.307560 0.269071 0.916671 -0.390228
C21   C     C_R   0.264359 0.678620 0.916255 0.569092
C22   C     C_R   0.772531 0.300660 0.109104 0.578774
C23   C     C_R   0.877060 0.760614 0.111797 0.589865
C24   C     C_R   0.251248 0.312927 0.905864 0.561961
C25   C     C_R   0.612074 0.268825 0.899071 0.582786
C26   C     C_R   0.385943 0.736658 0.115593 0.563074
C27   C     C_R   0.362151 0.256228 0.107686 0.582586
C28   C     C_R   0.745823 0.807697 0.903752 0.578442
C29   C     C_R   0.267052 0.666469 0.010812 -0.109324
C30   C     C_R   0.751306 0.325479 0.010917 -0.094813
C31   C     C_R   0.863788 0.739646 0.014576 -0.090960
C32   C     C_R   0.261798 0.331957 0.003015 -0.071424
C33   C     C_R   0.637056 0.241954 0.997206 -0.070961
C34   C     C_R   0.360523 0.759502 0.013975 -0.084160
C35   C     C_R   0.352422 0.236618 0.012150 -0.094978
C36   C     C_R   0.757546 0.827817 0.000950 -0.093135
C37   C     C_R   0.042339 0.452180 0.562287 0.431614
C38   C     C_R   0.111461 0.550759 0.538007 0.346675
C39   C     C_R   0.104822 0.452942 0.532946 0.346214
C40   C     C_R   0.056217 0.552270 0.578716 0.366309
C41   C     C_R   0.579826 0.952944 0.594503 0.414301
C42   C     C_R   0.612314 0.054880 0.536190 0.361326
C43   C     C_R   0.631331 0.957304 0.549136 0.316614
C44   C     C_R   0.556240 0.052178 0.574559 0.390987
C45   C     C_R   0.114899 0.501474 0.492087 -0.350989
C46   C     C_R   0.020777 0.502186 0.592063 -0.344416
C47   C     C_R   0.624522 0.005871 0.495970 -0.318534
C48   C     C_R   0.544229 0.001348 0.611274 -0.364843
C49   C     C_R   0.907906 0.375164 0.097207 -0.154699
C50   C     C_R   0.098527 0.624637 0.908770 -0.136871
C51   C     C_R   0.096178 0.375245 0.906694 -0.123743
C52   C     C_R   0.949457 0.650531 0.097132 -0.149795
C53   C     C_R   0.444770 0.850832 0.096956 -0.113955
C54   C     C_R   0.551824 0.151396 0.905879 -0.144709
C55   C     C_R   0.594019 0.872940 0.906518 -0.132949
C56   C     C_R   0.443116 0.149124 0.096710 -0.128782
C57   C     C_R   0.053596 0.546461 0.306729 -0.177820
C58   C     C_R   0.972206 0.454698 0.706292 -0.127934
C59   C     C_R   0.969720 0.546019 0.705474 -0.126368
C60   C     C_R   0.057830 0.455039 0.308893 -0.149346
C61   C     C_R   0.555298 0.047211 0.306354 -0.171047
C62   C     C_R   0.482514 0.954939 0.713458 -0.125360
C63   C     C_R   0.497311 0.046574 0.727836 -0.143467
C64   C     C_R   0.558303 0.955782 0.310146 -0.119799
C65   C     C_R   0.729313 0.454985 0.741192 -0.129442
C66   C     C_R   0.257494 0.545730 0.303852 -0.154780
C67   C     C_R   0.257057 0.455180 0.304782 -0.139584
C68   C     C_R   0.731442 0.545935 0.749565 -0.141171
C69   C     C_R   0.231665 0.954183 0.753281 -0.127022
C70   C     C_R   0.762083 0.046456 0.297831 -0.137431
C71   C     C_R   0.760952 0.955357 0.301107 -0.133727
C72   C     C_R   0.231881 0.045320 0.753885 -0.133479
C73   C     C_R   0.887290 0.683305 0.008094 0.111582
C74   C     C_R   0.187973 0.363400 0.999383 0.124149
C75   C     C_R   0.189998 0.636906 0.003590 0.106526
C76   C     C_R   0.822130 0.355115 0.007197 0.120392
C77   C     C_R   0.377772 0.180731 0.006542 0.109118
C78   C     C_R   0.683906 0.858280 0.998918 0.128071
C79   C     C_R   0.613143 0.184405 0.997179 0.124590
C80   C     C_R   0.382245 0.817077 0.007547 0.135985
C81   C     C_R   0.078050 0.501141 0.374301 0.175092
C82   C     C_R   0.979297 0.500872 0.655610 0.196228
C83   C     C_R   0.581237 0.002747 0.375724 0.171288
C84   C     C_R   0.504675 0.000845 0.676505 0.214087
C85   C     C_R   0.675033 0.500414 0.720436 0.030157
C86   C     C_R   0.305064 0.500834 0.365781 0.034984
C87   C     C_R   0.176362 0.999623 0.730199 0.022816
C88   C     C_R   0.812430 0.001345 0.357717 0.035809
C89   C     C_3   0.506422 0.452206 0.604809 -0.149813
C90   C     C_3   0.465915 0.550283 0.504732 -0.157811
C91   C     C_3   0.472093 0.461532 0.483718 -0.152027
C92   C     C_3   0.500783 0.541164 0.626368 -0.162195
C93   C     C_3   0.005075 0.952277 0.605241 -0.169844
C94   C     C_3   0.974480 0.049181 0.503109 -0.164249
C95   C     C_3   0.978254 0.959785 0.486611 -0.157487
C96   C     C_3   0.001609 0.041928 0.622100 -0.159876
C97   C     C_3   0.430386 0.492303 0.588865 -0.158410
C98   C     C_3   0.540286 0.510221 0.519387 -0.139029
C99   C     C_3   0.928372 0.994339 0.580848 -0.149097
C100  C     C_3   0.049442 0.007174 0.526135 -0.125052
H1    H     H_    0.812740 0.667752 0.827081 0.088084
H2    H     H_    0.250005 0.374051 0.179419 0.098722
H3    H     H_    0.249390 0.627550 0.181895 0.095153
H4    H     H_    0.765003 0.350455 0.828502 0.090725
H5    H     H_    0.306256 0.166327 0.825853 0.104500
H6    H     H_    0.745323 0.866834 0.179572 0.093260
H7    H     H_    0.688106 0.165884 0.177316 0.087812
H8    H     H_    0.310316 0.831217 0.826869 0.094923
H9    H     H_    0.935100 0.375581 0.183655 0.149328
H10   H     H_    0.072519 0.631997 0.823847 0.159368
H11   H     H_    0.066462 0.366916 0.821438 0.140896
H12   H     H_    0.001560 0.663188 0.182451 0.150071
H13   H     H_    0.494891 0.840471 0.183221 0.145756
H14   H     H_    0.500091 0.164045 0.821397 0.147480
H15   H     H_    0.564365 0.865940 0.821239 0.154270
H16   H     H_    0.491608 0.162398 0.182438 0.143303
H17   H     H_    0.067527 0.588991 0.331746 0.152061
H18   H     H_    0.959613 0.412879 0.678360 0.150752
H19   H     H_    0.953136 0.587533 0.675903 0.143819
H20   H     H_    0.078332 0.413401 0.336851 0.153453
H21   H     H_    0.570936 0.089831 0.329016 0.159115
H22   H     H_    0.467584 0.913983 0.680311 0.139988
H23   H     H_    0.512036 0.088850 0.723387 0.160634
H24   H     H_    0.576794 0.914060 0.338827 0.145810
H25   H     H_    0.703409 0.414103 0.710552 0.091307
H26   H     H_    0.270993 0.587747 0.332519 0.088623
H27   H     H_    0.270514 0.413340 0.334069 0.086586
H28   H     H_    0.709822 0.588365 0.735242 0.110364
H29   H     H_    0.208998 0.911785 0.736741 0.101890
H30   H     H_    0.777279 0.088901 0.324191 0.092443
H31   H     H_    0.775247 0.913842 0.332179 0.090877
H32   H     H_    0.208982 0.087481 0.736839 0.103671
H33   H     H_    0.382008 0.485564 0.613566 0.107240
H34   H     H_    0.587240 0.517560 0.492620 0.114595
H35   H     H_    0.875276 0.989550 0.599138 0.114668
H36   H     H_    0.100742 0.012371 0.505057 0.115749
H37   H     H_    0.525938 0.412342 0.648703 0.108551
H38   H     H_    0.447757 0.590359 0.461738 0.115267
H39   H     H_    0.458898 0.428947 0.423558 0.113324
H40   H     H_    0.515757 0.573339 0.687937 0.107916
H41   H     H_    0.019979 0.912825 0.649687 0.124961
H42   H     H_    0.960646 0.088794 0.459517 0.118197
H43   H     H_    0.967109 0.926363 0.428920 0.114539
H44   H     H_    0.014123 0.075168 0.680700 0.118228
N1    N     N_R   0.892620 0.603790 0.941800 -0.038851
N2    N     N_R   0.107380 0.396210 0.058200 -0.041436
N3    N     N_R   0.107380 0.603790 0.058200 -0.043185
N4    N     N_R   0.892620 0.396210 0.941800 -0.038877
N5    N     N_R   0.392620 0.103790 0.941800 -0.037631
N6    N     N_R   0.607380 0.896210 0.058200 -0.042210
N7    N     N_R   0.607380 0.103790 0.058200 -0.037149
N8    N     N_R   0.392620 0.896210 0.941800 -0.040368
N9    N     N_R   0.952210 0.397600 0.057910 -0.047194
N10   N     N_R   0.047790 0.602400 0.942090 -0.045552
N11   N     N_R   0.047790 0.397600 0.942090 -0.050984
N12   N     N_R   0.952210 0.602400 0.057910 -0.046653
N13   N     N_R   0.452210 0.897600 0.057910 -0.051808
N14   N     N_R   0.547790 0.102400 0.942090 -0.046021
N15   N     N_R   0.547790 0.897600 0.942090 -0.049763
N16   N     N_R   0.452210 0.102400 0.057910 -0.046927
N17   N     N_R   0.026300 0.529110 0.206760 -0.043704
N18   N     N_R   0.973700 0.470890 0.793240 -0.056639
N19   N     N_R   0.973700 0.529110 0.793240 -0.054550
N20   N     N_R   0.026300 0.470890 0.206760 -0.049309
N21   N     N_R   0.526300 0.029110 0.206760 -0.049725
N22   N     N_R   0.473700 0.970890 0.793240 -0.055964
N23   N     N_R   0.473700 0.029110 0.793240 -0.055500
N24   N     N_R   0.526300 0.970890 0.206760 -0.052010
N25   N     N_R   0.818530 0.472270 0.792960 -0.038381
N26   N     N_R   0.181470 0.527730 0.207040 -0.032478
N27   N     N_R   0.181470 0.472270 0.207040 -0.031197
N28   N     N_R   0.818530 0.527730 0.792960 -0.039709
N29   N     N_R   0.318530 0.972270 0.792960 -0.041395
N30   N     N_R   0.681470 0.027730 0.207040 -0.033390
N31   N     N_R   0.681470 0.972270 0.207040 -0.033598
N32   N     N_R   0.318530 0.027730 0.792960 -0.039488
Ni1   Ni    Ni4+2 0.934150 0.565840 0.869060 0.209548
Ni2   Ni    Ni4+2 0.065850 0.434160 0.130940 0.206247
Ni3   Ni    Ni4+2 0.065850 0.565840 0.130940 0.208725
Ni4   Ni    Ni4+2 0.934150 0.434160 0.869060 0.203698
Ni5   Ni    Ni4+2 0.434150 0.065840 0.869060 0.208045
Ni6   Ni    Ni4+2 0.565850 0.934160 0.130940 0.206891
Ni7   Ni    Ni4+2 0.565850 0.065840 0.130940 0.208014
Ni8   Ni    Ni4+2 0.434150 0.934160 0.869060 0.200260
H45   H     H_    0.641429 0.337460 0.835243 0.154022
H46   H     H_    0.350157 0.679266 0.190208 0.162673
H47   H     H_    0.348268 0.323303 0.184098 0.160059
H48   H     H_    0.806089 0.757374 0.842992 0.156382
H49   H     H_    0.295538 0.740053 0.839512 0.163543
H50   H     H_    0.722164 0.249530 0.177873 0.156419
H51   H     H_    0.852713 0.826259 0.182717 0.161197
H52   H     H_    0.305890 0.256265 0.846004 0.164856
O1    O     O_3   0.219747 0.644939 0.823001 -0.645643
C101  C     C_3   0.264221 0.592822 0.851963 0.271578
H53   H     H_    0.220433 0.565254 0.779242 0.147918
H54   H     H_    0.266169 0.573292 0.921076 0.076946
C102  C     C_3   0.364547 0.595516 0.880081 -0.382844
H55   H     H_    0.362559 0.618111 0.813874 0.206071
H56   H     H_    0.413191 0.617848 0.960154 0.193440
C103  C     C_3   0.404127 0.538239 0.890895 -1.004523
H57   H     H_    0.357735 0.514895 0.811727 0.250759
H58   H     H_    0.409273 0.515574 0.959183 0.274594
H59   H     H_    0.476146 0.541542 0.910331 0.272829
O2    O     O_3   0.859416 0.305984 0.211889 -0.696495
C104  C     C_3   0.924116 0.266858 0.221230 0.160449
H60   H     H_    0.996575 0.284892 0.276679 0.130333
H61   H     H_    0.912781 0.257732 0.140254 0.090607
C105  C     C_3   0.921937 0.213530 0.274124 -0.307261
H62   H     H_    0.933080 0.222978 0.354384 0.212465
H63   H     H_    0.851991 0.192925 0.218253 0.195783
C106  C     C_3   0.998415 0.174024 0.294117 -1.013020
H64   H     H_    0.984377 0.161661 0.213419 0.271775
H65   H     H_    0.997939 0.136738 0.336567 0.269931
H66   H     H_    0.069827 0.193475 0.347254 0.264357
O3    O     O_3   0.921440 0.731949 0.210832 -0.686136
C107  C     C_3   0.856260 0.694233 0.205368 0.166618
H67   H     H_    0.898281 0.659387 0.260533 0.123512
H68   H     H_    0.805020 0.676231 0.120561 0.094703
C108  C     C_3   0.801021 0.719832 0.245865 -0.320130
H69   H     H_    0.850904 0.738771 0.329342 0.204731
H70   H     H_    0.753088 0.752218 0.187275 0.196253
C109  C     C_3   0.740702 0.676520 0.252036 -1.043794
H71   H     H_    0.686454 0.659508 0.167704 0.272084
H72   H     H_    0.703898 0.695222 0.285012 0.270658
H73   H     H_    0.785816 0.642676 0.308203 0.258554
O4    O     O_3   0.184060 0.334722 0.801289 -0.674168
C110  C     C_3   0.118038 0.293425 0.728160 0.208415
H74   H     H_    0.045153 0.310050 0.684376 0.123242
H75   H     H_    0.118172 0.256390 0.772600 0.080267
C111  C     C_3   0.132838 0.277572 0.638859 -0.263568
H76   H     H_    0.094749 0.306783 0.568500 0.233262
H77   H     H_    0.208811 0.279884 0.672276 0.199296
C112  C     C_3   0.096478 0.219662 0.594679 -1.077132
H78   H     H_    0.135287 0.189432 0.663192 0.269777
H79   H     H_    0.108437 0.209481 0.530846 0.285663
H80   H     H_    0.019401 0.216638 0.556733 0.274751
O5    O     O_3   0.541826 0.248886 0.793681 -0.692165
C113  C     C_3   0.580812 0.232782 0.735875 0.161780
H81   H     H_    0.565255 0.188567 0.714996 0.155644
H82   H     H_    0.659728 0.237004 0.785084 0.086853
C114  C     C_3   0.534087 0.265135 0.627421 -0.313612
H83   H     H_    0.455929 0.258774 0.575912 0.213690
H84   H     H_    0.548943 0.309526 0.646559 0.179646
C115  C     C_3   0.571483 0.247658 0.560871 -0.957530
H85   H     H_    0.648343 0.257596 0.608469 0.248125
H86   H     H_    0.532953 0.270047 0.480563 0.269816
H87   H     H_    0.560736 0.203006 0.542904 0.320471
O6    O     O_3   0.445151 0.762794 0.217059 -0.683387
C116  C     C_3   0.534057 0.736203 0.277975 0.125306
H88   H     H_    0.573996 0.747734 0.243495 0.103254
H89   H     H_    0.526399 0.690653 0.275357 0.109794
C117  C     C_3   0.590187 0.754722 0.399502 -0.251692
H90   H     H_    0.606165 0.799293 0.405732 0.198084
H91   H     H_    0.545564 0.747761 0.429419 0.214795
C118  C     C_3   0.682845 0.723020 0.473154 -1.070007
H92   H     H_    0.669044 0.678148 0.462901 0.274004
H93   H     H_    0.717179 0.733626 0.562025 0.268123
H94   H     H_    0.732465 0.733814 0.451795 0.272497
O7    O     O_3   0.388449 0.223264 0.197594 -0.678810
C119  C     C_3   0.309989 0.189862 0.169788 0.188396
H95   H     H_    0.338687 0.153567 0.225168 0.119230
H96   H     H_    0.269220 0.173372 0.082975 0.095528
C120  C     C_3   0.242519 0.219968 0.188086 -0.332362
H97   H     H_    0.280104 0.229527 0.278017 0.197733
H98   H     H_    0.218661 0.259102 0.141939 0.208633
C121  C     C_3   0.153617 0.185777 0.146313 -1.026813
H99   H     H_    0.109308 0.182466 0.053934 0.268907
H100  H     H_    0.111154 0.205888 0.170848 0.274059
H101  H     H_    0.172455 0.143876 0.181608 0.260473
O8    O     O_3   0.668320 0.820494 0.797313 -0.655204
C122  C     C_3   0.601778 0.776219 0.752591 0.204477
H102  H     H_    0.529552 0.793960 0.707598 0.116815
H103  H     H_    0.608651 0.748636 0.817108 0.060041
C123  C     C_3   0.607126 0.742542 0.668988 -0.295646
H104  H     H_    0.613019 0.770649 0.614611 0.213781
H105  H     H_    0.670491 0.716048 0.713391 0.182291
C124  C     C_3   0.520283 0.705415 0.597966 -1.064298
H106  H     H_    0.514175 0.677280 0.652264 0.266904
H107  H     H_    0.528011 0.680459 0.540986 0.275920
H108  H     H_    0.454573 0.730127 0.547213 0.268590
O9    O     O_3   0.007014 0.402211 0.566526 -0.664860
C125  C     C_3   0.934145 0.384041 0.457069 0.223376
H109  H     H_    0.927812 0.338860 0.459939 0.132225
H110  H     H_    0.950768 0.391739 0.395965 0.131067
C126  C     C_3   0.838366 0.409514 0.416336 -0.393168
H111  H     H_    0.821228 0.399704 0.475954 0.204416
H112  H     H_    0.842386 0.454773 0.411953 0.198964
C127  C     C_3   0.758789 0.387840 0.301051 -0.905008
H113  H     H_    0.773100 0.398627 0.239332 0.274604
H114  H     H_    0.690380 0.406555 0.274427 0.255777
H115  H     H_    0.752361 0.342620 0.303003 0.269520
O10   O     O_3   0.149465 0.599521 0.531393 -0.633138
C128  C     C_3   0.241467 0.591772 0.558627 0.274419
H116  H     H_    0.238501 0.569130 0.491443 0.095974
H117  H     H_    0.286994 0.568444 0.637560 0.045989
C129  C     C_3   0.288273 0.647539 0.574307 -0.335258
H118  H     H_    0.294338 0.670266 0.643376 0.196524
H119  H     H_    0.360925 0.640967 0.597392 0.155110
C130  C     C_3   0.232103 0.682113 0.468617 -0.838178
H120  H     H_    0.160665 0.691699 0.446902 0.277628
H121  H     H_    0.223812 0.660125 0.397704 0.232662
H122  H     H_    0.270516 0.721249 0.482624 0.233516
O11   O     O_3   0.143715 0.404914 0.527871 -0.664307
C131  C     C_3   0.239072 0.402950 0.623004 0.228475
H123  H     H_    0.241013 0.386697 0.694328 0.166607
H124  H     H_    0.275045 0.443910 0.647470 0.062055
C132  C     C_3   0.295419 0.365427 0.599485 -0.342695
H125  H     H_    0.259261 0.324983 0.568537 0.207691
H126  H     H_    0.299326 0.384057 0.533818 0.199526
C133  C     C_3   0.395698 0.357217 0.704642 -0.965746
H127  H     H_    0.432234 0.397258 0.739735 0.258026
H128  H     H_    0.436730 0.333012 0.683520 0.288775
H129  H     H_    0.393589 0.334761 0.768341 0.280511
O12   O     O_3   0.046674 0.602024 0.616430 -0.618328
C134  C     C_3   0.988561 0.638303 0.526401 0.325989
H130  H     H_    0.918022 0.641006 0.511145 0.068225
H131  H     H_    0.974454 0.624831 0.445873 0.029153
C135  C     C_3   0.035472 0.695194 0.555420 -0.207219
H132  H     H_    0.113057 0.691070 0.597069 0.249620
H133  H     H_    0.006065 0.718658 0.477636 0.143477
C136  C     C_3   0.019266 0.727795 0.630973 -0.939892
H134  H     H_    0.942084 0.734051 0.589256 0.245561
H135  H     H_    0.054319 0.768538 0.649453 0.245125
H136  H     H_    0.049986 0.706101 0.710774 0.292039
O13   O     O_3   0.558853 0.901708 0.614955 -0.632164
C137  C     C_3   0.494981 0.872747 0.513207 0.231416
H137  H     H_    0.481540 0.832160 0.534710 0.122606
H138  H     H_    0.526760 0.864320 0.467926 0.136676
C138  C     C_3   0.397981 0.900848 0.435440 -0.427584
H139  H     H_    0.365550 0.907946 0.480435 0.207233
H140  H     H_    0.406762 0.940996 0.407160 0.195327
C139  C     C_3   0.330668 0.865498 0.332499 -0.926190
H141  H     H_    0.361001 0.858551 0.285041 0.282141
H142  H     H_    0.261475 0.886618 0.277557 0.265149
H143  H     H_    0.318254 0.825323 0.357198 0.260862
O14   O     O_3   0.633514 0.106086 0.515369 -0.640921
C140  C     C_3   0.728978 0.107665 0.551131 0.185205
H144  H     H_    0.740645 0.078304 0.502573 0.110262
H145  H     H_    0.778180 0.097703 0.641540 0.092384
C141  C     C_3   0.751888 0.165295 0.532830 -0.238959
H146  H     H_    0.700761 0.176494 0.443608 0.198183
H147  H     H_    0.744498 0.194993 0.584203 0.203184
C142  C     C_3   0.852672 0.169099 0.564717 -1.089442
H148  H     H_    0.860964 0.140957 0.511985 0.271403
H149  H     H_    0.905206 0.158403 0.653838 0.272307
H150  H     H_    0.867100 0.211624 0.551677 0.271157
O15   O     O_3   0.674305 0.912308 0.539734 -0.673213
C143  C     C_3   0.759994 0.901777 0.644795 0.230047
H151  H     H_    0.744530 0.882062 0.700280 0.168292
H152  H     H_    0.802055 0.940134 0.685275 0.071082
C144  C     C_3   0.819916 0.862959 0.628820 -0.309318
H153  H     H_    0.779503 0.824515 0.588822 0.216349
H154  H     H_    0.835070 0.882217 0.572807 0.204359
C145  C     C_3   0.913503 0.849298 0.739718 -1.025005
H155  H     H_    0.956130 0.887186 0.780167 0.269208
H156  H     H_    0.954952 0.820939 0.724974 0.276900
H157  H     H_    0.899876 0.829106 0.796263 0.276610
O16   O     O_3   0.506534 0.098625 0.565154 -0.629058
C146  C     C_3   0.412220 0.092907 0.468113 0.273315
H158  H     H_    0.376483 0.056007 0.472312 0.072617
H159  H     H_    0.412047 0.089039 0.392948 0.049126
C147  C     C_3   0.353551 0.143306 0.452272 -0.323149
H160  H     H_    0.388788 0.180683 0.449934 0.211368
H161  H     H_    0.283175 0.139249 0.371051 0.165171
C148  C     C_3   0.337249 0.149310 0.542457 -0.866700
H162  H     H_    0.307293 0.110900 0.550532 0.245247
H163  H     H_    0.286391 0.183091 0.520074 0.240906
H164  H     H_    0.404567 0.159711 0.623364 0.267107

loop_
_geom_bond_atom_site_label_1
_geom_bond_atom_site_label_2
_ccdc_geom_bond_type
N28   Ni1   S    
C101  H54   S    
C118  H93   S    
C10   C85   S    
C107  C108  S    
C140  H144  S    
C15   C32   A    
C5    H5    S    
C16   C31   A    
C40   C46   A    
C125  H109  S    
C49   N9    A    
C58   C82   A    
C101  C102  S    
C122  H102  S    
C4    N4    A    
C96   C99   S    
C50   H10   S    
C5    N5    A    
C115  H85   S    
C123  H104  S    
C102  H56   S    
C38   C45   A    
C113  H81   S    
C131  C132  S    
C59   H19   S    
C51   C74   A    
N27   Ni2   S    
C137  H137  S    
C47   C83   S    
C18   C33   A    
C68   H28   S    
N25   Ni4   S    
C41   C43   A    
C69   N29   A    
C26   O6    S    
C72   H32   S    
C133  H128  S    
C28   O8    S    
N6    N15   A    
N21   Ni7   S    
C127  H115  S    
C13   C30   A    
N22   Ni8   S    
C141  H146  S    
C16   H48   S    
C23   O3    S    
C27   C35   A    
O12   C134  S    
C64   H24   S    
C21   C29   A    
C17   C21   A    
C23   C31   A    
C19   C23   A    
O3    C107  S    
C24   C32   A    
C42   O14   S    
C96   H44   S    
C30   C76   S    
C90   C92   S    
O11   C131  S    
C25   O5    S    
C137  C138  S    
C56   H16   S    
C14   C26   A    
C111  H77   S    
C129  H118  S    
C116  H89   S    
C64   N24   A    
C12   C93   S    
N13   Ni6   S    
C5    C77   A    
C58   N18   A    
C1    H1    S    
C140  C141  S    
N11   Ni4   S    
C7    C79   A    
C54   C79   A    
C3    H3    S    
C120  H98   S    
N8    N13   A    
C18   H50   S    
C135  C136  S    
C45   C81   S    
O14   C140  S    
C9    C90   S    
C115  H87   S    
C63   C84   A    
C67   N27   A    
C126  H112  S    
C148  H162  S    
C17   C34   A    
C4    H4    S    
C143  H151  S    
C91   C98   S    
C130  H122  S    
C71   C88   A    
N3    Ni3   S    
C57   N17   A    
C69   H29   S    
C136  H134  S    
N10   Ni1   S    
C146  H158  S    
N25   N28   A    
C132  H126  S    
C43   C47   A    
C43   O15   S    
C44   C48   A    
C19   H51   S    
C117  H90   S    
C3    N3    A    
C1    N1    A    
C144  H153  S    
C59   C82   A    
C97   H33   S    
C144  C145  S    
C51   N11   A    
C116  H88   S    
C147  H161  S    
C8    N8    A    
C107  H68   S    
C32   C74   S    
C6    C78   A    
C108  H70   S    
N26   N27   A    
C52   H12   S    
C54   H14   S    
N2    Ni2   S    
C61   H21   S    
C114  H83   S    
N30   N31   A    
C135  H133  S    
C46   C82   S    
C20   C35   A    
C129  C130  S    
N29   Ni8   S    
C89   C91   S    
C3    C75   A    
C112  H78   S    
N18   Ni4   S    
C39   C45   A    
C63   N23   A    
C93   C95   S    
O5    C113  S    
C68   C85   A    
C138  H140  S    
O13   C137  S    
C90   H38   S    
C92   C97   S    
C104  H61   S    
C94   H42   S    
C53   C80   A    
C139  H141  S    
C148  H164  S    
C55   C78   A    
C109  H73   S    
C143  C144  S    
C66   H26   S    
C127  H114  S    
C128  H116  S    
C130  H121  S    
C60   C81   A    
C94   C100  S    
C136  H136  S    
C109  H72   S    
C70   N30   A    
C121  H100  S    
C117  C118  S    
C103  H58   S    
C110  H75   S    
O1    C101  S    
C142  H149  S    
C7    H7    S    
C14   C29   A    
C37   O9    S    
C62   H22   S    
C72   C87   A    
N20   Ni2   S    
C62   C84   A    
C134  C135  S    
C22   C30   A    
C62   N22   A    
C18   C22   A    
C119  H95   S    
C121  H101  S    
C66   C86   A    
N7    Ni7   S    
N5    N16   A    
C125  H110  S    
C22   O2    S    
N26   Ni3   S    
C132  C133  S    
C108  C109  S    
C129  H119  S    
C60   N20   A    
C115  H86   S    
C146  C147  S    
C61   N21   A    
C102  H55   S    
N14   Ni5   S    
C59   N19   A    
C71   H31   S    
C39   O11   S    
O2    C104  S    
C125  C126  S    
O4    C110  S    
C124  H108  S    
C137  H138  S    
C21   O1    S    
C147  C148  S    
C118  H92   S    
C25   C33   A    
C122  C123  S    
C95   H43   S    
C123  C124  S    
C139  H143  S    
C120  H97   S    
N6    Ni6   S    
C113  C114  S    
C42   C44   A    
C141  H147  S    
C128  C129  S    
C104  C105  S    
C70   H30   S    
N1    N12   A    
N2    N11   A    
C53   H13   S    
C105  H62   S    
C116  C117  S    
N19   Ni1   S    
C141  C142  S    
N15   Ni8   S    
C93   C99   S    
N16   Ni7   S    
C69   C87   A    
C55   N15   A    
C101  H53   S    
C118  H94   S    
C10   C92   S    
C134  H130  S    
N4    Ni4   S    
N5    Ni5   S    
C119  C120  S    
C140  H145  S    
C113  H82   S    
N32   Ni5   S    
C132  H125  S    
C13   H45   S    
C61   C83   A    
C108  H69   S    
C95   C100  S    
C33   C79   S    
C35   C77   S    
C65   N25   A    
C102  C103  S    
C130  H120  S    
N7    N14   A    
C64   C83   A    
C126  H111  S    
C106  H64   S    
C38   O10   S    
C99   H35   S    
C91   H39   S    
C11   C94   S    
C89   H37   S    
C52   N12   A    
C92   H40   S    
O15   C143  S    
N17   N20   A    
C93   H41   S    
O6    C116  S    
C117  H91   S    
N18   N19   A    
C133  H127  S    
C67   C86   A    
C9    C97   S    
N30   Ni7   S    
C20   H52   S    
C63   H23   S    
C144  H154  S    
C1    C73   A    
C114  C115  S    
C37   C39   A    
C50   C75   A    
C38   C40   A    
C68   N28   A    
C55   H15   S    
C105  C106  S    
C71   N31   A    
C60   H20   S    
C72   N32   A    
C111  H76   S    
C12   C100  S    
C40   O12   S    
C6    N6    A    
C28   C36   A    
C56   N16   A    
C147  H160  S    
C2    H2    S    
O8    C122  S    
C12   C96   S    
C37   C46   A    
C133  H129  S    
C16   C28   A    
C120  C121  S    
C142  H148  S    
C138  H139  S    
C70   C88   A    
C9    C91   S    
C104  H60   S    
C110  H74   S    
C11   C99   S    
O10   C128  S    
C139  H142  S    
C126  C127  S    
C19   C36   A    
C148  H163  S    
C14   H46   S    
N12   Ni3   S    
C31   C73   S    
C58   H18   S    
C111  C112  S    
C41   O13   S    
C10   C98   S    
N3    N10   A    
C34   C80   S    
C15   C27   A    
C26   C34   A    
C20   C24   A    
C103  H57   S    
C136  H135  S    
N8    Ni8   S    
C123  H105  S    
C2    C74   A    
C13   C25   A    
O16   C146  S    
C24   O4    S    
C8    H8    S    
C143  H152  S    
C112  H80   S    
C6    H6    S    
C134  H131  S    
C107  H67   S    
C10   C89   S    
C119  H96   S    
C52   C73   A    
C17   H49   S    
O9    C125  S    
C15   H47   S    
C56   C77   A    
C48   C84   S    
C89   C97   S    
C114  H84   S    
C65   H25   S    
C94   C96   S    
C135  H132  S    
C67   H27   S    
C9    C86   S    
C54   N14   A    
C11   C88   S    
C106  H66   S    
C49   C76   A    
C146  H159  S    
C112  H79   S    
N31   Ni6   S    
C131  H123  S    
C106  H65   S    
C145  H155  S    
N21   N24   A    
C145  H156  S    
C124  H107  S    
N22   N23   A    
C138  C139  S    
C7    N7    A    
N17   Ni3   S    
C57   H17   S    
O7    C119  S    
C49   H9    S    
N29   N32   A    
C11   C95   S    
C122  H103  S    
N9    Ni2   S    
C51   H11   S    
C12   C87   S    
C66   N26   A    
C57   C81   A    
C65   C85   A    
C29   C75   S    
C2    N2    A    
C145  H157  S    
C27   O7    S    
C98   H34   S    
C53   N13   A    
C127  H113  S    
C128  H117  S    
C36   C78   S    
N23   Ni5   S    
C50   N10   A    
C103  H59   S    
C131  H124  S    
C41   C48   A    
C42   C47   A    
C109  H71   S    
N24   Ni6   S    
C4    C76   A    
C121  H99   S    
C100  H36   S    
C110  C111  S    
C105  H63   S    
N4    N9    A    
C142  H150  S    
N1    Ni1   S    
C8    C80   A    
C44   O16   S    
C124  H106  S    
C90   C98   S    
