data_mof_unit_41871.cif
_audit_creation_date              2012-12-10T20:55:04-0500
_audit_creation_method            fapswitch 2.2
_symmetry_space_group_name_H-M    P1
_symmetry_Int_Tables_number       1
_space_group_crystal_system       triclinic
_cell_length_a                    15.832185
_cell_length_b                    15.068577
_cell_length_c                    10.86963
_cell_angle_alpha                 90.404522
_cell_angle_beta                  90.0578
_cell_angle_gamma                 89.530522
_cell_volume                      2592.99845816

loop_
_atom_site_label
_atom_site_type_symbol
_atom_type_description
_atom_site_fract_x
_atom_site_fract_y
_atom_site_fract_z
_atom_type_partial_charge
C1    C     C_R   0.338921 0.500115 0.496938 0.961851
C2    C     C_R   0.661132 0.499681 0.499343 0.949180
C3    C     C_R   0.956557 0.433169 0.427558 -0.137793
C4    C     C_R   0.044118 0.433827 0.425579 -0.143237
C5    C     C_1   0.824375 0.499773 0.493028 -0.009786
C6    C     C_1   0.175665 0.501408 0.487449 -0.003050
C7    C     C_1   0.250484 0.500560 0.491301 -0.041242
C8    C     C_1   0.749535 0.499223 0.496318 -0.059578
C9    C     C_R   0.421123 0.955443 0.490502 0.467035
C10   C     C_R   0.574529 0.952330 0.511475 0.313122
C11   C     C_R   0.497410 0.905250 0.501416 -0.228324
C12   C     C_R   0.574761 0.046243 0.511251 -0.164982
C13   C     C_R   0.423431 0.049202 0.490919 -0.193912
C14   C     C_R   0.499543 0.095347 0.500948 -0.076284
C15   C     C_1   0.498303 0.807135 0.501062 0.418440
C16   C     C_1   0.500040 0.192944 0.500429 0.241033
C17   C     C_R   0.495789 0.499219 0.259000 0.937844
C18   C     C_R   0.500697 0.500193 0.740070 1.015111
C19   C     C_R   0.403922 0.640684 0.116004 0.189651
C20   C     C_R   0.385713 0.615178 0.869853 0.189383
C21   C     C_R   0.382830 0.714530 0.043119 0.208987
C22   C     C_R   0.366108 0.699356 0.917409 0.268111
C23   C     C_R   0.443873 0.560987 0.933143 -0.107793
C24   C     C_R   0.446971 0.566996 0.061246 -0.087111
C25   C     C_R   0.487614 0.496225 0.125909 -0.216124
C26   C     C_R   0.496719 0.499965 0.871728 -0.224399
C27   C     C_R   0.527747 0.425208 0.059589 0.278683
C28   C     C_R   0.546219 0.438665 0.936305 0.297789
C29   C     C_R   0.955933 0.570241 0.547655 -0.124498
C30   C     C_R   0.043470 0.570895 0.545690 -0.125343
C31   C     C_R   0.913139 0.501148 0.489106 0.133215
C32   C     C_R   0.086894 0.502489 0.485102 0.139707
H1    H     H_    0.077206 0.623836 0.591987 0.168300
H2    H     H_    0.921749 0.622826 0.595163 0.180818
H3    H     H_    0.922851 0.379796 0.382239 0.172017
H4    H     H_    0.078345 0.380833 0.379030 0.167862
H5    H     H_    0.364951 0.086659 0.483114 0.192956
H6    H     H_    0.633883 0.081466 0.519071 0.205612
N1    N     N_1   0.500000 0.270550 0.500000 -0.055429
N2    N     N_1   0.500000 0.729450 0.500000 -0.037722
O1    O     O_R   0.378020 0.573650 0.500040 -0.545786
O2    O     O_R   0.621980 0.573650 0.499960 -0.604234
O3    O     O_R   0.378020 0.426320 0.500100 -0.631184
O4    O     O_R   0.621980 0.426320 0.499900 -0.583854
O5    O     O_R   0.500000 0.573680 0.316780 -0.610919
O6    O     O_R   0.500000 0.573680 0.683220 -0.610590
O7    O     O_R   0.500000 0.426350 0.316830 -0.553280
O8    O     O_R   0.500000 0.426350 0.683170 -0.585941
Zn1   Zn    Zn3+2 0.500000 0.598370 0.500000 1.115384
Zn2   Zn    Zn3+2 0.500000 0.401630 0.500000 1.112285
S1    S     S_3+6 0.545260 0.316345 0.121075 0.114850
O9    O     O_2   0.618718 0.318263 0.208771 -0.217966
O10   O     O_2   0.467852 0.286179 0.188611 -0.288132
O11   O     O_3   0.565671 0.240646 0.010498 -0.428562
H7    H     H_    0.511559 0.233615 0.965755 0.368591
S2    S     S_3+6 0.639903 0.392431 0.869147 0.076514
O12   O     O_2   0.618173 0.313399 0.790445 -0.260574
O13   O     O_2   0.681306 0.461062 0.790251 -0.337445
O14   O     O_3   0.708792 0.361419 0.978922 -0.460725
H8    H     H_    0.756806 0.334086 0.933777 0.395906
Br1   Br    Br    0.326433 0.623197 0.248047 -0.406794
Br2   Br    Br    0.300410 0.553465 0.779423 -0.475587
S3    S     S_3+6 0.368770 0.819164 0.115917 0.158313
O15   O     O_2   0.393034 0.894168 0.033182 -0.194811
O16   O     O_2   0.277866 0.830265 0.152863 -0.137960
O17   O     O_3   0.429791 0.823060 0.242091 -0.516285
H9    H     H_    0.488408 0.816622 0.211286 0.336948
S4    S     S_3+6 0.320054 0.781026 0.820623 0.147411
O18   O     O_2   0.248520 0.827565 0.885989 -0.196593
O19   O     O_2   0.386242 0.847976 0.788953 -0.215997
O20   O     O_3   0.283916 0.736835 0.688421 -0.481662
H10   H     H_    0.221775 0.733938 0.697861 0.381251
S5    S     S_3+6 0.319972 0.906876 0.476381 0.128972
O21   O     O_2   0.271483 0.925014 0.592721 -0.212456
O22   O     O_2   0.274230 0.950530 0.371445 -0.217413
O23   O     O_3   0.324158 0.796856 0.450594 -0.462941
H11   H     H_    0.264909 0.779445 0.434829 0.409640
S6    S     S_3+6 0.672095 0.894723 0.524047 0.068972
O24   O     O_2   0.745108 0.957883 0.524465 -0.237513
O25   O     O_2   0.672751 0.843153 0.641865 -0.227962
O26   O     O_3   0.682747 0.823182 0.405531 -0.528391
H12   H     H_    0.673943 0.859586 0.331012 0.356422

loop_
_geom_bond_atom_site_label_1
_geom_bond_atom_site_label_2
_ccdc_geom_bond_type
C6    C32   S    
C4    H4    S    
S5    O21   D    
C18   C26   S    
S3    O16   D    
O26   H12   S    
C10   S6    S    
O6    Zn1   S    
C19   C21   A    
C19   Br1   S    
S6    O25   D    
N2    Zn1   S    
S2    O12   D    
C23   C26   A    
C9    C13   A    
C11   C15   S    
C1    O3    A    
C2    O4    A    
S4    O18   D    
C23   C24   A    
O5    Zn1   S    
C13   H5    S    
O8    Zn2   S    
O17   H9    S    
S3    O17   S    
O14   H8    S    
C13   C14   A    
C12   H6    S    
S5    O22   D    
C9    S5    S    
C18   O6    A    
O1    Zn1   S    
C27   S1    S    
O7    Zn2   S    
C28   S2    S    
S1    O9    D    
C24   C25   A    
S6    O24   D    
O2    Zn1   S    
C29   H2    S    
S1    O10   D    
C29   C30   A    
C20   C23   A    
C3    H3    S    
O23   H11   S    
C3    C31   A    
C9    C11   A    
C22   S4    S    
C4    C32   A    
C10   C12   A    
C1    O1    A    
C20   C22   A    
S5    O23   S    
C14   C16   S    
C3    C4    A    
O4    Zn2   S    
O11   H7    S    
C30   H1    S    
C1    C7    S    
C2    C8    S    
C17   O7    A    
C17   O5    A    
C18   O8    A    
C5    C8    T    
O3    Zn2   S    
C6    C7    T    
C25   C27   A    
C26   C28   A    
S2    O14   S    
S1    O11   S    
C17   C25   S    
C19   C24   A    
C12   C14   A    
O20   H10   S    
C29   C31   A    
C30   C32   A    
S6    O26   S    
C2    O2    A    
S4    O20   S    
S2    O13   D    
C20   Br2   S    
C15   N2    T    
C21   S3    S    
C10   C11   A    
C16   N1    T    
S3    O15   D    
N1    Zn2   S    
S4    O19   D    
C27   C28   A    
C21   C22   A    
C5    C31   S    
