data_mof_unit_16357.cif
_audit_creation_date              2012-12-11T15:36:28-0500
_audit_creation_method            fapswitch 2.2
_symmetry_space_group_name_H-M    P1
_symmetry_Int_Tables_number       1
_space_group_crystal_system       triclinic
_cell_length_a                    15.046514
_cell_length_b                    15.051241
_cell_length_c                    34.823546
_cell_angle_alpha                 91.281102
_cell_angle_beta                  91.754837
_cell_angle_gamma                 60.185125
_cell_volume                      6839.1250622

loop_
_atom_site_label
_atom_site_type_symbol
_atom_type_description
_atom_site_fract_x
_atom_site_fract_y
_atom_site_fract_z
_atom_type_partial_charge
C1    C     C_R   0.610962 0.302094 0.444016 0.565333
C2    C     C_R   0.580511 0.098074 0.762911 0.135612
C3    C     C_R   0.097935 0.759886 0.886030 -0.131442
C4    C     C_R   0.120323 0.752142 0.847175 -0.089258
C5    C     C_R   0.102133 0.686763 0.823018 0.039269
C6    C     C_R   0.068615 0.623734 0.838657 -0.126926
C7    C     C_R   0.048135 0.629985 0.877551 -0.128817
C8    C     C_R   0.169074 0.591089 0.762454 -0.130883
C9    C     C_R   0.180435 0.586430 0.722976 -0.107003
C10   C     C_R   0.137671 0.676529 0.701454 0.007490
C11   C     C_R   0.083373 0.771718 0.719953 -0.098185
C12   C     C_R   0.070273 0.777353 0.759743 0.156861
C13   C     C_R   0.588845 0.168239 0.788586 0.045537
C14   C     C_R   0.656528 0.766869 0.164989 -0.120412
C15   C     C_R   0.114430 0.685838 0.781250 0.061876
C16   C     C_R   0.192906 0.730409 0.644173 -0.115010
C17   C     C_R   0.231900 0.709240 0.607299 -0.127940
C18   C     C_R   0.190661 0.572875 0.600774 -0.121130
C19   C     C_R   0.151395 0.594322 0.637559 -0.115637
C20   C     C_R   0.156747 0.669953 0.660120 0.032975
C21   C     C_R   0.235518 0.627059 0.586088 0.022584
C22   C     C_R   0.673693 0.078981 0.905871 0.015071
C23   C     C_R   0.585060 0.082303 0.889957 -0.134996
C24   C     C_R   0.533539 0.207944 0.640855 0.190733
C25   C     C_R   0.552328 0.117495 0.852444 -0.089125
C26   C     C_3   0.265745 0.508748 0.057963 -0.291914
C27   C     C_3   0.405252 0.189204 0.350973 -0.317718
C28   C     C_3   0.802635 0.398274 0.846144 -0.290873
C29   C     C_3   0.907225 0.903259 0.784804 -0.292605
C30   C     C_3   0.663794 0.924768 0.786789 -0.291318
C31   C     C_3   0.866379 0.148826 0.585858 -0.292082
C32   C     C_R   0.829065 0.622640 0.161455 -0.124883
C33   C     C_R   0.540050 0.230798 0.602628 -0.170488
C34   C     C_R   0.702742 0.224196 0.616665 0.121927
C35   C     C_R   0.698006 0.197994 0.655217 0.205371
C36   C     C_R   0.610373 0.196292 0.667449 0.079940
C37   C     C_R   0.620139 0.245768 0.590727 -0.022427
C38   C     C_R   0.046044 0.738924 0.048504 0.547546
C39   C     C_R   0.744419 0.689439 0.183379 0.030364
C40   C     C_R   0.747525 0.746840 0.064170 0.542899
C41   C     C_R   0.751491 0.040061 0.050802 0.540026
C42   C     C_R   0.016358 0.722640 0.939644 0.540126
C43   C     C_R   0.717288 0.730280 0.954793 0.542625
C44   C     C_R   0.827857 0.636910 0.121917 -0.127616
C45   C     C_R   0.721474 0.024402 0.941978 0.542841
C46   C     C_R   0.779021 0.584403 0.242127 -0.117215
C47   C     C_R   0.769743 0.577592 0.281515 -0.114433
C48   C     C_R   0.729001 0.666029 0.304849 0.029781
C49   C     C_R   0.703069 0.760441 0.288400 -0.118697
C50   C     C_R   0.608820 0.148169 0.830301 0.037387
C51   C     C_R   0.711780 0.767283 0.248990 -0.119220
C52   C     C_R   0.747017 0.679787 0.225442 0.026694
C53   C     C_R   0.607354 0.735391 0.359054 -0.119322
C54   C     C_R   0.593412 0.610268 0.449428 0.541993
C55   C     C_R   0.574064 0.721946 0.394237 -0.126950
C56   C     C_R   0.733774 0.562790 0.403087 -0.119580
C57   C     C_R   0.767197 0.576462 0.367957 -0.118146
C58   C     C_R   0.702820 0.661041 0.345002 0.031721
C59   C     C_R   0.635455 0.633659 0.415911 0.020296
C60   C     C_R   0.103355 0.729114 0.084962 0.040949
C61   C     C_R   0.692989 0.151235 0.847326 -0.144933
C62   C     C_R   0.155959 0.634228 0.104391 0.141405
C63   C     C_R   0.174392 0.633890 0.144083 -0.109035
C64   C     C_R   0.146058 0.725445 0.164129 0.002852
C65   C     C_R   0.106862 0.817173 0.143998 -0.137493
C66   C     C_R   0.303583 0.591555 0.442297 0.567586
C67   C     C_R   0.085498 0.819081 0.104665 -0.162479
C68   C     C_R   0.209276 0.756663 0.227241 -0.117335
C69   C     C_R   0.216607 0.748616 0.267239 -0.112751
C70   C     C_R   0.161708 0.711004 0.286843 0.033544
C71   C     C_R   0.096305 0.685567 0.265689 -0.117978
C72   C     C_R   0.724613 0.117749 0.884676 -0.130401
C73   C     C_R   0.090494 0.691931 0.225755 -0.116826
C74   C     C_R   0.148388 0.725631 0.206315 0.026374
C75   C     C_R   0.188222 0.599252 0.343104 -0.108311
C76   C     C_R   0.220896 0.569263 0.381288 0.245479
C77   C     C_R   0.232094 0.723920 0.391148 -0.175839
C78   C     C_R   0.605555 0.300269 0.553903 0.559805
C79   C     C_R   0.198645 0.753217 0.353387 -0.141221
C80   C     C_R   0.180218 0.689308 0.328553 -0.000146
C81   C     C_R   0.247657 0.630093 0.405120 0.058378
C82   C     C_R   0.726364 0.095197 0.087814 0.023824
C83   C     C_R   0.593162 0.251899 0.773603 -0.148784
C84   C     C_R   0.804569 0.095655 0.110752 -0.125982
C85   C     C_R   0.789417 0.120108 0.149734 -0.123031
C86   C     C_R   0.695384 0.146175 0.166111 0.030828
C87   C     C_R   0.614212 0.155163 0.142472 -0.120919
C88   C     C_R   0.629739 0.129344 0.103606 -0.127362
C89   C     C_R   0.598508 0.236204 0.224774 -0.123142
C90   C     C_R   0.587831 0.606446 0.559015 0.545871
C91   C     C_R   0.588085 0.242003 0.264529 -0.107720
C92   C     C_R   0.662924 0.165079 0.288139 0.023965
C93   C     C_R   0.748779 0.082638 0.271435 -0.125981
C94   C     C_R   0.597285 0.261912 0.734230 -0.071773
C95   C     C_R   0.759750 0.077386 0.231710 -0.117135
C96   C     C_R   0.684881 0.154359 0.208125 0.027524
C97   C     C_R   0.738073 0.174496 0.350955 -0.141053
C98   C     C_R   0.728382 0.206822 0.389420 0.233608
C99   C     C_R   0.553852 0.236764 0.387647 -0.141109
C100  C     C_R   0.564437 0.201032 0.349392 0.141905
C101  C     C_R   0.655590 0.176744 0.330333 -0.002442
C102  C     C_R   0.297623 0.589416 0.551573 0.543877
C103  C     C_R   0.633116 0.244245 0.407221 0.023310
C104  C     C_R   0.692571 0.691617 0.919085 -0.057146
C105  C     C_R   0.596711 0.188793 0.708858 0.086666
C106  C     C_R   0.764011 0.596273 0.903760 -0.145405
C107  C     C_R   0.754910 0.570793 0.865465 0.113849
C108  C     C_R   0.674515 0.643149 0.841850 0.021500
C109  C     C_R   0.597110 0.735954 0.858197 0.206833
C110  C     C_R   0.606630 0.757975 0.896704 -0.071495
C111  C     C_R   0.611830 0.600140 0.781781 -0.106818
C112  C     C_R   0.606333 0.593452 0.741858 0.242153
C113  C     C_R   0.669604 0.615916 0.719384 0.015818
C114  C     C_R   0.741666 0.717891 0.103777 0.020188
C115  C     C_R   0.740256 0.638907 0.737383 -0.049818
C116  C     C_R   0.584485 0.109278 0.723151 -0.061226
C117  C     C_R   0.746207 0.645153 0.777329 0.247497
C118  C     C_R   0.679389 0.627476 0.799799 -0.017417
C119  C     C_R   0.732485 0.543459 0.654142 0.248211
C120  C     C_R   0.712652 0.543905 0.614379 -0.121322
C121  C     C_R   0.551686 0.702493 0.621130 -0.143064
C122  C     C_R   0.570804 0.702451 0.660508 -0.172205
C123  C     C_R   0.658996 0.621539 0.677262 0.045770
C124  C     C_R   0.620366 0.621045 0.597935 -0.011048
C125  C     C_R   0.059433 0.700539 0.901231 0.020881
C126  C     C_R   0.654958 0.780769 0.125555 -0.124297
Cr1   Cr    Cr6+3 0.426010 0.422500 0.497000 1.033435
Cr2   Cr    Cr6+3 0.651300 0.426310 0.501970 1.048909
Cr3   Cr    Cr6+3 0.422670 0.651170 0.501050 1.007723
Cr4   Cr    Cr6+3 0.905130 0.911420 0.992650 1.008860
Cr5   Cr    Cr6+3 0.911860 0.682710 0.002320 1.021176
Cr6   Cr    Cr6+3 0.682710 0.906840 0.004710 1.011173
H1    H     H_    0.587319 0.843688 0.112463 0.129188
H2    H     H_    0.051216 0.658685 0.279928 0.106678
H3    H     H_    0.896093 0.587596 0.105950 0.133445
H4    H     H_    0.041578 0.669489 0.209900 0.112043
H5    H     H_    0.174577 0.548943 0.324216 0.089429
H6    H     H_    0.085472 0.888373 0.159185 0.110632
H7    H     H_    0.250347 0.772970 0.408890 0.132978
H8    H     H_    0.879887 0.069405 0.099375 0.119984
H9    H     H_    0.568169 0.129796 0.086495 0.115937
H10   H     H_    0.522519 0.307559 0.276965 0.137101
H11   H     H_    0.540116 0.296386 0.207062 0.104912
H12   H     H_    0.498008 0.777956 0.403395 0.127025
H13   H     H_    0.841840 0.518941 0.358071 0.106090
H14   H     H_    0.852527 0.114189 0.167471 0.102636
H15   H     H_    0.807484 0.022802 0.289178 0.109857
H16   H     H_    0.826127 0.012570 0.219330 0.112132
H17   H     H_    0.808504 0.153392 0.336321 0.098051
H18   H     H_    0.541023 0.175229 0.154566 0.102352
H19   H     H_    0.482226 0.263047 0.401959 0.153517
H20   H     H_    0.830102 0.543591 0.920886 0.128031
H21   H     H_    0.550301 0.831773 0.908095 0.163837
H22   H     H_    0.514428 0.763156 0.678292 0.128272
H23   H     H_    0.897520 0.562187 0.175138 0.100656
H24   H     H_    0.789038 0.504004 0.293289 0.106054
H25   H     H_    0.561493 0.585766 0.798969 0.144570
H26   H     H_    0.788992 0.655475 0.720151 0.153298
H27   H     H_    0.766508 0.480844 0.596757 0.118125
H28   H     H_    0.479953 0.762839 0.609350 0.140321
H29   H     H_    0.107440 0.814544 0.903905 0.120571
H30   H     H_    0.806124 0.516087 0.224435 0.104751
H31   H     H_    0.017209 0.584357 0.888503 0.131108
H32   H     H_    0.121796 0.548244 0.649173 0.117907
H33   H     H_    0.225078 0.512212 0.709359 0.132370
H34   H     H_    0.783306 0.494507 0.419402 0.138863
H35   H     H_    0.204178 0.520340 0.778492 0.116387
H36   H     H_    0.148890 0.799295 0.835767 0.144512
H37   H     H_    0.049827 0.841579 0.703395 0.104846
H38   H     H_    0.197965 0.788965 0.661162 0.110472
H39   H     H_    0.265600 0.752565 0.596569 0.127091
H40   H     H_    0.053897 0.572924 0.820456 0.141697
H41   H     H_    0.589511 0.817793 0.181291 0.104824
H42   H     H_    0.191091 0.510151 0.584753 0.131961
H43   H     H_    0.543991 0.053353 0.905732 0.130748
H44   H     H_    0.792651 0.117137 0.896136 0.133843
H45   H     H_    0.046502 0.892606 0.090521 0.129226
H46   H     H_    0.603814 0.325444 0.723526 0.166908
H47   H     H_    0.597623 0.307618 0.792608 0.118394
H48   H     H_    0.485629 0.116786 0.840258 0.154691
H49   H     H_    0.582101 0.053585 0.703516 0.134532
H50   H     H_    0.673159 0.829427 0.305832 0.105414
H51   H     H_    0.477820 0.244318 0.582772 0.130841
H52   H     H_    0.738286 0.174156 0.830982 0.108620
H53   H     H_    0.688732 0.841362 0.236717 0.109498
H54   H     H_    0.555578 0.800862 0.341821 0.101996
H55   H     H_    0.195128 0.480914 0.102587 0.235553
H56   H     H_    0.190580 0.824405 0.343245 0.111703
H57   H     H_    0.279193 0.437362 0.042977 0.139724
H58   H     H_    0.337548 0.493920 0.073386 0.131920
H59   H     H_    0.245269 0.568634 0.035984 0.155426
H60   H     H_    0.208115 0.447058 0.374891 0.306264
H61   H     H_    0.506990 0.143663 0.305986 0.254391
H62   H     H_    0.354606 0.174580 0.331139 0.130316
H63   H     H_    0.356544 0.263823 0.365416 0.170989
H64   H     H_    0.440477 0.126505 0.372337 0.143672
H65   H     H_    0.869837 0.178260 0.392586 0.312191
H66   H     H_    0.549420 0.551760 0.698518 0.336684
H67   H     H_    0.268713 0.767570 0.282593 0.103638
H68   H     H_    0.903157 0.448826 0.862896 0.245388
H69   H     H_    0.864626 0.329247 0.832023 0.150600
H70   H     H_    0.731655 0.425725 0.828252 0.161089
H71   H     H_    0.790076 0.376703 0.874966 0.130939
H72   H     H_    0.809260 0.679862 0.820828 0.330306
H73   H     H_    0.862553 0.416363 0.651029 0.314429
H74   H     H_    0.516123 0.788452 0.810512 0.326666
H75   H     H_    0.017517 0.932751 0.764554 0.252875
H76   H     H_    0.869546 0.976984 0.800891 0.148577
H77   H     H_    0.903799 0.844244 0.802284 0.178144
H78   H     H_    0.254102 0.783132 0.212535 0.106285
H79   H     H_    0.864810 0.912766 0.757116 0.150746
H80   H     H_    0.840166 0.157216 0.668830 0.331266
H81   H     H_    0.522617 0.999321 0.759046 0.255453
H82   H     H_    0.646263 0.868344 0.799413 0.191122
H83   H     H_    0.708134 0.942579 0.808575 0.163084
H84   H     H_    0.710480 0.890133 0.760853 0.148413
H85   H     H_    0.402508 0.213703 0.631221 0.323199
H86   H     H_    0.811203 0.271255 0.624841 0.255455
H87   H     H_    0.923757 0.168079 0.575476 0.142696
H88   H     H_    0.835059 0.125673 0.560710 0.170688
H89   H     H_    0.207981 0.562416 0.159647 0.099213
H90   H     H_    0.905047 0.083678 0.606076 0.125098
N1    N     N_2   0.183952 0.539917 0.084926 -0.496279
N2    N     N_2   0.483941 0.192945 0.329288 -0.519476
N3    N     N_2   0.831920 0.476257 0.849834 -0.493945
N4    N     N_2   0.012274 0.874853 0.777732 -0.531880
N5    N     N_2   0.569037 0.015980 0.776579 -0.529546
N6    N     N_2   0.785340 0.237241 0.604861 -0.494819
O1    O     O_R   0.324990 0.503440 0.453910 -0.442602
O2    O     O_R   0.675430 0.831160 0.051290 -0.517706
O3    O     O_R   0.698870 0.998880 0.039560 -0.499870
O4    O     O_R   0.522030 0.339050 0.458320 -0.521046
O5    O     O_R   0.811290 0.006780 0.950620 -0.516955
O6    O     O_R   0.980960 0.812920 0.953200 -0.499038
O7    O     O_R   0.001480 0.656720 0.955830 -0.521850
O8    O     O_R   0.809240 0.683250 0.968050 -0.498969
O9    O     O_R   0.652500 0.818540 0.967340 -0.519648
O10   O     O_R   0.677620 0.987170 0.961730 -0.502091
O11   O     O_3   0.833240 0.833660 0.999890 -0.238080
O12   O     O_R   0.639980 0.519500 0.542640 -0.499836
O13   O     O_R   0.676180 0.324490 0.458320 -0.442002
O14   O     O_R   0.643570 0.521510 0.464260 -0.500156
O15   O     O_R   0.504630 0.675350 0.460920 -0.519776
O16   O     O_R   0.339850 0.642450 0.459830 -0.520847
O17   O     O_R   0.321120 0.501280 0.538470 -0.518350
O18   O     O_R   0.518440 0.337050 0.536710 -0.513275
O19   O     O_R   0.672300 0.322330 0.542880 -0.474756
O20   O     O_3   0.231220 0.479118 0.395052 -0.690825
O21   O     O_3   0.809343 0.206807 0.409285 -0.679689
O22   O     O_3   0.537640 0.566083 0.726316 -0.706453
O23   O     O_R   0.500750 0.673190 0.545480 -0.517594
O24   O     O_3   0.815847 0.671590 0.792658 -0.725003
O25   O     O_3   0.819657 0.465212 0.671202 -0.694133
O26   O     O_3   0.514876 0.810585 0.837484 -0.712811
O27   O     O_3   0.775928 0.175813 0.682019 -0.715664
O28   O     O_3   0.449775 0.203033 0.653340 -0.712638
O29   O     O_R   0.336260 0.640450 0.538210 -0.504629
O30   O     O_3   0.499990 0.499990 0.500010 -0.250094
O31   O     O_R   0.834210 0.019400 0.034570 -0.521302
O32   O     O_R   0.002210 0.824620 0.031030 -0.514601
O33   O     O_R   0.024400 0.669340 0.039790 -0.475606
O34   O     O_R   0.830490 0.694950 0.045870 -0.501495

loop_
_geom_bond_atom_site_label_1
_geom_bond_atom_site_label_2
_ccdc_geom_bond_type
C8    C9    A    
C56   C59   A    
C99   C103  A    
C87   C88   A    
Cr3   O23   S    
C94   C105  A    
C55   C59   A    
C109  C110  A    
C18   C21   A    
Cr2   O14   S    
C73   C74   A    
C63   H89   S    
C105  C116  A    
C95   C96   A    
Cr6   O9    S    
C68   H78   S    
C71   H2    S    
C104  C106  A    
C97   C98   A    
C26   H58   S    
C25   H48   S    
C6    H40   S    
C85   C86   A    
C108  C109  A    
C66   O1    A    
C27   N2    S    
C24   C36   A    
C29   H76   S    
C66   O16   A    
C111  C118  A    
C51   H53   S    
C28   H69   S    
C54   O14   A    
Cr6   O11   S    
C45   O5    A    
C34   C35   A    
C14   H41   S    
C57   H13   S    
C43   O8    A    
Cr5   O33   S    
C5    C6    A    
C114  C126  A    
C23   H43   S    
C106  C107  A    
C100  N2    S    
C68   C74   A    
C98   C103  A    
C31   H90   S    
C46   C52   A    
C109  O26   S    
Cr1   O1    S    
C13   C50   S    
C56   C57   A    
C60   C62   A    
C18   C19   A    
C94   H46   S    
C32   C39   A    
C22   C72   A    
C24   O28   S    
C2    C13   A    
Cr6   O10   S    
C43   C104  S    
Cr1   O4    S    
C121  C124  A    
C43   O9    A    
C42   C125  S    
C78   O18   A    
C30   H83   S    
C45   O10   A    
C2    C116  A    
C117  O24   S    
H61   N2    S    
C40   C114  S    
C41   O3    A    
C60   C67   A    
C10   C20   S    
C16   C17   A    
C49   C51   A    
C87   H18   S    
C41   O31   A    
C33   H51   S    
C120  H27   S    
C107  C108  A    
C73   H4    S    
C70   C71   A    
Cr1   O17   S    
C77   C81   A    
C89   C91   A    
C90   O12   A    
C9    C10   A    
C1    C103  S    
C53   H54   S    
H68   N3    S    
Cr5   O34   S    
C44   H3    S    
C53   C55   A    
C39   C52   S    
C14   C39   A    
C44   C114  A    
C93   C95   A    
C31   N6    S    
C35   O27   S    
Cr2   O13   S    
C122  H22   S    
C76   O20   S    
C102  O17   A    
C40   O34   A    
C29   N4    S    
Cr4   O31   S    
C119  O25   S    
H86   N6    S    
C112  C113  A    
C26   H57   S    
C2    N5    S    
C29   H79   S    
C31   H87   S    
C54   C59   S    
C77   C79   A    
Cr4   O11   S    
C106  H20   S    
C79   H56   S    
C115  H26   S    
C70   C80   S    
C51   C52   A    
C108  C118  S    
C84   C85   A    
C126  H1    S    
Cr3   O30   S    
C75   H5    S    
C38   O33   A    
Cr5   O11   S    
C91   C92   A    
C71   C73   A    
C86   C87   A    
C68   C69   A    
Cr3   O15   S    
C4    H36   S    
C65   C67   A    
C89   H11   S    
C83   C94   A    
C7    H31   S    
Cr4   O6    S    
C33   C37   A    
C79   C80   A    
C38   O32   A    
C35   C36   A    
Cr2   O30   S    
C76   C81   A    
C48   C58   S    
C34   N6    S    
C75   C76   A    
C62   C63   A    
H81   N5    S    
C8    H35   S    
C30   H82   S    
C32   H23   S    
C42   O7    A    
H66   O22   S    
H75   N4    S    
C12   N4    S    
C47   C48   A    
C113  C123  S    
C12   C15   A    
H65   O21   S    
C16   C20   A    
C116  H49   S    
C3    C125  A    
C78   O19   A    
C32   C44   A    
Cr1   O30   S    
Cr1   O18   S    
C62   N1    S    
C85   H14   S    
C119  C120  A    
C29   H77   S    
C121  C122  A    
C86   C96   S    
C92   C101  S    
C38   C60   S    
C65   H6    S    
C1    O13   A    
C61   C72   A    
C48   C49   A    
C7    C125  A    
C26   H59   S    
C11   H37   S    
C8    C15   A    
C82   C84   A    
C67   H45   S    
C27   H63   S    
C21   C102  S    
C27   H62   S    
C3    C4    A    
H74   O26   S    
Cr6   O3    S    
C18   H42   S    
C88   H9    S    
H73   O25   S    
C31   H88   S    
C75   C80   A    
C115  C117  A    
C46   C47   A    
C61   H52   S    
C97   H17   S    
C55   H12   S    
C121  H28   S    
C111  C112  A    
C36   C105  S    
C28   H71   S    
C90   C124  S    
C30   N5    S    
C99   H19   S    
C95   H16   S    
C77   H7    S    
C63   C64   A    
Cr6   O2    S    
C28   N3    S    
C98   O21   S    
Cr4   O32   S    
C53   C58   A    
C17   H39   S    
C112  O22   S    
C6    C7    A    
Cr3   O16   S    
C119  C123  A    
Cr5   O8    S    
Cr2   O12   S    
C90   O23   A    
C13   C83   A    
Cr4   O5    S    
Cr3   O29   S    
C24   C33   A    
C14   C126  A    
C102  O29   A    
C83   H47   S    
H60   O20   S    
Cr5   O7    S    
C54   O15   A    
C91   H10   S    
C19   C20   A    
C9    H33   S    
C111  H25   S    
C25   C50   A    
C28   H70   S    
C110  H21   S    
C99   C100  A    
C64   C65   A    
C66   C81   S    
C104  C110  A    
C42   O6    A    
C1    O4    A    
C57   C58   A    
H55   N1    S    
H80   O27   S    
C82   C88   A    
C41   C82   S    
C107  N3    S    
C92   C93   A    
Cr2   O19   S    
C93   H15   S    
C34   C37   A    
C19   H32   S    
C23   C25   A    
C69   C70   A    
C72   H44   S    
C17   C21   A    
C5    C15   S    
C10   C11   A    
C3    H29   S    
C30   H84   S    
C49   H50   S    
H72   O24   S    
C16   H38   S    
C4    C5    A    
C22   C45   S    
C84   H8    S    
C47   H24   S    
C56   H34   S    
C26   N1    S    
C69   H67   S    
C50   C61   A    
C64   C74   S    
C22   C23   A    
C100  C101  A    
C27   H64   S    
C89   C96   A    
C122  C123  A    
C117  C118  A    
C37   C78   S    
C40   O2    A    
H85   O28   S    
C97   C101  A    
C120  C124  A    
C11   C12   A    
C46   H30   S    
C113  C115  A    
