data_mof_unit_40298.cif
_audit_creation_date              2012-12-10T16:39:29-0500
_audit_creation_method            fapswitch 2.2
_symmetry_space_group_name_H-M    P1
_symmetry_Int_Tables_number       1
_space_group_crystal_system       triclinic
_cell_length_a                    16.72144
_cell_length_b                    16.721778
_cell_length_c                    16.699539
_cell_angle_alpha                 65.614342
_cell_angle_beta                  65.561082
_cell_angle_gamma                 65.475866
_cell_volume                      3699.98116321

loop_
_atom_site_label
_atom_site_type_symbol
_atom_type_description
_atom_site_fract_x
_atom_site_fract_y
_atom_site_fract_z
_atom_type_partial_charge
C1    C     C_R   0.313446 0.007336 0.426678 -0.113147
C2    C     C_R   0.331379 0.463925 0.932960 0.015679
C3    C     C_R   0.524553 0.403432 0.027458 -0.033778
C4    C     C_R   0.964921 0.482783 0.595127 0.001804
C5    C     C_R   0.038969 0.515847 0.402915 -0.000753
C6    C     C_R   0.067226 0.668946 0.535191 -0.040929
C7    C     C_R   0.934147 0.331193 0.463322 0.020892
C8    C     C_R   0.451680 0.001715 0.447069 0.036190
C9    C     C_R   0.535627 0.041251 0.536400 0.020855
C10   C     C_R   0.990137 0.449616 0.456002 0.026809
C11   C     C_R   0.013445 0.549148 0.542140 0.024282
C12   C     C_R   0.453577 0.456769 0.984183 0.026683
C13   C     C_R   0.553102 0.543252 0.006829 0.027560
C14   C     C_R   0.956557 0.179929 0.440602 0.900636
C15   C     C_R   0.672197 0.057921 0.539457 -0.121844
C16   C     C_R   0.043978 0.820228 0.558988 0.975506
C17   C     C_R   0.179823 0.440732 0.956353 0.921497
C18   C     C_R   0.820259 0.559954 0.042416 0.958149
C19   C     C_R   0.440072 0.958168 0.179965 0.946695
C20   C     C_R   0.559603 0.043150 0.819963 1.006501
C21   C     C_R   0.569189 0.822443 0.023041 0.963158
C22   C     C_R   0.430743 0.177675 0.976766 0.950202
C23   C     C_R   0.024109 0.568914 0.822024 0.956835
C24   C     C_R   0.977822 0.430374 0.177351 1.005079
C25   C     C_R   0.819987 0.038396 0.562320 0.878793
C26   C     C_R   0.005407 0.424462 0.316038 -0.053914
C27   C     C_R   0.177777 0.975654 0.431441 0.904664
C28   C     C_R   0.409511 0.982025 0.402519 -0.048394
C29   C     C_R   0.579743 0.058854 0.581083 -0.052273
C30   C     C_R   0.974969 0.403109 0.412110 -0.081769
C31   C     C_R   0.028457 0.595619 0.586232 -0.089790
C32   C     C_R   0.404923 0.412867 0.971838 -0.051831
C33   C     C_R   0.598491 0.587599 0.022712 -0.054752
C34   C     C_R   0.273465 0.970391 0.393937 -0.233774
C35   C     C_R   0.719337 0.066639 0.588817 -0.255498
C36   C     C_R   0.971922 0.391527 0.273394 -0.144018
C37   C     C_R   0.998914 0.573445 0.682435 -0.021015
C38   C     C_R   0.032484 0.606357 0.725153 -0.203811
C39   C     C_R   0.392057 0.273866 0.970854 -0.172201
C40   C     C_R   0.606671 0.726140 0.030301 -0.190608
C41   C     C_R   0.585064 0.073616 0.718313 -0.122551
C42   C     C_R   0.413549 0.934400 0.280612 -0.107077
C43   C     C_R   0.719739 0.586967 0.067829 -0.178562
C44   C     C_R   0.280938 0.414256 0.929166 -0.211774
C45   C     C_R   0.070534 0.719350 0.585254 -0.109380
C46   C     C_R   0.929550 0.281023 0.413939 -0.208036
C47   C     C_R   0.434037 0.102476 0.693520 0.451037
C48   C     C_R   0.426143 0.316850 0.003040 -0.142586
C49   C     C_R   0.559404 0.915540 0.305864 0.465481
C50   C     C_R   0.101252 0.688448 0.438279 0.446645
C51   C     C_R   0.899287 0.312525 0.559969 0.460960
C52   C     C_R   0.690481 0.439900 0.098298 0.484202
C53   C     C_R   0.311996 0.560639 0.898465 0.448545
C54   C     C_R   0.261253 0.068430 0.482129 0.480152
C55   C     C_R   0.713764 0.048157 0.449024 0.487562
C56   C     C_R   0.482686 0.267285 0.062513 0.482762
C57   C     C_R   0.522355 0.733665 0.932220 0.458897
C58   C     C_R   0.069433 0.475283 0.266395 0.463749
C59   C     C_R   0.574375 0.683864 0.995352 -0.012563
C60   C     C_R   0.934731 0.522885 0.731806 0.464915
C61   C     C_R   0.326979 0.926233 0.326063 0.325668
C62   C     C_R   0.671396 0.085842 0.672771 0.345351
C63   C     C_R   0.926609 0.324957 0.324737 0.308037
C64   C     C_R   0.076143 0.674630 0.673068 0.298209
C65   C     C_R   0.324933 0.325128 0.926080 0.357435
C66   C     C_R   0.674608 0.674077 0.074378 0.328161
C67   C     C_R   0.681637 0.001011 0.422103 -0.037431
C68   C     C_R   0.300790 0.076050 0.538083 -0.035116
C69   C     C_R   0.926165 0.468497 0.690976 -0.110517
C70   C     C_R   0.531995 0.076978 0.666589 -0.035098
C71   C     C_R   0.078311 0.529784 0.307008 -0.100507
C72   C     C_R   0.468508 0.692561 0.923150 -0.109297
C73   C     C_R   0.542213 0.307200 0.062863 -0.025677
C74   C     C_R   0.603497 0.934005 0.350923 -0.080867
C75   C     C_R   0.387293 0.100350 0.639176 -0.093304
C76   C     C_R   0.367110 0.605447 0.901317 -0.091044
C77   C     C_R   0.646171 0.393376 0.082003 -0.051721
C78   C     C_R   0.903333 0.367098 0.604610 -0.086494
C79   C     C_R   0.098893 0.632757 0.393625 -0.091547
C80   C     C_R   0.739238 0.950145 0.358703 0.170846
C81   C     C_R   0.462120 0.943079 0.328989 -0.027518
C82   C     C_R   0.247415 0.120175 0.608293 0.196094
C83   C     C_R   0.879693 0.400913 0.743515 0.118412
C84   C     C_R   0.125569 0.597059 0.254524 0.119463
C85   C     C_R   0.400075 0.744917 0.877161 0.125002
C86   C     C_R   0.619095 0.253126 0.096778 0.139312
C87   C     C_R   0.701026 0.908266 0.330798 0.116181
C88   C     C_R   0.290593 0.138691 0.653165 0.115656
C89   C     C_R   0.357610 0.700801 0.857547 0.155611
C90   C     C_R   0.670407 0.295432 0.107596 0.188509
C91   C     C_R   0.859378 0.358549 0.699910 0.148629
C92   C     C_R   0.670778 0.536957 0.062899 -0.113715
C93   C     C_R   0.144101 0.640569 0.298596 0.149205
C94   C     C_R   0.547923 0.980127 0.419484 -0.008329
C95   C     C_R   0.439889 0.059489 0.566682 -0.006447
C96   C     C_R   0.953740 0.432240 0.552157 -0.002802
C97   C     C_R   0.049518 0.566817 0.445949 -0.006455
C98   C     C_R   0.434215 0.553081 0.949606 -0.003080
C99   C     C_R   0.575347 0.446503 0.038053 -0.040409
C100  C     C_R   0.588574 0.005716 0.460442 -0.041877
C101  C     C_R   0.397256 0.044577 0.518362 -0.035039
C102  C     C_R   0.484720 0.596338 0.960387 0.001957
H1    H     H_    0.259795 0.844374 0.352361 0.376258
H2    H     H_    0.888124 0.203990 0.659973 0.366913
H3    H     H_    0.744356 0.432600 0.186063 0.333562
H4    H     H_    0.202706 0.660580 0.889295 0.368301
H5    H     H_    0.176132 0.141392 0.408776 0.318497
H6    H     H_    0.762312 0.151156 0.401732 0.326495
H7    H     H_    0.409514 0.182691 0.140541 0.311755
H8    H     H_    0.537935 0.818288 0.809550 0.337929
H9    H     H_    0.192615 0.457089 0.182916 0.339001
H10   H     H_    0.811361 0.539065 0.815738 0.337417
H11   H     H_    0.746719 0.151225 0.665781 0.379576
H12   H     H_    0.843955 0.264887 0.334401 0.341661
H13   H     H_    0.155181 0.649820 0.742602 0.373842
H14   H     H_    0.263827 0.334805 0.843965 0.350155
H15   H     H_    0.648767 0.742459 0.155197 0.368771
H16   H     H_    0.337294 0.102859 0.806275 0.366655
H17   H     H_    0.653571 0.903016 0.193961 0.368883
H18   H     H_    0.110532 0.796938 0.337543 0.364594
I1    I     I_    0.209284 0.246068 0.719172 -0.247936
I2    I     I_    0.341799 0.890823 0.856322 -0.266641
I3    I     I_    0.150017 0.652439 0.107925 -0.263184
I4    I     I_    0.861945 0.342431 0.888489 -0.211977
I5    I     I_    0.792726 0.793952 0.277179 -0.227225
I6    I     I_    0.259001 0.695969 0.222161 -0.233369
I7    I     I_    0.744514 0.303386 0.778566 -0.250534
I8    I     I_    0.790030 0.206323 0.153957 -0.080011
I9    I     I_    0.301156 0.778318 0.743180 -0.235482
I10   I     I_    0.100952 0.143965 0.661789 -0.210233
I11   I     I_    0.885629 0.923443 0.318502 -0.185908
I12   I     I_    0.670376 0.107585 0.112357 -0.205390
O1    O     O_R   0.982940 0.138950 0.510160 -0.564314
O2    O     O_R   0.982940 0.510160 0.138950 -0.597839
O3    O     O_R   0.861050 0.017060 0.489840 -0.594155
O4    O     O_R   0.138950 0.982940 0.510160 -0.581786
O5    O     O_R   0.867700 0.025880 0.612340 -0.585504
O6    O     O_R   0.132300 0.974120 0.387660 -0.591271
O7    O     O_R   0.025880 0.612340 0.867700 -0.604650
O8    O     O_R   0.974120 0.387660 0.132300 -0.563124
O9    O     O_R   0.612340 0.867700 0.025880 -0.606801
O10   O     O_R   0.387660 0.132300 0.974120 -0.558642
O11   O     O_R   0.387660 0.974120 0.132300 -0.580372
O12   O     O_R   0.017060 0.861050 0.489840 -0.608251
O13   O     O_R   0.612340 0.025880 0.867700 -0.565154
O14   O     O_R   0.132300 0.387660 0.974120 -0.612007
O15   O     O_R   0.867700 0.612340 0.025880 -0.564782
O16   O     O_R   0.974120 0.132300 0.387660 -0.596725
O17   O     O_R   0.025880 0.867700 0.612340 -0.562673
O18   O     O_3   0.294247 0.882948 0.296741 -0.694988
O19   O     O_3   0.709684 0.110806 0.714662 -0.700748
O20   O     O_3   0.887570 0.298179 0.284908 -0.690853
O21   O     O_3   0.116193 0.705056 0.708133 -0.693420
O22   O     O_3   0.297907 0.285364 0.887149 -0.681410
O23   O     O_R   0.138950 0.510160 0.982940 -0.560590
O24   O     O_3   0.704280 0.708452 0.115851 -0.699420
O25   O     O_3   0.385619 0.134317 0.769132 -0.695979
O26   O     O_3   0.609347 0.869183 0.240850 -0.740602
O27   O     O_3   0.137913 0.760597 0.389122 -0.741874
O28   O     O_3   0.860382 0.242010 0.608835 -0.761577
O29   O     O_3   0.743992 0.391293 0.157572 -0.702896
O30   O     O_3   0.240083 0.609547 0.861232 -0.748113
O31   O     O_3   0.178792 0.132230 0.470304 -0.728628
O32   O     O_3   0.769373 0.100552 0.380592 -0.693926
O33   O     O_3   0.470860 0.186557 0.129954 -0.738546
O34   O     O_R   0.861050 0.489840 0.017060 -0.575571
O35   O     O_3   0.538532 0.814918 0.870005 -0.750809
O36   O     O_3   0.131959 0.457877 0.185527 -0.754928
O37   O     O_3   0.871273 0.540967 0.812156 -0.746252
O38   O     O_R   0.510160 0.982940 0.138950 -0.603996
O39   O     O_R   0.489840 0.017060 0.861050 -0.580884
O40   O     O_R   0.489840 0.861050 0.017060 -0.576740
O41   O     O_R   0.510160 0.138950 0.982940 -0.599759
O42   O     O_R   0.017060 0.489840 0.861050 -0.586559
Zn1   Zn    Zn3+2 0.004880 0.004880 0.583590 1.113889
Zn2   Zn    Zn3+2 0.995120 0.995120 0.416410 1.096984
Zn3   Zn    Zn3+2 0.004880 0.583590 0.004880 1.115645
Zn4   Zn    Zn3+2 0.995120 0.416410 0.995120 1.137596
Zn5   Zn    Zn3+2 0.583590 0.004880 0.004880 1.107196
Zn6   Zn    Zn3+2 0.416410 0.995120 0.995120 1.123242

loop_
_geom_bond_atom_site_label_1
_geom_bond_atom_site_label_2
_ccdc_geom_bond_type
C6    C45   A    
C39   C65   A    
H11   O19   S    
C19   O38   A    
H12   O20   S    
C61   O18   S    
C50   C79   A    
C20   C41   S    
C18   O34   A    
C75   C95   A    
C14   C46   S    
C23   O42   A    
C24   O8    A    
C84   I3    S    
H6    O32   S    
C24   C36   S    
C91   I7    S    
C69   C83   A    
C27   O4    A    
C23   O7    A    
C16   O12   A    
C55   O32   S    
O5    Zn1   S    
C80   C87   A    
H17   O26   S    
C53   O30   S    
C57   C59   A    
C54   C68   A    
O41   Zn5   S    
C76   C98   A    
C14   O16   A    
C51   O28   S    
C89   I9    S    
O14   Zn4   S    
C2    C32   A    
C49   C81   A    
C74   C94   A    
C93   I6    S    
C3    C12   A    
H1    O18   S    
C4    C96   A    
O10   Zn6   S    
C78   C96   A    
C56   O33   S    
C1    C28   A    
O8    Zn4   S    
C16   O17   A    
O34   Zn4   S    
C94   C100  A    
C83   I4    S    
C82   I10   S    
C36   C63   A    
C58   O36   S    
C8    C101  A    
O42   Zn4   S    
C12   C98   A    
C19   C42   S    
C9    C29   A    
C76   C89   A    
O40   Zn6   S    
C6    C31   A    
O4    Zn1   S    
C11   C31   A    
O2    Zn3   S    
C80   I11   S    
C40   C66   A    
C12   C32   A    
C32   C48   A    
O12   Zn2   S    
C44   C65   A    
C42   C81   A    
C41   C62   A    
H2    O28   S    
C3    C73   A    
C15   C35   A    
C4    C69   A    
C1    C34   A    
C15   C29   A    
C38   C64   A    
C27   C34   S    
C73   C86   A    
C77   C90   A    
C27   O6    A    
C62   O19   S    
C7    C46   A    
C50   O27   S    
C8    C94   A    
C68   C101  A    
C18   O15   A    
C86   C90   A    
C33   C92   A    
C2    C44   A    
C85   C89   A    
C98   C102  A    
C64   O21   S    
C34   C61   A    
C31   C37   A    
C35   C62   A    
O17   Zn1   S    
C15   C55   A    
C13   C99   A    
C54   O31   S    
C25   O5    A    
C1    C54   A    
C47   C70   A    
C13   C33   A    
C37   C38   A    
O7    Zn3   S    
H18   O27   S    
C26   C58   A    
H8    O35   S    
C10   C30   A    
H10   O37   S    
C10   C96   A    
C22   O10   A    
H15   O24   S    
C85   I2    S    
C49   C74   A    
O16   Zn2   S    
O11   Zn6   S    
C6    C50   A    
C4    C11   A    
O1    Zn1   S    
C42   C61   A    
H7    O33   S    
C67   C100  A    
C25   C35   S    
C26   C36   A    
H5    O31   S    
C26   C30   A    
C9    C100  A    
O6    Zn2   S    
C74   C87   A    
H3    O29   S    
O39   Zn6   S    
C52   C92   A    
C53   C76   A    
C60   O37   S    
C52   C77   A    
C17   O23   A    
C87   I5    S    
C22   O41   A    
C71   C84   A    
C47   O25   S    
C24   O2    A    
C48   C56   A    
C9    C95   A    
C49   O26   S    
C19   O11   A    
C56   C73   A    
C28   C81   A    
O9    Zn5   S    
H14   O22   S    
O13   Zn5   S    
C79   C97   A    
C67   C80   A    
C5    C97   A    
C88   I1    S    
C47   C75   A    
C2    C53   A    
C7    C30   A    
C16   C45   S    
C55   C67   A    
C79   C93   A    
C57   O35   S    
C14   O1    A    
C78   C91   A    
C21   O40   A    
C83   C91   A    
C52   O29   S    
C45   C64   A    
C43   C92   A    
C23   C38   S    
O38   Zn5   S    
C11   C97   A    
C68   C82   A    
O15   Zn3   S    
C17   O14   A    
C17   C44   S    
C21   O9    A    
C5    C10   A    
C5    C71   A    
C18   C43   S    
O3    Zn2   S    
C66   O24   S    
C86   I12   S    
C72   C85   A    
C46   C63   A    
C72   C102  A    
C60   C69   A    
C43   C66   A    
C82   C88   A    
C22   C39   S    
C77   C99   A    
C29   C70   A    
C84   C93   A    
H4    O30   S    
C57   C72   A    
C25   O3    A    
C63   O20   S    
C51   C78   A    
C37   C60   A    
C58   C71   A    
C7    C51   A    
C3    C99   A    
C75   C88   A    
C20   O39   A    
C8    C28   A    
C33   C59   A    
O23   Zn3   S    
C40   C59   A    
C90   I8    S    
C20   O13   A    
C41   C70   A    
H16   O25   S    
H9    O36   S    
C65   O22   S    
C13   C102  A    
H13   O21   S    
C95   C101  A    
C39   C48   A    
C21   C40   S    
