data_mof_unit_8222.cif
_audit_creation_date              2012-10-26T19:07:31-0400
_audit_creation_method            fapswitch 2.2
_symmetry_space_group_name_H-M    P1
_symmetry_Int_Tables_number       1
_space_group_crystal_system       triclinic
_cell_length_a                    15.02434
_cell_length_b                    13.708849
_cell_length_c                    10.702272
_cell_angle_alpha                 90.00008
_cell_angle_beta                  91.562005
_cell_angle_gamma                 89.999981
_cell_volume                      2203.48942891

loop_
_atom_site_label
_atom_site_type_symbol
_atom_type_description
_atom_site_fract_x
_atom_site_fract_y
_atom_site_fract_z
_atom_type_partial_charge
C1    C     C_R   0.328959 0.499990 0.498767 0.539039
C2    C     C_R   0.947441 0.507072 0.270770 -0.009171
C3    C     C_R   0.449362 0.793374 0.583298 0.049800
C4    C     C_R   0.550619 0.206613 0.416686 0.050584
C5    C     C_R   0.550638 0.793374 0.416702 0.049800
C6    C     C_R   0.449381 0.206613 0.583314 0.050585
C7    C     C_R   0.551751 0.896405 0.414610 -0.013497
C8    C     C_R   0.448260 0.103575 0.585398 -0.013513
C9    C     C_R   0.448249 0.896406 0.585390 -0.013497
C10   C     C_R   0.551740 0.103575 0.414602 -0.013513
C11   C     C_R   0.500000 0.948185 0.500000 0.053233
C12   C     C_R   0.671041 0.499990 0.501233 0.539040
C13   C     C_R   0.500000 0.051795 0.500000 0.053337
C14   C     C_R   0.603180 0.948688 0.329550 -0.137120
C15   C     C_R   0.396831 0.051285 0.670458 -0.137201
C16   C     C_R   0.396820 0.948689 0.670450 -0.137120
C17   C     C_R   0.603169 0.051285 0.329542 -0.137201
C18   C     C_R   0.498217 0.500029 0.259487 0.555002
C19   C     C_R   0.501783 0.500029 0.740513 0.555002
C20   C     C_3   0.457819 0.578836 0.038027 0.109537
C21   C     C_3   0.542239 0.421655 0.962063 0.104911
C22   C     C_3   0.542181 0.578836 0.961973 0.109537
C23   C     C_R   0.953139 0.501857 0.500355 0.009615
C24   C     C_3   0.457761 0.421655 0.037937 0.104911
C25   C     C_3   0.414343 0.500287 0.952267 -0.167719
C26   C     C_3   0.585657 0.500286 0.047733 -0.167718
C27   C     C_3   0.500835 0.500193 0.876314 0.046674
C28   C     C_3   0.499164 0.500193 0.123686 0.046674
C29   C     C_R   0.809995 0.503159 0.389744 -0.158119
C30   C     C_R   0.190005 0.503159 0.610257 -0.158119
C31   C     C_R   0.767375 0.500067 0.503232 0.010748
C32   C     C_R   0.232625 0.500067 0.496769 0.010748
C33   C     C_R   0.816016 0.498105 0.616916 0.083452
C34   C     C_R   0.046861 0.501857 0.499646 0.009615
C35   C     C_R   0.183984 0.498106 0.383084 0.083453
C36   C     C_R   0.909422 0.499981 0.615829 0.047778
C37   C     C_R   0.090578 0.499982 0.384172 0.047778
C38   C     C_3   0.101247 0.520117 0.854320 -0.254871
C39   C     C_3   0.132734 0.626070 0.870939 -0.298330
C40   C     C_3   0.173115 0.643382 0.001273 -0.456994
C41   C     C_3   0.898753 0.520118 0.145681 -0.254873
C42   C     C_3   0.867267 0.626072 0.129062 -0.298336
C43   C     C_3   0.826887 0.643386 0.998729 -0.457005
C44   C     C_R   0.903089 0.504131 0.385831 0.018602
C45   C     C_R   0.096911 0.504130 0.614169 0.018602
C46   C     C_R   0.959610 0.501666 0.728242 -0.109256
C47   C     C_R   0.040390 0.501667 0.271758 -0.109256
C48   C     C_R   0.052559 0.507072 0.729230 -0.009172
Cu1   Cu    Cu3+1 0.500000 0.597420 0.500000 0.941933
Cu2   Cu    Cu3+1 0.500000 0.402580 0.500000 0.947765
H1    H     H_    0.345176 0.499932 0.913114 0.090626
H2    H     H_    0.409764 0.247401 0.648220 0.129276
H3    H     H_    0.643419 0.910253 0.263011 0.106827
H4    H     H_    0.356602 0.089716 0.737009 0.107700
H5    H     H_    0.356581 0.910254 0.736989 0.106827
H6    H     H_    0.643397 0.089715 0.262991 0.107701
H7    H     H_    0.388786 0.703211 0.001114 0.233920
H8    H     H_    0.361280 0.647400 0.134019 0.217106
H9    H     H_    0.602347 0.292034 0.999381 0.237213
H10   H     H_    0.645946 0.354022 0.881154 0.219550
H11   H     H_    0.611214 0.703211 0.998886 0.233921
H12   H     H_    0.654825 0.499931 0.086886 0.090627
H13   H     H_    0.638721 0.647400 0.865982 0.217106
H14   H     H_    0.397651 0.292035 0.000618 0.237212
H15   H     H_    0.354054 0.354023 0.118847 0.219550
H16   H     H_    0.731326 0.431823 0.733154 0.236925
H17   H     H_    0.729318 0.555216 0.738112 0.228374
H18   H     H_    0.268674 0.431826 0.266845 0.236924
H19   H     H_    0.270681 0.555219 0.261890 0.228375
H20   H     H_    0.120629 0.639348 0.072014 0.161939
H21   H     H_    0.225327 0.588281 0.023112 0.164602
H22   H     H_    0.203569 0.717130 0.005930 0.141859
H23   H     H_    0.768834 0.503967 0.305293 0.099111
H24   H     H_    0.183384 0.644147 0.800962 0.162244
H25   H     H_    0.075376 0.676479 0.856388 0.167310
H26   H     H_    0.056633 0.501998 0.931770 0.127835
H27   H     H_    0.157745 0.468232 0.864117 0.136410
H28   H     H_    0.879373 0.639350 0.927990 0.161940
H29   H     H_    0.774676 0.588288 0.976889 0.164604
H30   H     H_    0.796436 0.717133 0.994070 0.141860
H31   H     H_    0.816616 0.644148 0.199038 0.162247
H32   H     H_    0.924623 0.676480 0.143616 0.167313
H33   H     H_    0.943367 0.501999 0.068231 0.127836
H34   H     H_    0.231166 0.503966 0.694707 0.099111
H35   H     H_    0.842255 0.468233 0.135883 0.136411
H36   H     H_    0.926305 0.500999 0.816595 0.143209
H37   H     H_    0.073695 0.501000 0.183406 0.143209
H38   H     H_    0.409727 0.752581 0.648184 0.128802
H39   H     H_    0.590236 0.247400 0.351779 0.129276
H40   H     H_    0.590273 0.752581 0.351816 0.128802
N1    N     N_R   0.500000 0.743810 0.500000 -0.239005
N2    N     N_R   0.500000 0.256190 0.500000 -0.238746
N3    N     N_3   0.415077 0.667782 0.080307 -0.596911
N4    N     N_3   0.585883 0.333221 0.919903 -0.600285
N5    N     N_3   0.584923 0.667782 0.919693 -0.596912
N6    N     N_3   0.414117 0.333221 0.080096 -0.600286
N7    N     N_3   0.770926 0.494413 0.733293 -0.672576
N8    N     N_3   0.229074 0.494416 0.266707 -0.672577
O1    O     O_R   0.370260 0.582280 0.500030 -0.507182
O2    O     O_R   0.629740 0.417720 0.499970 -0.505343
O3    O     O_R   0.629740 0.582280 0.499970 -0.507182
O4    O     O_R   0.370260 0.417720 0.500030 -0.505343
O5    O     O_R   0.499980 0.582260 0.316850 -0.495815
O6    O     O_R   0.500020 0.417740 0.683150 -0.491932
O7    O     O_R   0.500020 0.582260 0.683150 -0.495815
O8    O     O_R   0.499980 0.417740 0.316850 -0.491932

loop_
_geom_bond_atom_site_label_1
_geom_bond_atom_site_label_2
_ccdc_geom_bond_type
C20   N3    S    
Cu2   O6    S    
C8    C13   A    
C40   H21   S    
C34   C37   A    
C22   N5    S    
C30   C45   A    
C42   H32   S    
C21   C26   S    
C1    O1    A    
C25   H1    S    
C38   H26   S    
C43   H28   S    
C7    C11   A    
C40   H20   S    
H16   N7    S    
C35   C37   A    
H8    N3    S    
C24   N6    S    
Cu1   O3    S    
C38   C39   S    
C29   H23   S    
C20   C25   S    
C2    C41   S    
C43   H29   S    
C15   C16   A    
C41   H33   S    
H13   N5    S    
C33   C36   A    
C3    N1    A    
C41   C42   S    
C39   H24   S    
H15   N6    S    
C2    C44   A    
C31   C33   A    
C36   C46   A    
H9    N4    S    
C39   H25   S    
C37   C47   A    
C35   N8    S    
C19   C27   S    
C38   C48   S    
C5    H40   S    
C4    N2    A    
H19   N8    S    
C21   C27   S    
H7    N3    S    
C14   C17   A    
C42   H31   S    
Cu1   N1    S    
C7    C14   A    
C46   C48   A    
C15   H4    S    
C18   C28   S    
C24   C25   S    
H14   N6    S    
C39   C40   S    
C5    C7    A    
C6    C8    A    
C20   C28   S    
C43   H30   S    
C1    C32   S    
C23   C44   A    
C47   H37   S    
C18   O8    A    
C3    C9    A    
Cu1   O1    S    
C19   O6    A    
C23   C34   A    
C34   C45   A    
C9    C11   A    
C17   H6    S    
C5    N1    A    
C23   C36   A    
C19   O7    A    
Cu2   N2    S    
C20   C22   S    
Cu2   O4    S    
C8    C15   A    
C22   C27   S    
C12   C31   S    
C22   C26   S    
C42   C43   S    
C4    C10   A    
C4    H39   S    
C45   C48   A    
C40   H22   S    
C3    H38   S    
C26   C28   S    
C9    C16   A    
C32   C35   A    
C24   C28   S    
C10   C13   A    
Cu1   O5    S    
Cu1   O7    S    
H11   N5    S    
C38   H27   S    
C2    C47   A    
C25   C27   S    
C41   H35   S    
Cu2   O2    S    
C26   H12   S    
C16   H5    S    
C12   O3    A    
C29   C44   A    
C30   C32   A    
C11   C13   A    
C6    N2    A    
C33   N7    S    
C18   O5    A    
C30   H34   S    
H18   N8    S    
C12   O2    A    
H17   N7    S    
C14   H3    S    
C29   C31   A    
Cu1   Cu2   S    
C21   N4    S    
C21   C24   S    
Cu2   O8    S    
C10   C17   A    
C6    H2    S    
C1    O4    A    
C46   H36   S    
H10   N4    S    
