data_mof_unit_16569.cif
_audit_creation_date              2012-12-11T14:08:11-0500
_audit_creation_method            fapswitch 2.2
_symmetry_space_group_name_H-M    P1
_symmetry_Int_Tables_number       1
_space_group_crystal_system       triclinic
_cell_length_a                    10.929821
_cell_length_b                    10.952634
_cell_length_c                    18.823513
_cell_angle_alpha                 91.283609
_cell_angle_beta                  90.392063
_cell_angle_gamma                 60.138555
_cell_volume                      1953.67908996

loop_
_atom_site_label
_atom_site_type_symbol
_atom_type_description
_atom_site_fract_x
_atom_site_fract_y
_atom_site_fract_z
_atom_type_partial_charge
C1    C     C_R   0.296466 0.621362 0.614150 0.556291
C2    C     C_3   0.666899 0.550290 0.799897 -0.254675
C3    C     C_3   0.698323 0.670993 0.812881 0.051801
C4    C     C_3   0.667993 0.646398 0.677282 0.063072
C5    C     C_3   0.813910 0.631685 0.691283 -0.245648
C6    C     C_3   0.653278 0.532881 0.719468 -0.217692
C7    C     C_2   0.653252 0.211111 0.675333 -0.078511
C8    C     C_2   0.686474 0.132916 0.821506 0.248401
C9    C     C_2   0.795107 0.121066 0.781757 0.238355
C10   C     C_2   0.778933 0.125395 0.703121 -0.138267
C11   C     C_2   0.262432 0.637329 0.689450 -0.117170
C12   C     C_R   0.653056 0.621899 0.601897 0.537098
C13   C     C_2   0.205988 0.655067 0.843862 -0.108026
C14   C     C_2   0.184689 0.573329 0.797391 -0.190457
C15   C     C_2   0.228332 0.552032 0.722617 -0.185277
C16   C     C_2   0.672590 0.682549 0.332540 -0.103121
C17   C     C_2   0.701954 0.709633 0.179000 -0.109034
C18   C     C_2   0.810811 0.639491 0.223157 -0.157666
C19   C     C_2   0.793254 0.608036 0.296213 -0.153185
C20   C     C_2   0.674847 0.128240 0.336382 -0.110209
C21   C     C_2   0.678290 0.090796 0.184654 -0.046270
C22   C     C_2   0.613680 0.045613 0.227835 -0.164008
C23   C     C_R   0.627843 0.230542 0.601379 0.529591
C24   C     C_2   0.592449 0.087279 0.302594 -0.153281
C25   C     C_2   0.122182 0.680722 0.345197 -0.143886
C26   C     C_2   0.105481 0.700860 0.192414 -0.076419
C27   C     C_2   0.055085 0.816402 0.236540 0.233771
C28   C     C_2   0.074819 0.802882 0.313387 -0.144233
C29   C     C_R   0.703281 0.097231 0.896576 0.580784
C30   C     C_R   0.722682 0.686802 0.888682 0.555683
C31   C     C_R   0.121041 0.704730 0.908464 0.561078
C32   C     C_R   0.700626 0.045657 0.111556 0.565196
C33   C     C_R   0.731669 0.718355 0.104971 0.555382
C34   C     C_R   0.214782 0.651187 0.405000 0.567801
C35   C     C_R   0.079020 0.718946 0.116954 0.560095
C36   C     C_R   0.645188 0.626087 0.395910 0.560725
C37   C     C_R   0.621057 0.221459 0.397848 0.554753
C38   C     C_3   0.573452 0.809028 0.783599 -0.238861
C39   C     C_3   0.552334 0.793308 0.704140 -0.241059
C40   C     C_3   0.834566 0.637858 0.771440 -0.223451
Cr1   Cr    Cr6+3 0.393010 0.398050 0.501480 1.014289
Cr2   Cr    Cr6+3 0.398820 0.707980 0.501630 1.000691
Cr3   Cr    Cr6+3 0.708140 0.393940 0.496850 1.002650
Cr4   Cr    Cr6+3 0.937950 0.938450 0.008940 1.041325
Cr5   Cr    Cr6+3 0.626180 0.937030 0.994750 0.992689
Cr6   Cr    Cr6+3 0.937790 0.625760 0.001410 0.989932
H1    H     H_    0.597577 0.895248 0.791100 0.199389
H2    H     H_    0.735515 0.425862 0.701925 0.132649
H3    H     H_    0.921749 0.533362 0.787465 0.117670
H4    H     H_    0.900107 0.530039 0.669194 0.134031
H5    H     H_    0.568088 0.289546 0.708044 0.116660
H6    H     H_    0.219896 0.470441 0.692846 0.146012
H7    H     H_    0.269357 0.702354 0.830653 0.097903
H8    H     H_    0.474394 0.837301 0.812912 0.103216
H9    H     H_    0.264773 0.723319 0.717464 0.089481
H10   H     H_    0.918156 0.589863 0.202858 0.137227
H11   H     H_    0.880458 0.514088 0.318504 0.145661
H12   H     H_    0.592934 0.756561 0.196152 0.095129
H13   H     H_    0.587790 0.780962 0.312752 0.095869
H14   H     H_    0.564543 0.987701 0.206726 0.121062
H15   H     H_    0.497423 0.099206 0.327280 0.150886
H16   H     H_    0.719058 0.157980 0.203248 0.127739
H17   H     H_    0.445966 0.805447 0.696040 0.128884
H18   H     H_    0.070602 0.891177 0.342851 0.139320
H19   H     H_    0.114228 0.593957 0.321229 0.092977
H20   H     H_    0.556773 0.877712 0.674343 0.139222
H21   H     H_    0.865604 0.718600 0.783961 0.137596
H22   H     H_    0.821380 0.717984 0.665189 0.125247
H23   H     H_    0.567156 0.574320 0.827276 0.108210
H24   H     H_    0.549679 0.540710 0.708357 0.097166
O1    O     O_R   0.507110 0.256280 0.580300 -0.519141
O2    O     O_R   0.524640 0.695370 0.425100 -0.497680
O3    O     O_R   0.735890 0.504390 0.415980 -0.512795
O4    O     O_R   0.690560 0.277820 0.422350 -0.498679
O5    O     O_3   0.499990 0.499990 0.499980 -0.262948
O6    O     O_R   0.089190 0.825870 0.932320 -0.488904
O7    O     O_R   0.819070 0.053960 0.931440 -0.460752
O8    O     O_R   0.607070 0.076440 0.916460 -0.525619
O9    O     O_R   0.647110 0.806550 0.917690 -0.513578
O10   O     O_R   0.837080 0.593860 0.915300 -0.521974
O11   O     O_R   0.064770 0.636080 0.932550 -0.508844
O12   O     O_R   0.280830 0.527190 0.577940 -0.499372
O13   O     O_R   0.068250 0.829200 0.092940 -0.478620
O14   O     O_R   0.799650 0.057040 0.080330 -0.489368
O15   O     O_R   0.586130 0.079760 0.077080 -0.525964
O16   O     O_R   0.627700 0.809630 0.066580 -0.511350
O17   O     O_R   0.816140 0.597180 0.075920 -0.503551
O18   O     O_R   0.045360 0.639170 0.081440 -0.535232
O19   O     O_3   0.833980 0.833750 0.001700 -0.293685
O20   O     O_R   0.261360 0.738990 0.584270 -0.524813
O21   O     O_R   0.532590 0.694780 0.574370 -0.526030
O22   O     O_R   0.744470 0.503750 0.577000 -0.529641
O23   O     O_R   0.698520 0.277230 0.571620 -0.514149
O24   O     O_R   0.498530 0.256920 0.419280 -0.513641
O25   O     O_R   0.272880 0.527780 0.428680 -0.491800
O26   O     O_R   0.252780 0.739630 0.423250 -0.515644
O27   O     O_3   0.922955 0.088362 0.814070 -0.562034
C41   C     C_3   0.995558 0.145445 0.777843 0.005794
H25   H     H_    0.041203 0.185551 0.818401 0.145177
H26   H     H_    0.925315 0.238812 0.745995 0.110560
C42   C     C_3   0.116656 0.031553 0.732736 -0.262576
H27   H     H_    0.211705 0.974078 0.766399 0.134358
H28   H     H_    0.087876 0.953738 0.712087 0.186145
C43   C     C_3   0.151381 0.094663 0.669684 -0.470544
H29   H     H_    0.060889 0.140876 0.632417 0.157334
H30   H     H_    0.244838 0.011146 0.640753 0.160957
H31   H     H_    0.174214 0.178376 0.687786 0.134920
H32   H     H_    0.867747 0.060313 0.668485 0.121224
O28   O     O_3   0.574290 0.128093 0.786767 -0.623972
C44   C     C_3   0.438790 0.231508 0.812505 0.017799
H33   H     H_    0.381607 0.298812 0.767667 0.139999
H34   H     H_    0.442246 0.302037 0.855210 0.129638
C45   C     C_3   0.353557 0.161490 0.835856 -0.249846
H35   H     H_    0.315628 0.129494 0.788160 0.132356
H36   H     H_    0.419853 0.064029 0.865119 0.207628
C46   C     C_3   0.228524 0.257135 0.883913 -0.453203
H37   H     H_    0.257871 0.313439 0.924290 0.167518
H38   H     H_    0.192806 0.192646 0.912409 0.133523
H39   H     H_    0.139010 0.333632 0.851838 0.129380
H40   H     H_    0.122421 0.527337 0.812965 0.139490
H41   H     H_    0.774928 0.107741 0.314253 0.124516
O29   O     O_3   0.984384 0.951577 0.209346 -0.556184
C47   C     C_3   0.060513 0.023107 0.222914 0.010991
H42   H     H_    0.176960 0.951087 0.218555 0.132186
H43   H     H_    0.033759 0.073011 0.276859 0.118152
C48   C     C_3   0.017554 0.139964 0.169024 -0.232411
H44   H     H_    0.043961 0.092973 0.114478 0.189458
H45   H     H_    0.901853 0.212945 0.172240 0.171428
C49   C     C_3   0.092840 0.223963 0.182896 -0.487913
H46   H     H_    0.065539 0.274594 0.236642 0.142510
H47   H     H_    0.059338 0.307629 0.142902 0.166065
H48   H     H_    0.208972 0.153988 0.178786 0.147917
H49   H     H_    0.159725 0.593947 0.211188 0.039059
H50   H     H_    0.752870 0.450287 0.821533 0.126120

loop_
_geom_bond_atom_site_label_1
_geom_bond_atom_site_label_2
_ccdc_geom_bond_type
Cr3   O3    S    
C7    C10   D    
C37   O4    A    
C24   H15   S    
C12   O21   A    
C10   H32   S    
C1    C11   S    
Cr4   O13   S    
C43   H30   S    
O27   C41   S    
Cr6   O17   S    
C47   H42   S    
Cr6   O19   S    
C19   H11   S    
C25   C28   D    
Cr2   O5    S    
C42   H27   S    
C6    H2    S    
C48   H44   S    
Cr2   O26   S    
C8    C29   S    
Cr4   O7    S    
C34   O26   A    
C45   H35   S    
C22   H14   S    
C38   C39   S    
C47   H43   S    
Cr1   O12   S    
C40   H3    S    
C46   H37   S    
Cr2   O21   S    
Cr4   O6    S    
C44   H33   S    
C11   C15   D    
C29   O8    A    
C20   C24   D    
C3    C38   S    
C8    C9    D    
C40   H21   S    
C48   H45   S    
Cr5   O8    S    
C13   C14   D    
C4    C12   S    
C2    H23   S    
Cr5   O19   S    
C9    C10   S    
Cr6   O18   S    
C18   H10   S    
C25   C34   S    
Cr1   O1    S    
C45   C46   S    
C30   O10   A    
Cr3   O4    S    
C42   H28   S    
C21   C22   D    
C2    C6    S    
C17   C33   S    
C5    H22   S    
C43   H29   S    
C27   O29   S    
C12   O22   A    
C13   H7    S    
Cr3   O5    S    
C32   O14   A    
C21   C32   S    
C23   O1    A    
C25   H19   S    
C34   O25   A    
C4    C6    S    
C35   O13   A    
C18   C19   S    
C47   C48   S    
C48   C49   S    
C1    O12   A    
C23   O23   A    
Cr2   O20   S    
C16   H13   S    
C3    C30   S    
Cr5   O15   S    
C33   O16   A    
Cr1   O5    S    
Cr6   O11   S    
C35   O18   A    
Cr1   O24   S    
C38   H8    S    
C4    C39   S    
Cr2   O2    S    
C17   C18   D    
C21   H16   S    
Cr5   O9    S    
C2    H50   S    
C15   H6    S    
C44   C45   S    
C38   H1    S    
C30   O9    A    
C28   H18   S    
C3    C40   S    
C42   C43   S    
C41   H26   S    
C26   C27   D    
C39   H20   S    
C22   C24   S    
C5    H4    S    
C1    O20   A    
C11   H9    S    
C20   H41   S    
C49   H46   S    
C6    H24   S    
C9    O27   S    
C13   C31   S    
C4    C5    S    
Cr4   O14   S    
C41   C42   S    
C39   H17   S    
C17   H12   S    
C14   H40   S    
Cr3   O22   S    
C31   O11   A    
C46   H39   S    
C49   H48   S    
C2    C3    S    
C33   O17   A    
C7    H5    S    
C26   H49   S    
C8    O28   S    
C16   C36   S    
Cr6   O10   S    
C20   C37   S    
C31   O6    A    
Cr1   O25   S    
C16   C19   D    
C7    C23   S    
C32   O15   A    
Cr3   O23   S    
C46   H38   S    
C37   O24   A    
Cr5   O16   S    
C44   H34   S    
C36   O3    A    
C26   C35   S    
C29   O7    A    
C41   H25   S    
C5    C40   S    
C27   C28   S    
C14   C15   S    
C45   H36   S    
O29   C47   S    
O28   C44   S    
C43   H31   S    
Cr4   O19   S    
C36   O2    A    
C49   H47   S    
