data_mof_unit_53329.cif
_audit_creation_date              2012-12-10T17:31:19-0500
_audit_creation_method            fapswitch 2.2
_symmetry_space_group_name_H-M    P1
_symmetry_Int_Tables_number       1
_space_group_crystal_system       triclinic
_cell_length_a                    20.034738
_cell_length_b                    18.616763
_cell_length_c                    12.484544
_cell_angle_alpha                 89.374947
_cell_angle_beta                  129.188239
_cell_angle_gamma                 90.84463
_cell_volume                      3608.74085799

loop_
_atom_site_label
_atom_site_type_symbol
_atom_type_description
_atom_site_fract_x
_atom_site_fract_y
_atom_site_fract_z
_atom_type_partial_charge
C1    C     C_R   0.610338 0.898468 0.652396 0.799092
C2    C     C_R   0.610127 0.101764 0.652357 0.845423
C3    C     C_R   0.110465 0.398652 0.653746 0.811923
C4    C     C_R   0.115616 0.597904 0.659228 0.838084
C5    C     C_R   0.278853 0.734688 0.099694 -0.043394
C6    C     C_R   0.260790 0.244556 0.076045 -0.015663
C7    C     C_R   0.754943 0.259110 0.064438 -0.064226
C8    C     C_R   0.768638 0.743275 0.072891 -0.001015
C9    C     C_R   0.691387 0.242456 0.077643 -0.047953
C10   C     C_R   0.692582 0.739696 0.061298 -0.063973
C11   C     C_R   0.201477 0.744844 0.075760 -0.101528
C12   C     C_R   0.187893 0.247395 0.069541 -0.070429
C13   C     C_R   0.617723 0.204738 0.971530 -0.077065
C14   C     C_R   0.616081 0.770062 0.947290 -0.071883
C15   C     C_R   0.123850 0.737701 0.940764 -0.033777
C16   C     C_R   0.115915 0.285583 0.966453 -0.057156
C17   C     C_R   0.607765 0.183217 0.857128 -0.140508
C18   C     C_R   0.611415 0.802117 0.844107 -0.155026
C19   C     C_R   0.122294 0.708628 0.837336 -0.114799
C20   C     C_R   0.109929 0.314669 0.859730 -0.183590
C21   C     C_R   0.350167 0.780417 0.199858 0.270578
C22   C     C_R   0.332023 0.205412 0.187452 0.305912
C23   C     C_R   0.806445 0.321164 0.131295 0.267055
C24   C     C_R   0.843683 0.708642 0.190093 0.345848
C25   C     C_R   0.277658 0.802443 0.298525 0.221652
C26   C     C_R   0.235274 0.143856 0.213064 0.254393
C27   C     C_R   0.743790 0.338111 0.243211 0.181169
C28   C     C_R   0.773030 0.680450 0.282841 0.275112
C29   C     C_R   0.671816 0.158948 0.744649 -0.234474
C30   C     C_R   0.675333 0.842955 0.742471 -0.249790
C31   C     C_R   0.194428 0.638283 0.772201 -0.170622
C32   C     C_R   0.172443 0.341593 0.746482 -0.217221
C33   C     C_R   0.676016 0.014357 0.278549 0.141116
C34   C     C_R   0.176593 0.513670 0.279508 0.122916
C35   C     C_R   0.349483 0.008133 0.628150 0.157625
C36   C     C_R   0.848861 0.500527 0.628210 0.001210
C37   C     C_R   0.316406 0.016646 0.696750 -0.188267
C38   C     C_R   0.815830 0.510594 0.696327 -0.178146
C39   C     C_R   0.384517 0.096694 0.340441 0.973705
C40   C     C_R   0.394640 0.893522 0.355891 0.904039
C41   C     C_R   0.891375 0.602199 0.349742 0.951559
C42   C     C_R   0.882600 0.403875 0.338367 0.887246
C43   C     C_R   0.370443 0.019390 0.841393 0.418734
C44   C     C_R   0.870232 0.525564 0.838126 0.443792
C45   C     C_R   0.460884 0.005650 0.920066 -0.104840
C46   C     C_R   0.961313 0.514887 0.919134 -0.061016
C47   C     C_R   0.490600 0.999957 0.840978 0.190126
C48   C     C_R   0.990861 0.505405 0.840608 0.214499
C49   C     C_R   0.524578 0.001693 0.070653 -0.053218
C50   C     C_R   0.024888 0.512576 0.070226 -0.054126
C51   C     C_R   0.613973 0.002394 0.134788 0.032458
C52   C     C_R   0.114364 0.510127 0.134440 0.032048
C53   C     C_R   0.638743 0.991856 0.053060 0.125660
C54   C     C_R   0.139201 0.500330 0.052396 0.136163
C55   C     C_R   0.578592 0.995098 0.911290 -0.185468
C56   C     C_R   0.078721 0.501428 0.910652 -0.174012
C57   C     C_R   0.504732 0.994371 0.161603 0.152651
C58   C     C_R   0.004419 0.507350 0.161072 0.142574
C59   C     C_R   0.651346 0.009234 0.361496 0.347845
C60   C     C_R   0.151719 0.499973 0.360335 0.309839
C61   C     C_R   0.692744 0.276327 0.178286 0.342087
C62   C     C_R   0.695824 0.708673 0.168324 0.310101
C63   C     C_R   0.204721 0.763304 0.187179 0.321912
C64   C     C_R   0.183002 0.203837 0.155284 0.369887
C65   C     C_R   0.342113 0.824817 0.286114 -0.344237
C66   C     C_R   0.316029 0.147792 0.243512 -0.295206
C67   C     C_R   0.811243 0.352736 0.238657 -0.276909
C68   C     C_R   0.832981 0.661880 0.267253 -0.289810
C69   C     C_R   0.730657 0.185021 0.729279 0.150561
C70   C     C_R   0.735091 0.827116 0.724487 0.125972
C71   C     C_R   0.272984 0.614011 0.811711 0.076542
C72   C     C_R   0.224008 0.312263 0.720204 0.130463
C73   C     C_R   0.341190 0.602585 0.952136 0.358327
C74   C     C_R   0.302660 0.281794 0.828048 0.446891
C75   C     C_R   0.812816 0.203985 0.847576 0.420393
C76   C     C_R   0.816208 0.803747 0.835697 0.404198
C77   C     C_R   0.341308 0.638695 0.050058 -0.127008
C78   C     C_R   0.319414 0.265517 0.952445 -0.255202
C79   C     C_R   0.825413 0.220288 0.968364 -0.155526
C80   C     C_R   0.829850 0.777486 0.953751 -0.125955
C81   C     C_R   0.754045 0.221095 0.965705 0.057193
C82   C     C_R   0.762876 0.777346 0.963268 0.078741
C83   C     C_R   0.275281 0.687175 0.006839 0.083066
C84   C     C_R   0.256145 0.276543 0.967301 0.078382
C85   C     C_R   0.677544 0.185672 0.856178 0.049261
C86   C     C_R   0.683664 0.809620 0.852028 0.034956
C87   C     C_R   0.196595 0.678377 0.870380 0.009965
C88   C     C_R   0.180014 0.313632 0.859552 0.074987
Cu1   Cu    Cu3+1 0.526340 0.000000 0.421010 1.111438
Cu2   Cu    Cu3+1 0.026340 0.500000 0.421010 1.099475
Cu3   Cu    Cu3+1 0.473640 0.000000 0.578990 1.027685
Cu4   Cu    Cu3+1 0.973640 0.500000 0.578990 0.999416
H1    H     H_    0.441023 0.980741 0.122896 0.205116
H2    H     H_    0.938862 0.504548 0.119587 0.242362
H3    H     H_    0.307952 0.012061 0.518056 0.234964
H4    H     H_    0.806019 0.500673 0.517542 0.242026
H5    H     H_    0.247959 0.025824 0.634890 0.231517
H6    H     H_    0.746787 0.517126 0.633609 0.232509
H7    H     H_    0.604055 0.993633 0.858557 0.221518
H8    H     H_    0.103344 0.495666 0.857230 0.216046
H9    H     H_    0.561543 0.201384 0.964384 0.234956
H10   H     H_    0.557603 0.770133 0.934245 0.196089
H11   H     H_    0.065351 0.758903 0.913119 0.251894
H12   H     H_    0.059763 0.286131 0.959218 0.257339
H13   H     H_    0.390081 0.626754 0.158276 0.225543
H14   H     H_    0.378446 0.238323 0.030260 0.238132
H15   H     H_    0.888085 0.238683 0.058513 0.225731
H16   H     H_    0.890459 0.752335 0.029582 0.252622
H17   H     H_    0.542912 0.169289 0.767912 0.198991
H18   H     H_    0.548317 0.817291 0.753806 0.189867
H19   H     H_    0.062660 0.707287 0.733282 0.223775
H20   H     H_    0.045798 0.330026 0.771762 0.184922
N1    N     N_R   0.566260 0.000000 0.302220 -0.238579
N2    N     N_R   0.066260 0.500000 0.302220 -0.256366
N3    N     N_R   0.434410 0.000000 0.697680 -0.223126
N4    N     N_R   0.934410 0.500000 0.697680 -0.231249
O1    O     O_R   0.608610 0.924520 0.551740 -0.550828
O2    O     O_R   0.608610 0.075480 0.551740 -0.545347
O3    O     O_R   0.108610 0.424520 0.551740 -0.561360
O4    O     O_R   0.108610 0.575480 0.551740 -0.526682
O5    O     O_R   0.564110 0.924510 0.685150 -0.621009
O6    O     O_R   0.564110 0.075490 0.685150 -0.636335
O7    O     O_R   0.064110 0.424510 0.685150 -0.634398
O8    O     O_R   0.064110 0.575490 0.685150 -0.611798
O9    O     O_R   0.435880 0.075470 0.314850 -0.524555
O10   O     O_R   0.435880 0.924530 0.314850 -0.548300
O11   O     O_R   0.935880 0.575470 0.314850 -0.534140
O12   O     O_R   0.935880 0.424530 0.314850 -0.537238
O13   O     O_R   0.391380 0.075460 0.448260 -0.576276
O14   O     O_R   0.391380 0.924540 0.448260 -0.488448
O15   O     O_R   0.891380 0.575460 0.448260 -0.553125
O16   O     O_R   0.891380 0.424540 0.448260 -0.587698
S1    S     S_3+6 0.283920 0.827167 0.443965 0.089686
O17   O     O_2   0.242656 0.899097 0.412658 -0.228732
O18   O     O_2   0.238292 0.777514 0.474174 -0.165233
O19   O     O_3   0.386587 0.830876 0.590056 -0.534131
H21   H     H_    0.404699 0.780029 0.611615 0.341894
S2    S     S_3+6 0.186428 0.062470 0.206877 0.090423
O20   O     O_2   0.179209 0.060981 0.319396 -0.217969
O21   O     O_2   0.097075 0.058883 0.070046 -0.208952
O22   O     O_3   0.241920 0.991363 0.220445 -0.547385
H22   H     H_    0.198449 0.952734 0.166158 0.386059
S3    S     S_3+6 0.697197 0.409447 0.269019 0.115224
O23   O     O_2   0.734149 0.481162 0.273173 -0.279925
O24   O     O_2   0.602155 0.410867 0.150024 -0.138937
O25   O     O_3   0.711371 0.395253 0.415365 -0.460334
H23   H     H_    0.765607 0.367942 0.476373 0.351755
S4    S     S_3+6 0.815455 0.713940 0.446723 0.114894
O26   O     O_2   0.911785 0.709656 0.545943 -0.301632
O27   O     O_2   0.792151 0.791810 0.429051 -0.202526
O28   O     O_3   0.775896 0.667351 0.511867 -0.428188
H24   H     H_    0.826256 0.644172 0.596431 0.386461
I1    I     I_    0.757948 0.947002 0.122666 -0.210855
I2    I     I_    0.259017 0.457960 0.119805 -0.169849
I3    I     I_    0.797583 0.066590 0.365792 -0.102206
I4    I     I_    0.302072 0.562575 0.381346 -0.123609
S5    S     S_3+6 0.320102 0.054826 0.906342 -0.004740
O29   O     O_2   0.288434 0.994208 0.944913 -0.302593
O30   O     O_2   0.381261 0.102080 0.029314 -0.325497
O31   O     O_3   0.234823 0.104522 0.783365 -0.496993
H25   H     H_    0.211505 0.123378 0.827600 0.373964
S6    S     S_3+6 0.818645 0.582525 0.878700 0.004410
O32   O     O_2   0.745510 0.542380 0.857214 -0.213706
O33   O     O_2   0.876512 0.614464 0.020528 -0.344176
O34   O     O_3   0.775259 0.649687 0.762471 -0.525547
H26   H     H_    0.720247 0.660903 0.742720 0.373124
S7    S     S_3+6 0.647287 0.234267 0.246970 0.080416
O35   O     O_2   0.721427 0.215543 0.393616 -0.230685
O36   O     O_2   0.589668 0.285507 0.245305 -0.191839
O37   O     O_3   0.592127 0.158156 0.166582 -0.552261
H27   H     H_    0.530668 0.170036 0.114216 0.404454
S8    S     S_3+6 0.604683 0.704155 0.160296 0.136782
O38   O     O_2   0.620468 0.659133 0.274570 -0.110072
O39   O     O_2   0.583219 0.779567 0.169683 -0.230476
O40   O     O_3   0.522638 0.667108 0.008782 -0.484901
H28   H     H_    0.472047 0.696950 0.973191 0.388671
S9    S     S_3+6 0.123530 0.727796 0.191952 0.104918
O41   O     O_2   0.162163 0.675175 0.308670 -0.231983
O42   O     O_2   0.084887 0.788579 0.213798 -0.156906
O43   O     O_3   0.046393 0.682718 0.047900 -0.524151
H29   H     H_    0.002827 0.670614 0.058708 0.413562
S10   S     S_3+6 0.150967 0.240889 0.244619 0.095685
O44   O     O_2   0.088501 0.191388 0.237861 -0.178055
O45   O     O_2   0.232278 0.247516 0.391338 -0.234828
O46   O     O_3   0.107476 0.322863 0.185707 -0.528250
H30   H     H_    0.098391 0.340249 0.250261 0.382793
S11   S     S_3+6 0.441300 0.781053 0.203208 0.047002
O47   O     O_2   0.501517 0.843963 0.265705 -0.238342
O48   O     O_2   0.494388 0.716296 0.283035 -0.206889
O49   O     O_3   0.404474 0.775604 0.039554 -0.530424
H31   H     H_    0.373284 0.821071 0.995256 0.358564
S12   S     S_3+6 0.435483 0.245522 0.292214 0.064233
O50   O     O_2   0.470734 0.243608 0.440078 -0.278395
O51   O     O_2   0.493538 0.203063 0.280116 -0.245757
O52   O     O_3   0.430879 0.331896 0.246496 -0.443577
H32   H     H_    0.459759 0.334089 0.205290 0.395612
S13   S     S_3+6 0.818339 0.380313 0.031527 0.034089
O53   O     O_2   0.806658 0.455665 0.058093 -0.242907
O54   O     O_2   0.906488 0.372314 0.073341 -0.283089
O55   O     O_3   0.744069 0.364350 0.861101 -0.477685
H33   H     H_    0.687971 0.372907 0.839379 0.373942
S14   S     S_3+6 0.949371 0.745489 0.283951 0.068035
O56   O     O_2   0.992170 0.747331 0.435283 -0.268807
O57   O     O_2   0.001024 0.697833 0.265356 -0.212882
O58   O     O_3   0.947543 0.829909 0.232511 -0.489359
H34   H     H_    0.005280 0.850303 0.306718 0.420247
I5    I     I_    0.675508 0.262442 0.571849 0.118736
I6    I     I_    0.686417 0.801766 0.522481 0.118662
I7    I     I_    0.304645 0.647356 0.686501 -0.064741
I8    I     I_    0.150343 0.262587 0.526250 -0.067072
S15   S     S_3+6 0.415171 0.532891 0.004110 0.117304
O59   O     O_2   0.443923 0.532831 0.918359 -0.178447
O60   O     O_2   0.492170 0.540714 0.154196 -0.156131
O61   O     O_3   0.365356 0.454231 0.980798 -0.530902
H35   H     H_    0.406808 0.417048 0.001077 0.399458
S16   S     S_3+6 0.381752 0.265231 0.811065 0.028886
O62   O     O_2   0.465091 0.297990 0.932979 -0.302129
O63   O     O_2   0.392161 0.185625 0.809616 -0.304369
O64   O     O_3   0.355234 0.302048 0.665421 -0.440728
H36   H     H_    0.403306 0.289923 0.665649 0.389407
S17   S     S_3+6 0.894339 0.222202 0.836877 0.038803
O65   O     O_2   0.909693 0.302050 0.849087 -0.289831
O66   O     O_2   0.974377 0.184234 0.953133 -0.243554
O67   O     O_3   0.865930 0.193416 0.685787 -0.477150
H37   H     H_    0.912760 0.210460 0.685167 0.366259
S18   S     S_3+6 0.899871 0.806635 0.825668 0.070334
O68   O     O_2   0.980186 0.834263 0.959535 -0.246508
O69   O     O_2   0.913239 0.732168 0.798150 -0.258336
O70   O     O_3   0.876815 0.861784 0.699027 -0.459718
H38   H     H_    0.926193 0.857531 0.699406 0.395648
I9    I     I_    0.752041 0.010169 0.581071 -0.056486
I10   I     I_    0.252617 0.465147 0.566243 -0.058028

loop_
_geom_bond_atom_site_label_1
_geom_bond_atom_site_label_2
_ccdc_geom_bond_type
S3    O25   S    
C83   C87   A    
C53   I1    S    
O34   H26   S    
C39   O9    A    
C14   C18   A    
C53   C55   A    
C60   N2    A    
S4    O28   S    
C48   C56   A    
C38   H6    S    
C59   I9    S    
O67   H37   S    
C37   H5    S    
C2    O2    A    
S7    O36   D    
Cu3   O14   S    
Cu1   O9    S    
O58   H34   S    
O43   H29   S    
C47   N3    A    
C24   S14   S    
S5    O29   D    
S14   O57   D    
C2    C29   S    
C17   C85   A    
C28   C68   A    
S4    O27   D    
C5    C11   A    
S17   O67   S    
C19   C87   A    
Cu4   O8    S    
C6    C12   A    
C12   C64   A    
C14   H10   S    
O37   H27   S    
C77   C83   A    
C70   I6    S    
S3    O23   D    
C6    C22   A    
C49   C57   A    
C4    O8    A    
C7    C9    A    
C25   C63   A    
C23   C67   A    
S13   O54   D    
C9    C13   A    
S10   O44   D    
C22   C66   A    
S11   O49   S    
C26   C64   A    
C27   C61   A    
C20   H20   S    
C11   C15   A    
C16   H12   S    
C72   I8    S    
C12   C16   A    
S8    O39   D    
O55   H33   S    
S9    O42   D    
Cu3   O6    S    
S1    O19   S    
C27   S3    S    
Cu2   O11   S    
S16   O64   S    
C35   N3    A    
C5    C83   A    
C30   C86   A    
C25   S1    S    
C29   C85   A    
S8    O40   S    
C42   O12   A    
C48   N4    A    
C21   C65   A    
C2    O6    A    
O28   H24   S    
C18   C86   A    
C33   C59   A    
C57   H1    S    
C34   C60   A    
C3    O7    A    
C55   H7    S    
C10   C62   A    
C44   S6    S    
S6    O33   D    
C28   C62   A    
C30   C70   A    
O70   H38   S    
C52   C54   A    
C46   C50   A    
C21   S11   S    
C41   C68   S    
C29   C69   A    
Cu1   O10   S    
C45   C47   A    
Cu2   Cu4   S    
C79   H15   S    
C46   C48   A    
C28   S4    S    
C6    C84   A    
S14   O56   D    
C76   S18   S    
C26   C66   A    
S12   O52   S    
C84   C88   A    
Cu4   O15   S    
C31   C87   A    
S4    O26   D    
C72   C74   A    
C10   C14   A    
Cu4   O7    S    
O64   H36   S    
C41   O15   A    
O61   H35   S    
O19   H21   S    
C57   N1    A    
C44   C46   A    
C49   C51   A    
C82   C86   A    
S14   O58   S    
C33   C51   A    
C13   H9    S    
C74   C78   A    
C61   S7    S    
S10   O46   S    
C71   I7    S    
C37   C43   A    
S13   O55   S    
C15   C19   A    
C79   C81   A    
O49   H31   S    
C38   C44   A    
S17   O65   D    
C9    C61   A    
S6    O34   S    
C43   C45   A    
C36   H4    S    
C50   C52   A    
S15   O59   D    
Cu1   N1    S    
C45   C49   A    
C16   C20   A    
S9    O43   S    
C40   O10   A    
C50   C58   A    
C25   C65   A    
C1    O1    A    
S16   O62   D    
Cu4   N4    S    
C3    O3    A    
S7    O37   S    
C8    C10   A    
C7    C81   A    
Cu1   O1    S    
S18   O68   D    
S5    O31   S    
C19   H19   S    
C40   C65   S    
C70   C76   A    
C42   C67   S    
C39   C66   S    
S15   O60   D    
Cu1   Cu3   S    
C56   H8    S    
C22   S12   S    
C41   O11   A    
C36   N4    A    
S7    O35   D    
C62   S8    S    
S8    O38   D    
C35   C37   A    
C47   C55   A    
O25   H23   S    
S3    O24   D    
Cu2   O4    S    
C40   O14   A    
S13   O53   D    
C73   C77   A    
S10   O45   D    
C74   S16   S    
C60   I10   S    
C34   C52   A    
C73   S15   S    
C18   H18   S    
C76   C80   A    
S16   O63   D    
C59   N1    A    
C26   S2    S    
S2    O22   S    
C17   H17   S    
C23   S13   S    
C54   I2    S    
C33   I3    S    
C54   C56   A    
Cu3   O13   S    
C34   I4    S    
S6    O32   D    
S18   O70   S    
C39   O13   A    
Cu4   O16   S    
C80   H16   S    
S18   O69   D    
C77   H13   S    
C63   S9    S    
C13   C17   A    
C78   H14   S    
S12   O50   D    
S2    O21   D    
C58   H2    S    
C64   S10   S    
S11   O47   D    
S17   O66   D    
O40   H28   S    
O22   H22   S    
Cu2   O3    S    
C36   C38   A    
O46   H30   S    
S1    O17   D    
C69   I5    S    
C7    C23   A    
C20   C88   A    
C31   C71   A    
C1    C30   S    
C8    C24   A    
C80   C82   A    
Cu3   N3    S    
C69   C75   A    
Cu2   N2    S    
C43   S5    S    
C3    C32   S    
O31   H25   S    
C1    O5    A    
S11   O48   D    
C4    C31   S    
C27   C67   A    
S2    O20   D    
C24   C68   A    
C51   C53   A    
O52   H32   S    
C78   C84   A    
C8    C82   A    
S15   O61   S    
C5    C21   A    
Cu1   O2    S    
C75   S17   S    
S5    O30   D    
S9    O41   D    
Cu3   O5    S    
C71   C73   A    
C58   N2    A    
S1    O18   D    
Cu2   O12   S    
C4    O4    A    
C42   O16   A    
C15   H11   S    
C11   C63   A    
C75   C79   A    
C81   C85   A    
S12   O51   D    
C35   H3    S    
C32   C72   A    
C32   C88   A    
