data_mof_unit_21946.cif
_audit_creation_date              2012-12-11T15:55:47-0500
_audit_creation_method            fapswitch 2.2
_symmetry_space_group_name_H-M    P1
_symmetry_Int_Tables_number       1
_space_group_crystal_system       triclinic
_cell_length_a                    11.060255
_cell_length_b                    11.129922
_cell_length_c                    18.659498
_cell_angle_alpha                 90.800891
_cell_angle_beta                  91.437537
_cell_angle_gamma                 59.265355
_cell_volume                      1973.73084257

loop_
_atom_site_label
_atom_site_type_symbol
_atom_type_description
_atom_site_fract_x
_atom_site_fract_y
_atom_site_fract_z
_atom_type_partial_charge
C1    C     C_R   0.386065 0.709049 0.389646 0.550774
C2    C     C_R   0.633653 0.117174 0.177033 0.025843
C3    C     C_R   0.370597 0.325858 0.161514 0.004742
C4    C     C_R   0.467499 0.226510 0.276930 -0.157637
C5    C     C_R   0.485605 0.221201 0.203130 -0.022161
C6    C     C_R   0.057386 0.654429 0.344321 -0.095664
C7    C     C_R   0.925342 0.773226 0.350061 -0.122068
C8    C     C_R   0.668592 0.006594 0.127285 -0.085002
C9    C     C_R   0.807794 0.911143 0.109889 -0.143307
C10   C     C_R   0.259760 0.440038 0.195551 -0.161183
C11   C     C_R   0.237033 0.442132 0.269168 -0.044199
C12   C     C_R   0.381171 0.353302 0.388243 0.533866
C13   C     C_R   0.819778 0.795325 0.301762 -0.088635
C14   C     C_R   0.842738 0.694444 0.250307 -0.091433
C15   C     C_R   0.975623 0.575178 0.244941 -0.092615
C16   C     C_R   0.088826 0.551838 0.291255 0.015747
C17   C     C_R   0.351015 0.337173 0.311984 -0.006657
C18   C     C_R   0.865371 0.339141 0.183263 0.025842
C19   C     C_R   0.968116 0.302965 0.236391 0.010273
C20   C     C_R   0.938812 0.318517 0.307216 0.020850
C21   C     C_R   0.693897 0.420993 0.276675 -0.146115
C22   C     C_R   0.724234 0.410464 0.203322 -0.166070
C23   C     C_R   0.772272 0.381288 0.402442 0.547587
C24   C     C_3   0.113697 0.186915 0.248049 -0.281835
C25   C     C_3   0.079801 0.199057 0.327592 -0.294333
C26   C     C_R   0.804634 0.362444 0.328427 0.028593
C27   C     C_R   0.376476 0.802502 0.166702 0.007407
C28   C     C_R   0.463201 0.821277 0.215744 -0.005277
C29   C     C_R   0.463390 0.792889 0.288160 0.046945
C30   C     C_R   0.321376 0.693764 0.262519 -0.180214
C31   C     C_R   0.319438 0.722343 0.189614 -0.152946
C32   C     C_3   0.465311 0.949916 0.233865 -0.286022
C33   C     C_3   0.454372 0.924384 0.312168 -0.260696
C34   C     C_R   0.344468 0.771219 0.603602 0.548170
C35   C     C_R   0.385705 0.737169 0.313253 0.002857
C36   C     C_R   0.299164 0.308955 0.808902 0.006492
C37   C     C_R   0.368827 0.190954 0.764976 -0.001196
C38   C     C_R   0.374274 0.200544 0.692384 0.000680
C39   C     C_R   0.224145 0.451047 0.702082 -0.133759
C40   C     C_R   0.218266 0.441322 0.776578 0.202565
C41   C     C_3   0.513799 0.065981 0.770134 -0.258990
C42   C     C_3   0.517038 0.071275 0.689172 -0.267133
C43   C     C_R   0.315476 0.331656 0.660993 -0.028764
C44   C     C_R   0.788491 0.354305 0.840586 0.008345
C45   C     C_R   0.368932 0.350806 0.594971 0.552399
C46   C     C_R   0.768755 0.473346 0.804320 0.005018
C47   C     C_R   0.736767 0.491761 0.732550 0.001869
C48   C     C_R   0.708129 0.292135 0.731315 -0.159336
C49   C     C_R   0.743357 0.271281 0.805328 -0.173832
C50   C     C_3   0.866378 0.529038 0.797795 -0.218979
C51   C     C_3   0.831809 0.547466 0.718977 -0.257700
C52   C     C_R   0.717349 0.396086 0.693303 0.013981
C53   C     C_R   0.297123 0.845566 0.825197 0.001952
C54   C     C_R   0.181844 0.876748 0.780319 0.013747
C55   C     C_R   0.194497 0.862800 0.707222 0.033939
C56   C     C_R   0.700029 0.412921 0.615494 0.564493
C57   C     C_R   0.440213 0.787280 0.720661 -0.164487
C58   C     C_R   0.429087 0.792903 0.794907 -0.167071
C59   C     C_3   0.041112 0.005568 0.775326 -0.245132
C60   C     C_3   0.054663 0.991946 0.694689 -0.268896
C61   C     C_R   0.322124 0.824430 0.675985 0.014385
C62   C     C_R   0.908573 0.317523 0.110356 0.544944
C63   C     C_R   0.332692 0.294153 0.091061 0.538772
C64   C     C_R   0.311874 0.892955 0.103563 0.530503
C65   C     C_R   0.876476 0.313406 0.906410 0.528876
C66   C     C_R   0.291786 0.283623 0.883733 0.546433
C67   C     C_R   0.917157 0.915949 0.145111 -0.065121
C68   C     C_R   0.273510 0.896402 0.897766 0.536403
C69   C     C_R   0.887680 0.014785 0.198579 -0.076844
C70   C     C_R   0.748277 0.112926 0.214482 -0.113799
Cr1   Cr    Cr6+3 0.601740 0.606840 0.505840 1.007273
Cr2   Cr    Cr6+3 0.291500 0.601560 0.495070 0.983023
Cr3   Cr    Cr6+3 0.606780 0.291630 0.499130 0.993687
Cr4   Cr    Cr6+3 0.062440 0.063060 0.008240 0.997115
Cr5   Cr    Cr6+3 0.062950 0.375000 0.998920 0.987313
Cr6   Cr    Cr6+3 0.374550 0.061770 0.992470 0.987475
H1    H     H_    0.552863 0.143915 0.307917 0.140125
H2    H     H_    0.724764 0.894994 0.302719 0.099281
H3    H     H_    0.761401 0.711492 0.211480 0.120130
H4    H     H_    0.993029 0.507335 0.199785 0.145283
H5    H     H_    0.586175 0.465862 0.292817 0.118979
H6    H     H_    0.639961 0.449548 0.163397 0.122243
H7    H     H_    0.186282 0.224188 0.235667 0.145560
H8    H     H_    0.134858 0.087339 0.222785 0.151449
H9    H     H_    0.075006 0.108453 0.348434 0.143426
H10   H     H_    0.141743 0.232793 0.361098 0.145567
H11   H     H_    0.266853 0.644965 0.279996 0.135454
H12   H     H_    0.260097 0.695497 0.152664 0.116615
H13   H     H_    0.377231 0.043569 0.209160 0.150825
H14   H     H_    0.567880 0.934669 0.222251 0.129783
H15   H     H_    0.544281 0.904699 0.347461 0.144915
H16   H     H_    0.351056 0.998861 0.335161 0.147348
H17   H     H_    0.589619 0.089745 0.797529 0.131947
H18   H     H_    0.602056 0.086559 0.670216 0.152196
H19   H     H_    0.907964 0.853457 0.388933 0.110002
H20   H     H_    0.512726 0.983895 0.662205 0.138554
H21   H     H_    0.685021 0.221089 0.703079 0.129454
H22   H     H_    0.748287 0.183671 0.832546 0.114456
H23   H     H_    0.977475 0.447270 0.808575 0.201730
H24   H     H_    0.828570 0.629411 0.827010 0.153001
H25   H     H_    0.775712 0.658677 0.702183 0.131111
H26   H     H_    0.923482 0.476210 0.685706 0.161117
H27   H     H_    0.541318 0.752517 0.697980 0.134686
H28   H     H_    0.521113 0.766046 0.828195 0.124502
H29   H     H_    0.041976 0.098691 0.796904 0.152622
H30   H     H_    0.024299 0.838105 0.133498 0.121122
H31   H     H_    0.958534 0.987143 0.795758 0.138006
H32   H     H_    0.977459 0.968873 0.668364 0.144735
H33   H     H_    0.062887 0.077412 0.669449 0.143126
H34   H     H_    0.972692 0.012631 0.229463 0.118212
H35   H     H_    0.730112 0.180297 0.259724 0.126647
H36   H     H_    0.133228 0.658485 0.376284 0.193795
H37   H     H_    0.594243 0.978757 0.107413 0.167634
H38   H     H_    0.180062 0.523386 0.162245 0.118715
O1    O     O_R   0.748670 0.497520 0.427970 -0.503783
O2    O     O_R   0.300170 0.471020 0.567120 -0.509243
O3    O     O_R   0.491630 0.259030 0.574940 -0.527381
O4    O     O_R   0.718640 0.304340 0.577850 -0.506556
O5    O     O_3   0.500010 0.500010 0.500020 -0.289547
O6    O     O_R   0.186620 0.923750 0.087000 -0.533770
O7    O     O_R   0.957350 0.194160 0.084660 -0.486504
O8    O     O_R   0.935120 0.407280 0.085350 -0.534452
O9    O     O_R   0.203800 0.365060 0.067090 -0.513933
O10   O     O_R   0.417470 0.174910 0.067830 -0.534880
O11   O     O_R   0.375160 0.946380 0.070880 -0.513492
O12   O     O_R   0.476470 0.723930 0.429450 -0.492229
O13   O     O_R   0.160500 0.919670 0.926690 -0.535153
O14   O     O_R   0.933140 0.190380 0.936050 -0.503217
O15   O     O_R   0.909010 0.403210 0.925030 -0.527189
O16   O     O_R   0.179590 0.361290 0.918480 -0.487698
O17   O     O_R   0.391360 0.170840 0.907510 -0.529398
O18   O     O_R   0.350950 0.942600 0.922260 -0.506754
O19   O     O_3   0.166650 0.166610 0.999880 -0.245881
O20   O     O_R   0.264730 0.744140 0.416740 -0.549533
O21   O     O_R   0.309440 0.472410 0.418220 -0.537647
O22   O     O_R   0.501630 0.260530 0.414310 -0.524541
O23   O     O_R   0.727920 0.305730 0.428950 -0.508226
O24   O     O_R   0.738670 0.496020 0.588600 -0.520253
O25   O     O_R   0.467190 0.722540 0.578350 -0.521658
O26   O     O_R   0.254720 0.742640 0.577370 -0.511289
H39   H     H_    0.831102 0.827771 0.072032 0.089344
H40   H     H_    0.168723 0.554249 0.678234 0.162959
O27   O     O_3   0.125717 0.559572 0.814686 -0.576223
C71   C     C_3   0.197834 0.596163 0.865859 0.019800
H41   H     H_    0.241885 0.651346 0.838882 0.143943
H42   H     H_    0.288887 0.507191 0.893370 0.114708
C72   C     C_3   0.094686 0.688443 0.922808 -0.332755
H43   H     H_    0.041440 0.636186 0.945432 0.158498
H44   H     H_    0.151582 0.707332 0.967242 0.116750
H45   H     H_    0.013620 0.789645 0.898909 0.151663
H46   H     H_    0.515557 0.972520 0.790461 0.155101

loop_
_geom_bond_atom_site_label_1
_geom_bond_atom_site_label_2
_ccdc_geom_bond_type
C44   C49   A    
C7    C13   A    
C21   C26   A    
Cr3   O5    S    
C63   O9    A    
Cr5   O8    S    
C41   C42   S    
C72   H43   S    
C63   O10   A    
C53   C54   A    
C51   H26   S    
Cr4   O14   S    
C48   H21   S    
C50   H23   S    
C59   H29   S    
C20   C26   A    
C30   C35   A    
C42   H20   S    
C22   H6    S    
C21   C22   A    
C28   C29   A    
C72   H44   S    
C24   H7    S    
C38   C42   S    
C33   H15   S    
C30   C31   A    
Cr6   O17   S    
C36   C66   S    
C20   C25   S    
O27   C71   S    
Cr4   O19   S    
C29   C33   S    
C34   O25   A    
C18   C19   A    
C11   C16   S    
C23   C26   S    
C68   O18   A    
C53   C68   S    
C60   H33   S    
C49   H22   S    
C46   C47   A    
C52   C56   S    
C41   H17   S    
C15   H4    S    
C8    C9    A    
C12   O21   A    
C12   C17   S    
C39   H40   S    
Cr1   O12   S    
C31   H12   S    
C60   H32   S    
Cr5   O16   S    
C59   C60   S    
C42   H18   S    
C55   C60   S    
Cr6   O11   S    
C44   C65   S    
C56   O4    A    
C71   C72   S    
C44   C46   A    
C46   C50   S    
Cr1   O24   S    
C54   C59   S    
C57   H27   S    
C32   H14   S    
Cr3   O3    S    
C27   C31   A    
Cr6   O10   S    
C65   O14   A    
C36   C40   A    
C72   H45   S    
C1    O12   A    
C71   H42   S    
C10   H38   S    
C27   C64   S    
C33   H16   S    
C39   C40   A    
C9    H39   S    
C18   C62   S    
Cr2   O21   S    
C39   C43   A    
C6    C16   A    
C34   C61   S    
C59   H31   S    
C67   C69   A    
C9    C67   A    
C37   C38   A    
C47   C51   S    
C65   O15   A    
C56   O24   A    
C69   H34   S    
Cr2   O20   S    
C32   H13   S    
Cr3   O22   S    
C28   C32   S    
Cr6   O19   S    
C25   H9    S    
C50   C51   S    
Cr1   O1    S    
C14   H3    S    
C24   C25   S    
C43   C45   S    
C68   O13   A    
C47   C52   A    
C8    H37   S    
C4    C17   A    
C48   C49   A    
C21   H5    S    
Cr4   O13   S    
C10   C11   A    
Cr5   O9    S    
C2    C5    S    
C58   H28   S    
Cr2   O26   S    
C1    O20   A    
C62   O8    A    
C7    H19   S    
C1    C35   S    
C66   O17   A    
C45   O3    A    
C29   C35   A    
C54   C55   A    
C36   C37   A    
Cr3   O4    S    
C18   C22   A    
C6    H36   S    
C23   O23   A    
C2    C8    A    
C71   H41   S    
C3    C5    A    
C11   C17   A    
Cr1   O25   S    
C53   C58   A    
Cr5   O19   S    
C67   H30   S    
C57   C61   A    
C6    C7    A    
C41   H46   S    
C3    C63   S    
C51   H25   S    
Cr4   O6    S    
Cr2   O2    S    
C50   H24   S    
C64   O6    A    
Cr1   O5    S    
C32   C33   S    
C19   C20   A    
C19   C24   S    
C24   H8    S    
C38   C43   A    
C3    C10   A    
C2    C70   A    
Cr6   O18   S    
C45   O2    A    
C57   C58   A    
Cr3   O23   S    
C4    C5    A    
C55   C61   A    
Cr2   O5    S    
C34   O26   A    
C25   H10   S    
C37   C41   S    
C69   C70   A    
C70   H35   S    
C13   H2    S    
C23   O1    A    
Cr5   O15   S    
C4    H1    S    
C48   C52   A    
Cr4   O7    S    
C64   O11   A    
C12   O22   A    
C40   O27   S    
C27   C28   A    
C14   C15   A    
C30   H11   S    
C13   C14   A    
C62   O7    A    
C15   C16   A    
C66   O16   A    
