data_mof_unit_38178.cif
_audit_creation_date              2012-12-11T16:08:34-0500
_audit_creation_method            fapswitch 2.2
_symmetry_space_group_name_H-M    P1
_symmetry_Int_Tables_number       1
_space_group_crystal_system       triclinic
_cell_length_a                    7.230129
_cell_length_b                    21.951984
_cell_length_c                    22.896124
_cell_angle_alpha                 89.999948
_cell_angle_beta                  90.000635
_cell_angle_gamma                 90.000193
_cell_volume                      3633.97380108

loop_
_atom_site_label
_atom_site_type_symbol
_atom_type_description
_atom_site_fract_x
_atom_site_fract_y
_atom_site_fract_z
_atom_type_partial_charge
O1    O     O_R   0.365470 0.806380 0.442440 -0.536616
O2    O     O_R   0.134530 0.193620 0.942440 -0.536614
O3    O     O_R   0.865470 0.693620 0.557560 -0.536613
O4    O     O_R   0.634530 0.306380 0.057560 -0.536615
O5    O     O_R   0.035730 0.813790 0.557160 -0.531770
O6    O     O_R   0.464270 0.186210 0.057160 -0.531770
O7    O     O_R   0.535730 0.686210 0.442840 -0.531770
O8    O     O_R   0.964270 0.313790 0.942840 -0.531770
C1    C     C_R   0.203839 0.827980 0.576649 0.709638
C2    C     C_R   0.296163 0.172022 0.076650 0.709638
C3    C     C_R   0.703836 0.672022 0.423349 0.709637
C4    C     C_R   0.796161 0.327979 0.923351 0.709640
O9    O     O_R   0.035760 0.813790 0.442850 -0.534816
O10   O     O_R   0.464240 0.186210 0.942850 -0.534813
O11   O     O_R   0.535760 0.686210 0.557150 -0.534814
O12   O     O_R   0.964240 0.313790 0.057150 -0.534815
O13   O     O_R   0.865450 0.693620 0.442430 -0.530434
O14   O     O_R   0.634550 0.306380 0.942430 -0.530436
O15   O     O_R   0.365450 0.806380 0.557570 -0.530437
O16   O     O_R   0.134550 0.193620 0.057570 -0.530434
C5    C     C_R   0.204572 0.828873 0.424392 0.722601
C6    C     C_R   0.295427 0.171128 0.924391 0.722604
C7    C     C_R   0.704573 0.671128 0.575608 0.722604
C8    C     C_R   0.795429 0.328872 0.075608 0.722602
O17   O     O_3   0.198970 0.710570 0.500000 -0.377793
O18   O     O_3   0.301030 0.289430 0.000000 -0.377796
O19   O     O_3   0.698970 0.789430 0.500000 -0.377794
O20   O     O_3   0.801030 0.210570 0.000000 -0.377794
V1    V     V_3+5 0.924120 0.757310 0.500000 1.400947
V2    V     V_3+5 0.575880 0.242690 0.000000 1.400947
V3    V     V_3+5 0.424120 0.742690 0.500000 1.400946
V4    V     V_3+5 0.075880 0.257310 0.000000 1.400946
C9    C     C_3   0.908033 0.555104 0.748212 0.299101
C10   C     C_3   0.591967 0.444899 0.248207 0.299106
C11   C     C_3   0.408049 0.944906 0.251800 0.299102
C12   C     C_3   0.091975 0.055108 0.751785 0.299106
C13   C     C_3   0.574959 0.527774 0.733980 -0.419765
C14   C     C_3   0.925038 0.472232 0.233977 -0.419774
C15   C     C_3   0.074968 0.972232 0.266025 -0.419770
C16   C     C_3   0.425045 0.027775 0.766019 -0.419763
C17   C     C_3   0.583240 0.476072 0.779207 -0.421100
C18   C     C_3   0.916747 0.523935 0.279203 -0.421085
C19   C     C_3   0.083251 0.023934 0.220798 -0.421096
C20   C     C_3   0.416760 0.976073 0.720793 -0.421092
H1    H     H_    0.863143 0.529626 0.840310 0.197541
H2    H     H_    0.636848 0.470381 0.340305 0.197545
H3    H     H_    0.363163 0.970383 0.159701 0.197544
H4    H     H_    0.136863 0.029627 0.659687 0.197541
H5    H     H_    0.453301 0.521920 0.705221 0.143573
H6    H     H_    0.046696 0.478088 0.205219 0.143582
H7    H     H_    0.953307 0.978085 0.294783 0.143575
H8    H     H_    0.546700 0.021920 0.794779 0.143574
H9    H     H_    0.544442 0.570892 0.757626 0.223827
H10   H     H_    0.955560 0.429115 0.257625 0.223825
H11   H     H_    0.044459 0.929113 0.242378 0.223823
H12   H     H_    0.455568 0.070893 0.742373 0.223828
H13   H     H_    0.532710 0.493502 0.822026 0.168456
H14   H     H_    0.967276 0.506507 0.322023 0.168456
H15   H     H_    0.032729 0.006503 0.177978 0.168454
H16   H     H_    0.467293 0.993502 0.677973 0.168457
H17   H     H_    0.487413 0.438799 0.766287 0.211053
H18   H     H_    0.012573 0.561208 0.266284 0.211058
H19   H     H_    0.987418 0.061205 0.233716 0.211062
H20   H     H_    0.512584 0.938800 0.733713 0.211052
C21   C     C_1   0.790396 0.371516 0.875448 -0.182656
C22   C     C_1   0.709594 0.628489 0.375443 -0.182671
C23   C     C_1   0.290402 0.128489 0.124557 -0.182667
C24   C     C_1   0.209604 0.871517 0.624551 -0.182656
C25   C     C_3   0.762342 0.535280 0.700610 0.000810
C26   C     C_3   0.737660 0.464722 0.200606 0.000803
C27   C     C_3   0.262346 0.964728 0.299398 0.000801
C28   C     C_3   0.237661 0.035283 0.799387 0.000808
C29   C     C_3   0.909937 0.507616 0.799063 -0.458236
C30   C     C_3   0.590054 0.492389 0.299056 -0.458242
C31   C     C_3   0.409952 0.992394 0.200948 -0.458236
C32   C     C_3   0.090067 0.007618 0.700934 -0.458239
C33   C     C_3   0.783079 0.452039 0.785380 0.066409
C34   C     C_3   0.716906 0.547967 0.285373 0.066397
C35   C     C_3   0.283089 0.047970 0.214629 0.066403
C36   C     C_3   0.216920 0.952041 0.714619 0.066406
C37   C     C_3   0.844240 0.422101 0.725830 0.864694
C38   C     C_3   0.655747 0.577901 0.225820 0.864711
C39   C     C_3   0.344236 0.077908 0.274181 0.864706
C40   C     C_3   0.155753 0.922104 0.774168 0.864697
C41   C     C_3   0.843041 0.472133 0.674210 0.602006
C42   C     C_3   0.656953 0.527867 0.174203 0.602013
C43   C     C_3   0.343036 0.027875 0.325801 0.602008
C44   C     C_3   0.156954 0.972136 0.825788 0.602007
C45   C     C_1   0.788303 0.407411 0.834882 0.076137
C46   C     C_1   0.711681 0.592596 0.334875 0.076130
C47   C     C_1   0.288312 0.092597 0.165126 0.076134
C48   C     C_1   0.211696 0.907412 0.665116 0.076133
C49   C     C_1   0.734485 0.584020 0.655964 -0.027764
C50   C     C_1   0.765521 0.415982 0.155962 -0.027766
C51   C     C_1   0.234486 0.915987 0.344043 -0.027771
C52   C     C_1   0.265516 0.084022 0.844034 -0.027766
C53   C     C_1   0.716312 0.623833 0.619544 -0.222651
C54   C     C_1   0.783693 0.376168 0.119543 -0.222654
C55   C     C_1   0.216311 0.876171 0.380460 -0.222656
C56   C     C_1   0.283688 0.123834 0.880455 -0.222649
H21   H     H_    0.049578 0.553067 0.729263 0.091360
H22   H     H_    0.450423 0.446934 0.229257 0.091377
H23   H     H_    0.549591 0.946948 0.270750 0.091367
H24   H     H_    0.950429 0.053073 0.770733 0.091363
H25   H     H_    0.054124 0.491774 0.806873 0.148977
H26   H     H_    0.445865 0.508230 0.306864 0.148976
H27   H     H_    0.554138 0.008238 0.193140 0.148976
H28   H     H_    0.945879 0.991777 0.693124 0.148977
F1    F     F_    0.716208 0.376410 0.714731 -0.751659
F2    F     F_    0.783781 0.623591 0.214720 -0.751649
F3    F     F_    0.216192 0.123594 0.285279 -0.751644
F4    F     F_    0.283783 0.876413 0.785269 -0.751659
O21   O     O_3   0.870555 0.614276 0.770857 -0.559601
C57   C     C_3   0.996522 0.658016 0.748309 0.098644
H29   H     H_    0.932868 0.703718 0.753049 0.139028
H30   H     H_    0.020075 0.651871 0.700588 0.108582
C58   C     C_3   0.181341 0.656944 0.781783 -0.354947
H31   H     H_    0.162965 0.678392 0.825230 0.205441
H32   H     H_    0.228057 0.609482 0.789581 0.190141
C59   C     C_3   0.333344 0.690221 0.748110 -0.810138
H33   H     H_    0.364510 0.665651 0.706834 0.226920
H34   H     H_    0.461288 0.691919 0.774908 0.246454
H35   H     H_    0.290612 0.737490 0.737452 0.249678
O22   O     O_3   0.629443 0.385728 0.270854 -0.559600
C60   C     C_3   0.503482 0.341987 0.248304 0.098642
H36   H     H_    0.567132 0.296285 0.253050 0.139032
H37   H     H_    0.479948 0.348129 0.200582 0.108589
C61   C     C_3   0.318648 0.343063 0.281769 -0.354958
H38   H     H_    0.337000 0.321616 0.325217 0.205448
H39   H     H_    0.271935 0.390526 0.289563 0.190137
C62   C     C_3   0.166656 0.309787 0.248089 -0.810133
H40   H     H_    0.135511 0.334356 0.206811 0.226919
H41   H     H_    0.038701 0.308092 0.274880 0.246461
H42   H     H_    0.209387 0.262518 0.237434 0.249673
O23   O     O_3   0.370590 0.885734 0.229155 -0.559598
C63   C     C_3   0.496547 0.841997 0.251715 0.098648
H43   H     H_    0.432895 0.796294 0.246977 0.139034
H44   H     H_    0.520078 0.848147 0.299436 0.108579
C64   C     C_3   0.681386 0.843066 0.218253 -0.354947
H45   H     H_    0.663033 0.821619 0.174804 0.205448
H46   H     H_    0.728112 0.890528 0.210458 0.190130
C65   C     C_3   0.833364 0.809787 0.251935 -0.810132
H47   H     H_    0.864506 0.834354 0.293214 0.226921
H48   H     H_    0.961325 0.808090 0.225146 0.246455
H49   H     H_    0.790621 0.762517 0.262587 0.249662
O24   O     O_3   0.129463 0.114278 0.729139 -0.559601
C66   C     C_3   0.003495 0.158020 0.751682 0.098641
H50   H     H_    0.067149 0.203722 0.746939 0.139028
H51   H     H_    0.979939 0.151878 0.799403 0.108586
C67   C     C_3   0.818678 0.156946 0.718207 -0.354955
H52   H     H_    0.837056 0.178394 0.674760 0.205441
H53   H     H_    0.771965 0.109483 0.710409 0.190144
C68   C     C_3   0.666667 0.190221 0.751879 -0.810145
H54   H     H_    0.635500 0.165651 0.793154 0.226921
H55   H     H_    0.538730 0.191919 0.725080 0.246463
H56   H     H_    0.709402 0.237490 0.762539 0.249684
O25   O     O_3   0.033015 0.480314 0.658100 -0.612345
C69   C     C_3   0.076483 0.521313 0.611799 0.048492
H57   H     H_    0.228168 0.520002 0.607602 0.124205
H58   H     H_    0.052317 0.569386 0.623357 0.109728
C70   C     C_3   0.996898 0.504544 0.551540 -0.269276
H59   H     H_    0.010822 0.454736 0.544022 0.216769
H60   H     H_    0.848712 0.517475 0.549224 0.207818
C71   C     C_3   0.096773 0.538477 0.502595 -0.857453
H61   H     H_    0.084455 0.588432 0.509133 0.257513
H62   H     H_    0.033457 0.526518 0.459910 0.226392
H63   H     H_    0.245375 0.525655 0.501498 0.222728
O26   O     O_3   0.466980 0.519679 0.158093 -0.612357
C72   C     C_3   0.423516 0.478680 0.111791 0.048476
H64   H     H_    0.271831 0.479989 0.107594 0.124213
H65   H     H_    0.447690 0.430607 0.123348 0.109740
C73   C     C_3   0.503097 0.495452 0.051533 -0.269292
H66   H     H_    0.489166 0.545260 0.044015 0.216769
H67   H     H_    0.651285 0.482523 0.049218 0.207816
C74   C     C_3   0.403227 0.461518 0.002587 -0.857460
H68   H     H_    0.415551 0.411563 0.009124 0.257518
H69   H     H_    0.466541 0.473477 0.959903 0.226391
H70   H     H_    0.254625 0.474337 0.001488 0.222731
O27   O     O_3   0.533009 0.019694 0.341914 -0.612350
C75   C     C_3   0.576473 0.978694 0.388215 0.048490
H71   H     H_    0.728157 0.980008 0.392417 0.124203
H72   H     H_    0.552315 0.930621 0.376654 0.109730
C76   C     C_3   0.496871 0.995459 0.448472 -0.269294
H73   H     H_    0.510798 0.045266 0.455995 0.216774
H74   H     H_    0.348683 0.982528 0.450782 0.207815
C77   C     C_3   0.596726 0.961520 0.497418 -0.857460
H75   H     H_    0.584401 0.911565 0.490876 0.257515
H76   H     H_    0.533400 0.973476 0.540102 0.226391
H77   H     H_    0.745330 0.974339 0.498522 0.222733
O28   O     O_3   0.966980 0.980320 0.841895 -0.612348
C78   C     C_3   0.923511 0.021318 0.888197 0.048490
H78   H     H_    0.771826 0.020007 0.892393 0.124206
H79   H     H_    0.947681 0.069392 0.876640 0.109732
C79   C     C_3   0.003091 0.004547 0.948456 -0.269282
H80   H     H_    0.989163 0.954739 0.955973 0.216768
H81   H     H_    0.151278 0.017478 0.950773 0.207818
C80   C     C_3   0.903216 0.038480 0.997401 -0.857451
H82   H     H_    0.915539 0.088436 0.990864 0.257515
H83   H     H_    0.966528 0.026521 0.040086 0.226391
H84   H     H_    0.754612 0.025660 0.998497 0.222727
O29   O     O_3   0.754422 0.446239 0.624019 -0.559072
C81   C     C_3   0.561129 0.451878 0.620198 0.100880
H85   H     H_    0.524604 0.500201 0.613758 0.074383
H86   H     H_    0.491021 0.432277 0.658914 0.163964
C82   C     C_3   0.490721 0.418663 0.565708 -0.327395
H87   H     H_    0.337694 0.422296 0.564181 0.154605
H88   H     H_    0.546849 0.441061 0.525918 0.181817
C83   C     C_3   0.543177 0.351338 0.564909 -0.668867
H89   H     H_    0.692453 0.346256 0.554899 0.234978
H90   H     H_    0.464086 0.327698 0.530057 0.190581
H91   H     H_    0.510977 0.329507 0.607495 0.238877
O30   O     O_3   0.745566 0.553762 0.124012 -0.559053
C84   C     C_3   0.938859 0.548122 0.120191 0.100915
H92   H     H_    0.975385 0.499800 0.113750 0.074371
H93   H     H_    0.008974 0.567724 0.158906 0.163977
C85   C     C_3   0.009256 0.581339 0.065701 -0.327433
H94   H     H_    0.162273 0.577689 0.064160 0.154604
H95   H     H_    0.953072 0.558958 0.025912 0.181847
C86   C     C_3   0.956875 0.648668 0.064919 -0.668906
H96   H     H_    0.807595 0.653770 0.054932 0.235006
H97   H     H_    0.035943 0.672305 0.030060 0.190585
H98   H     H_    0.989158 0.670487 0.107503 0.238854
O31   O     O_3   0.254413 0.053770 0.375990 -0.559060
C87   C     C_3   0.061123 0.048123 0.379812 0.100904
H99   H     H_    0.024614 0.999799 0.386254 0.074376
H100  H     H_    0.991002 0.067721 0.341097 0.163985
C88   C     C_3   0.990722 0.081338 0.434303 -0.327503
H101  H     H_    0.837720 0.077672 0.435854 0.154643
H102  H     H_    0.046946 0.058968 0.474089 0.181883
C89   C     C_3   0.043028 0.148670 0.435079 -0.668997
H103  H     H_    0.192294 0.153790 0.445064 0.235022
H104  H     H_    0.963939 0.172301 0.469936 0.190599
H105  H     H_    0.010723 0.170478 0.392494 0.238873
O32   O     O_3   0.245567 0.946241 0.875980 -0.559068
C90   C     C_3   0.438860 0.951880 0.879801 0.100885
H106  H     H_    0.475386 0.000203 0.886243 0.074380
H107  H     H_    0.508971 0.932279 0.841087 0.163964
C91   C     C_3   0.509262 0.918665 0.934292 -0.327394
H108  H     H_    0.662288 0.922301 0.935822 0.154600
H109  H     H_    0.453122 0.941059 0.974082 0.181820
C92   C     C_3   0.456818 0.851338 0.935087 -0.668869
H110  H     H_    0.307540 0.846253 0.945093 0.234978
H111  H     H_    0.535907 0.827699 0.969939 0.190581
H112  H     H_    0.489032 0.829510 0.892501 0.238871
O33   O     O_3   0.022259 0.395237 0.736303 -0.589574
C93   C     C_3   0.104676 0.359450 0.691084 0.127932
H113  H     H_    0.222003 0.335006 0.711906 0.142085
H114  H     H_    0.171147 0.387669 0.657134 0.156351
C94   C     C_3   0.981706 0.311217 0.662257 -0.289804
H115  H     H_    0.911943 0.283984 0.696340 0.232579
H116  H     H_    0.876888 0.333691 0.634599 0.259235
C95   C     C_3   0.094763 0.269213 0.622823 -0.902897
H117  H     H_    0.165221 0.296130 0.588323 0.241453
H118  H     H_    0.001880 0.235863 0.601209 0.239732
H119  H     H_    0.199726 0.243969 0.648696 0.251514
O34   O     O_3   0.477726 0.604767 0.236285 -0.589569
C96   C     C_3   0.395340 0.640551 0.191059 0.127908
H120  H     H_    0.277902 0.664956 0.211860 0.142110
H121  H     H_    0.329022 0.612338 0.157075 0.156363
C97   C     C_3   0.518284 0.688828 0.162288 -0.289772
H122  H     H_    0.587954 0.716042 0.196403 0.232545
H123  H     H_    0.623181 0.666392 0.134630 0.259196
C98   C     C_3   0.405224 0.730844 0.122865 -0.902862
H124  H     H_    0.334836 0.703940 0.088341 0.241426
H125  H     H_    0.498088 0.764219 0.101281 0.239734
H126  H     H_    0.300204 0.756057 0.148741 0.251522
O35   O     O_3   0.522252 0.104777 0.263716 -0.589571
C99   C     C_3   0.604638 0.140564 0.308940 0.127894
H127  H     H_    0.722019 0.164991 0.288132 0.142098
H128  H     H_    0.671028 0.112349 0.342907 0.156388
C100  C     C_3   0.481670 0.188815 0.337737 -0.289789
H129  H     H_    0.411957 0.216037 0.303637 0.232568
H130  H     H_    0.376811 0.166357 0.365391 0.259231
C101  C     C_3   0.594715 0.230826 0.377169 -0.902915
H131  H     H_    0.665126 0.203916 0.411684 0.241446
H132  H     H_    0.501833 0.264186 0.398765 0.239738
H133  H     H_    0.699713 0.256055 0.351299 0.251523
O36   O     O_3   0.977733 0.895240 0.763696 -0.589573
C102  C     C_3   0.895317 0.859455 0.808915 0.127940
H134  H     H_    0.777962 0.835020 0.788097 0.142085
H135  H     H_    0.828879 0.887672 0.842873 0.156346
C103  C     C_3   0.018280 0.811210 0.837731 -0.289778
H136  H     H_    0.088021 0.783980 0.803640 0.232565
H137  H     H_    0.123117 0.833675 0.865390 0.259223
C104  C     C_3   0.905218 0.769203 0.877161 -0.902874
H138  H     H_    0.834776 0.796118 0.911668 0.241443
H139  H     H_    0.998096 0.735846 0.898769 0.239728
H140  H     H_    0.800241 0.743967 0.851287 0.251512

loop_
_geom_bond_atom_site_label_1
_geom_bond_atom_site_label_2
_ccdc_geom_bond_type
O17   V3    S    
C100  C101  S    
C79   H81   S    
C14   C26   S    
O1    C5    A    
O25   C69   S    
C13   C25   S    
O19   V1    S    
C101  H133  S    
O13   V1    S    
C72   H64   S    
H4    C32   S    
O3    C7    A    
C66   H50   S    
C85   C86   S    
C17   H17   S    
C36   C40   S    
C62   H42   S    
O15   V3    S    
C87   H99   S    
C18   H14   S    
C32   H28   S    
C57   H29   S    
C19   H19   S    
C98   H124  S    
C74   H69   S    
C2    C23   S    
C20   H20   S    
O7    C3    A    
C91   C92   S    
C11   C31   S    
C94   H115  S    
C40   F4    S    
C98   H126  S    
C81   H86   S    
C9    H21   S    
C38   F2    S    
H1    C29   S    
C71   H61   S    
C66   H51   S    
C42   O30   S    
C14   C18   S    
C104  H140  S    
C11   H23   S    
C76   H74   S    
C17   C33   S    
C73   H66   S    
O4    C8    A    
C64   C65   S    
C51   C55   T    
C82   C83   S    
C79   C80   S    
C27   C51   S    
C50   C54   T    
C19   C35   S    
C100  H129  S    
C91   H109  S    
C92   H110  S    
C103  H137  S    
C89   H105  S    
O2    V4    S    
C101  H131  S    
O29   C81   S    
C102  C103  S    
O3    V1    S    
C88   H101  S    
C29   C33   S    
C12   C32   S    
C69   C70   S    
C70   H60   S    
C15   H7    S    
C93   H113  S    
C98   H125  S    
C1    O15   A    
C15   H11   S    
O31   C87   S    
C2    O16   A    
C83   H89   S    
C16   H12   S    
C67   C68   S    
C40   O36   S    
C73   H67   S    
O2    C6    A    
C60   C61   S    
C90   H106  S    
C20   C36   S    
O14   V2    S    
C33   C37   S    
C68   H55   S    
C101  H132  S    
C10   C26   S    
C35   C47   S    
O36   C102  S    
C3    C22   S    
C19   H15   S    
C18   H18   S    
C13   H9    S    
O11   C7    A    
C79   H80   S    
C11   C27   S    
O16   V4    S    
O12   C8    A    
C15   C27   S    
O33   C93   S    
C61   H38   S    
C69   H58   S    
C71   H62   S    
C90   H107  S    
C65   H49   S    
C38   O34   S    
C89   H103  S    
C41   O25   S    
O10   V2    S    
C97   C98   S    
C9    C25   S    
C28   C44   S    
C75   H72   S    
C70   H59   S    
C74   H70   S    
O5    V1    S    
C84   H93   S    
O1    V3    S    
C26   C50   S    
C1    C24   S    
C93   H114  S    
C94   H116  S    
C6    C56   S    
C81   H85   S    
O24   C66   S    
C78   H78   S    
O8    V4    S    
C37   O33   S    
C31   H27   S    
O23   C63   S    
C66   C67   S    
O7    V3    S    
C85   H94   S    
C63   H44   S    
C76   C77   S    
C11   O23   S    
C86   H96   S    
O18   V4    S    
C63   H43   S    
C15   C19   S    
C16   H8    S    
C81   C82   S    
C34   C46   S    
C61   H39   S    
C96   H121  S    
C59   H35   S    
C63   C64   S    
C36   C48   S    
C80   H84   S    
C44   O28   S    
C76   H73   S    
C78   H79   S    
O28   C78   S    
O5    C1    A    
C104  H138  S    
C67   H53   S    
C90   C91   S    
C86   H97   S    
C13   H5    S    
C34   C38   S    
C29   H25   S    
C74   H68   S    
C14   H10   S    
C99   C100  S    
C84   H92   S    
O8    C4    A    
C33   C45   S    
O34   C96   S    
C96   H120  S    
C23   C47   T    
C103  H136  S    
O9    C5    A    
C10   H22   S    
O35   C99   S    
O30   C84   S    
C68   H56   S    
C89   H104  S    
C10   C30   S    
C95   H119  S    
C27   C43   S    
C8    C54   S    
C97   H123  S    
O26   C72   S    
C22   C46   T    
C99   H128  S    
C80   H83   S    
C18   C34   S    
H3    C31   S    
C60   H36   S    
C72   C73   S    
C39   F3    S    
C58   C59   S    
O32   C90   S    
O9    V1    S    
C77   H76   S    
C62   H40   S    
C26   C42   S    
C87   C88   S    
C49   C53   T    
H2    C30   S    
C70   C71   S    
C25   C41   S    
C59   H33   S    
C59   H34   S    
C73   C74   S    
C95   H118  S    
O21   C57   S    
C72   H65   S    
C84   C85   S    
C9    C29   S    
C100  H130  S    
C82   H87   S    
C91   H108  S    
C3    O13   A    
C94   C95   S    
C10   O22   S    
C16   C28   S    
C7    C53   S    
C67   H52   S    
C9    O21   S    
C71   H63   S    
C32   C36   S    
C37   F1    S    
C97   H122  S    
C62   H41   S    
C87   H100  S    
C39   C43   S    
O6    C2    A    
C57   H30   S    
C64   H45   S    
C75   C76   S    
O11   V3    S    
C14   H6    S    
C41   O29   S    
O12   V4    S    
C44   O32   S    
C4    C21   S    
C21   C45   T    
C25   C49   S    
C12   H24   S    
C92   H112  S    
C96   C97   S    
C77   H77   S    
C58   H32   S    
C68   H54   S    
C102  H134  S    
C17   H13   S    
C39   O35   S    
C104  H139  S    
C88   H102  S    
C38   C42   S    
C58   H31   S    
C12   O24   S    
C86   H98   S    
C35   C39   S    
C64   H46   S    
O10   C6    A    
C69   H57   S    
C40   C44   S    
C20   H16   S    
C83   H91   S    
C5    C55   S    
C52   C56   T    
O20   V2    S    
C24   C48   T    
C65   H48   S    
C30   H26   S    
C102  H135  S    
C13   C17   S    
C80   H82   S    
O6    V2    S    
C37   C41   S    
C78   C79   S    
C57   C58   S    
C43   O27   S    
O27   C75   S    
C28   C52   S    
C12   C28   S    
C16   C20   S    
C88   C89   S    
C99   H127  S    
C103  C104  S    
C83   H90   S    
C30   C34   S    
C4    O14   A    
C60   H37   S    
C42   O26   S    
C65   H47   S    
O22   C60   S    
C92   H111  S    
C77   H75   S    
C82   H88   S    
C31   C35   S    
C61   C62   S    
O4    V2    S    
C75   H71   S    
C85   H95   S    
C43   O31   S    
C95   H117  S    
C93   C94   S    
