data_mof_unit_17071.cif
_audit_creation_date              2012-12-10T21:07:41-0500
_audit_creation_method            fapswitch 2.2
_symmetry_space_group_name_H-M    P1
_symmetry_Int_Tables_number       1
_space_group_crystal_system       triclinic
_cell_length_a                    8.579179
_cell_length_b                    17.453058
_cell_length_c                    16.931453
_cell_angle_alpha                 90.39385
_cell_angle_beta                  97.411086
_cell_angle_gamma                 93.023826
_cell_volume                      2510.27744283

loop_
_atom_site_label
_atom_site_type_symbol
_atom_type_description
_atom_site_fract_x
_atom_site_fract_y
_atom_site_fract_z
_atom_type_partial_charge
C1    C     C_R   0.499781 0.352558 0.499511 0.919006
C2    C     C_R   0.494702 0.647274 0.500021 0.920549
C3    C     C_1   0.365978 0.962419 0.480994 0.066534
C4    C     C_1   0.371872 0.030579 0.480957 0.061205
C5    C     C_R   0.369783 0.467802 0.824638 0.088588
C6    C     C_R   0.629826 0.533251 0.175553 0.087216
C7    C     C_R   0.378395 0.462752 0.740920 0.220954
C8    C     C_R   0.620864 0.538082 0.259253 0.225225
C9    C     C_R   0.621332 0.537160 0.757578 0.267697
C10   C     C_R   0.379494 0.462317 0.242373 0.260295
C11   C     C_R   0.629073 0.531853 0.842340 0.096329
C12   C     C_R   0.372008 0.467615 0.157632 0.095200
C13   C     C_R   0.498878 0.500293 0.876215 0.040573
C14   C     C_R   0.501632 0.500022 0.123887 0.038398
C15   C     C_1   0.499970 0.500217 0.963845 -0.000473
C16   C     C_1   0.500784 0.500185 0.036272 0.000153
C17   C     C_R   0.201837 0.497199 0.480297 0.963365
C18   C     C_R   0.798174 0.503063 0.519691 0.965881
C19   C     C_2   0.039046 0.481336 0.474369 -0.006652
C20   C     C_2   0.960996 0.519107 0.525543 -0.003231
C21   C     C_R   0.358264 0.843138 0.553764 0.558951
C22   C     C_R   0.459315 0.147843 0.419754 0.560018
C23   C     C_R   0.407046 0.767654 0.563356 -0.002649
C24   C     C_R   0.507941 0.226024 0.426960 0.001804
C25   C     C_R   0.462905 0.729790 0.497945 -0.252530
C26   C     C_R   0.481268 0.268000 0.496217 -0.258677
C27   C     C_R   0.474064 0.770018 0.426127 0.495210
C28   C     C_R   0.424233 0.228361 0.560365 0.492320
C29   C     C_R   0.436131 0.846430 0.421047 -0.342668
C30   C     C_R   0.380383 0.150685 0.552310 -0.330363
C31   C     C_R   0.378135 0.882006 0.483671 -0.106255
C32   C     C_R   0.397084 0.111288 0.482823 -0.107460
H1    H     H_    0.456840 0.878905 0.368664 0.191928
H2    H     H_    0.335037 0.120835 0.601230 0.192037
N1    N     N_R   0.500040 0.500030 0.707230 -0.123540
N2    N     N_R   0.499960 0.499970 0.292770 -0.123748
O1    O     O_R   0.500000 0.389130 0.566570 -0.581201
O2    O     O_R   0.500000 0.610870 0.433430 -0.583753
O3    O     O_R   0.499990 0.389100 0.433480 -0.631835
O4    O     O_R   0.500010 0.610900 0.566520 -0.636410
O5    O     O_R   0.271750 0.500010 0.550980 -0.629092
O6    O     O_R   0.728250 0.499990 0.449020 -0.626772
O7    O     O_R   0.271740 0.499980 0.417890 -0.628466
O8    O     O_R   0.728260 0.500020 0.582110 -0.625038
Zn1   Zn    Zn3+2 0.500010 0.500020 0.588860 0.922784
Zn2   Zn    Zn3+2 0.499990 0.499980 0.411140 0.921060
C33   C     C_3   0.973340 0.409981 0.426707 -0.947748
H3    H     H_    0.068887 0.375753 0.408936 0.232426
H4    H     H_    0.904943 0.371989 0.463567 0.234443
H5    H     H_    0.898110 0.425745 0.371587 0.269706
C34   C     C_3   0.026804 0.590317 0.573459 -0.961096
H6    H     H_    0.931173 0.625153 0.590121 0.231316
H7    H     H_    0.099301 0.574066 0.629214 0.266811
H8    H     H_    0.098169 0.627974 0.537605 0.237407
O9    O     O_3   0.304403 0.881705 0.615773 -0.607524
C35   C     C_3   0.138503 0.873971 0.605253 -0.338373
H9    H     H_    0.095702 0.812596 0.605348 0.167441
H10   H     H_    0.087807 0.901782 0.549482 0.168482
H11   H     H_    0.094798 0.903249 0.655771 0.200532
O10   O     O_3   0.482365 0.105550 0.353135 -0.606658
C36   C     C_3   0.345323 0.107036 0.297476 -0.340204
H12   H     H_    0.241635 0.079489 0.321517 0.164534
H13   H     H_    0.363942 0.073894 0.243666 0.196877
H14   H     H_    0.320705 0.166656 0.278605 0.167096
C37   C     C_3   0.400508 0.730201 0.643538 -0.784471
H15   H     H_    0.360162 0.768431 0.688431 0.262021
H16   H     H_    0.317389 0.679100 0.637364 0.244745
H17   H     H_    0.519931 0.714075 0.668791 0.241180
C38   C     C_3   0.591037 0.262161 0.361604 -0.790711
H18   H     H_    0.636749 0.218827 0.323562 0.262580
H19   H     H_    0.508808 0.296670 0.322397 0.243974
H20   H     H_    0.694676 0.298630 0.387797 0.235766
O11   O     O_3   0.538732 0.737283 0.363908 -0.598066
C39   C     C_3   0.420653 0.725101 0.298151 -0.267620
H21   H     H_    0.384549 0.780248 0.270964 0.148331
H22   H     H_    0.316352 0.691249 0.314843 0.163694
H23   H     H_    0.469137 0.691520 0.252006 0.186855
O12   O     O_3   0.400187 0.266040 0.629398 -0.608770
C40   C     C_3   0.528717 0.254586 0.688169 -0.280545
H24   H     H_    0.642149 0.275447 0.668339 0.165265
H25   H     H_    0.533376 0.193203 0.705163 0.157117
H26   H     H_    0.513398 0.288222 0.742213 0.187449
C41   C     C_3   0.223339 0.436608 0.858010 -0.908414
H27   H     H_    0.218850 0.455154 0.920246 0.247021
H28   H     H_    0.116376 0.457819 0.822756 0.244273
H29   H     H_    0.217655 0.372945 0.856283 0.243142
C42   C     C_3   0.775592 0.565451 0.142278 -0.907809
H30   H     H_    0.780898 0.546913 0.080107 0.247066
H31   H     H_    0.779305 0.629098 0.143833 0.242430
H32   H     H_    0.883160 0.545064 0.177717 0.244292
C43   C     C_3   0.250084 0.415155 0.690702 -0.731350
H33   H     H_    0.223992 0.360504 0.720623 0.226438
H34   H     H_    0.141038 0.447052 0.680410 0.210042
H35   H     H_    0.283647 0.396781 0.633863 0.304737
C44   C     C_3   0.747820 0.586505 0.309637 -0.750674
H36   H     H_    0.857486 0.555107 0.320460 0.214586
H37   H     H_    0.773197 0.641124 0.279502 0.218692
H38   H     H_    0.713584 0.605210 0.366242 0.296405
C45   C     C_3   0.746206 0.586692 0.724725 -0.841474
H39   H     H_    0.708560 0.606471 0.664637 0.275101
H40   H     H_    0.855661 0.555300 0.725588 0.236060
H41   H     H_    0.771507 0.640663 0.760247 0.211169
C46   C     C_3   0.255102 0.412395 0.275161 -0.844366
H42   H     H_    0.144701 0.443161 0.273458 0.236082
H43   H     H_    0.231851 0.358035 0.240142 0.208590
H44   H     H_    0.291966 0.393365 0.335582 0.277309
C47   C     C_3   0.774435 0.560004 0.897909 -0.912729
H45   H     H_    0.878305 0.574824 0.867364 0.248330
H46   H     H_    0.747489 0.611043 0.932180 0.247552
H47   H     H_    0.811001 0.513858 0.940055 0.239559
C48   C     C_3   0.227512 0.438632 0.101912 -0.913663
H48   H     H_    0.124067 0.422553 0.132298 0.248573
H49   H     H_    0.189301 0.484783 0.060114 0.239456
H50   H     H_    0.256298 0.388192 0.067283 0.246850

loop_
_geom_bond_atom_site_label_1
_geom_bond_atom_site_label_2
_ccdc_geom_bond_type
O9    C35   S    
C27   C29   A    
C44   H36   S    
O11   C39   S    
C48   H48   S    
C42   H30   S    
C44   H38   S    
C21   O9    S    
C33   H4    S    
C21   C31   A    
C39   H22   S    
C22   C24   A    
C10   C46   S    
C24   C26   A    
C20   C34   S    
C18   O6    A    
C22   O10   S    
C5    C41   S    
C19   C33   S    
C43   H34   S    
C15   C16   T    
C29   H1    S    
C35   H9    S    
C38   H19   S    
O6    Zn2   S    
C36   H13   S    
C19   C20   D    
C37   H16   S    
C39   H23   S    
C47   H45   S    
N2    Zn2   S    
C2    C25   S    
C28   O12   S    
C5    C13   A    
C1    O1    A    
C9    C45   S    
C47   H46   S    
C38   H18   S    
C8    C44   S    
C10   C12   A    
C24   C38   S    
C33   H5    S    
O4    Zn1   S    
C39   H21   S    
C30   H2    S    
C34   H6    S    
C33   H3    S    
C48   H49   S    
C43   H33   S    
C5    C7    A    
O12   C40   S    
C6    C8    A    
C6    C42   S    
O10   C36   S    
C34   H7    S    
C46   H44   S    
C36   H14   S    
C17   O7    A    
C18   O8    A    
C6    C14   A    
C2    O2    A    
C41   H27   S    
C37   H17   S    
C7    C43   S    
C41   H29   S    
C46   H43   S    
C3    C31   S    
C9    C11   A    
C4    C32   S    
C22   C32   A    
O3    Zn2   S    
C45   H40   S    
C12   C14   A    
C13   C15   S    
C11   C47   S    
C1    C26   S    
C47   H47   S    
C14   C16   S    
O1    Zn1   S    
C3    C4    T    
N1    Zn1   S    
C38   H20   S    
O8    Zn1   S    
C40   H25   S    
C41   H28   S    
C7    N1    A    
C40   H26   S    
C44   H37   S    
C8    N2    A    
C25   C27   A    
C26   C28   A    
C35   H11   S    
C34   H8    S    
C23   C37   S    
C21   C23   A    
C29   C31   A    
C45   H39   S    
C43   H35   S    
C30   C32   A    
C11   C13   A    
C28   C30   A    
C17   C19   S    
C35   H10   S    
C48   H50   S    
C18   C20   S    
C23   C25   A    
C36   H12   S    
O7    Zn2   S    
C17   O5    A    
O2    Zn2   S    
C1    O3    A    
C40   H24   S    
C2    O4    A    
C45   H41   S    
C37   H15   S    
C42   H32   S    
C46   H42   S    
C9    N1    A    
C42   H31   S    
O5    Zn1   S    
C10   N2    A    
C27   O11   S    
C12   C48   S    
