data_mof_unit_19212.cif
_audit_creation_date              2012-12-10T16:46:43-0500
_audit_creation_method            fapswitch 2.2
_symmetry_space_group_name_H-M    P1
_symmetry_Int_Tables_number       1
_space_group_crystal_system       triclinic
_cell_length_a                    15.867065
_cell_length_b                    8.671231
_cell_length_c                    7.573428
_cell_angle_alpha                 103.354449
_cell_angle_beta                  94.397692
_cell_angle_gamma                 92.784987
_cell_volume                      1008.48079603

loop_
_atom_site_label
_atom_site_type_symbol
_atom_type_description
_atom_site_fract_x
_atom_site_fract_y
_atom_site_fract_z
_atom_type_partial_charge
C1    C     C_R   0.497355 0.200076 0.453174 0.861124
C2    C     C_3   0.956256 0.496943 0.706226 -0.104973
C3    C     C_3   0.916832 0.500125 0.507158 0.128792
C4    C     C_3   0.951311 0.648459 0.446084 -0.420422
C5    C     C_3   0.049468 0.665521 0.472072 -0.167292
C6    C     C_1   0.824088 0.499204 0.496781 -0.007481
C7    C     C_1   0.176434 0.505798 0.510544 0.027460
C8    C     C_1   0.251679 0.502694 0.507302 -0.001151
C9    C     C_2   0.495958 0.031460 0.427717 -0.336599
C10   C     C_2   0.503810 0.968515 0.572289 -0.345817
C11   C     C_R   0.340809 0.499967 0.502043 0.806907
C12   C     C_R   0.502540 0.799915 0.546823 0.872016
C13   C     C_R   0.659223 0.500192 0.498058 0.810067
C14   C     C_3   0.057880 0.500701 0.705411 -0.276688
C15   C     C_3   0.041022 0.351903 0.379062 -0.287709
C16   C     C_3   0.943042 0.353589 0.366832 -0.453628
C17   C     C_1   0.748541 0.499458 0.494372 -0.088940
C18   C     C_3   0.083896 0.507991 0.511987 0.017874
Cu1   Cu    Cu3+1 0.509300 0.517380 0.684380 0.983167
Cu2   Cu    Cu3+1 0.490700 0.482620 0.315620 0.999120
H1    H     H_    0.928303 0.635166 0.301509 0.219197
H2    H     H_    0.488498 0.958878 0.288964 0.184004
H3    H     H_    0.511341 0.041054 0.711037 0.172549
H4    H     H_    0.571891 0.611261 0.046646 0.228275
H5    H     H_    0.080872 0.387811 0.729078 0.259653
H6    H     H_    0.056684 0.251038 0.441543 0.188513
H7    H     H_    0.915228 0.241356 0.392372 0.198390
H8    H     H_    0.915947 0.355144 0.227401 0.203463
H9    H     H_    0.065784 0.762460 0.595460 0.145454
H10   H     H_    0.924730 0.759149 0.518838 0.209743
N1    N     N_2   0.476670 0.456430 0.038530 -0.198769
N2    N     N_2   0.523330 0.543570 0.961470 -0.241737
O1    O     O_R   0.506050 0.286130 0.619770 -0.608567
O2    O     O_R   0.490330 0.256780 0.308370 -0.596407
O3    O     O_R   0.387300 0.514690 0.655770 -0.592584
O4    O     O_R   0.371580 0.485340 0.344370 -0.526431
O5    O     O_R   0.509670 0.743220 0.691630 -0.583660
O6    O     O_R   0.493950 0.713870 0.380230 -0.581690
O7    O     O_R   0.628420 0.514660 0.655630 -0.555867
O8    O     O_R   0.612700 0.485310 0.344230 -0.594160
C19   C     C_2   0.921167 0.340848 0.749332 0.841195
O9    O     O_2   0.846657 0.324942 0.777626 -0.558687
O10   O     O_R   0.971242 0.211515 0.744179 -0.746271
H11   H     H_    0.939539 0.116522 0.771407 0.361407
C20   C     C_2   0.109200 0.626049 0.854855 0.433771
H12   H     H_    0.096858 0.750421 0.880781 0.149099
O11   O     O_2   0.169369 0.588727 0.942774 -0.463318
C21   C     C_2   0.926896 0.639021 0.846129 0.833353
O12   O     O_2   0.946807 0.775366 0.839368 -0.611986
O13   O     O_R   0.873907 0.614773 0.977997 -0.745658
H13   H     H_    0.855732 0.717875 0.054326 0.339356
C22   C     C_2   0.403569 0.371045 0.936847 0.755152
H14   H     H_    0.408562 0.266233 0.830000 -0.010108
O14   O     O_2   0.333310 0.410415 0.975813 -0.498762
C23   C     C_2   0.075127 0.310022 0.193981 0.974261
O15   O     O_2   0.120294 0.198912 0.157940 -0.523963
O16   O     O_R   0.056420 0.394305 0.062707 -0.696541
H15   H     H_    0.014420 0.476771 0.098844 0.301069
C24   C     C_2   0.090004 0.734007 0.328978 0.886205
O17   O     O_2   0.046043 0.777756 0.212555 -0.595604
O18   O     O_R   0.177864 0.765145 0.343399 -0.735973
H16   H     H_    0.197140 0.821363 0.248593 0.366807

loop_
_geom_bond_atom_site_label_1
_geom_bond_atom_site_label_2
_ccdc_geom_bond_type
C16   H8    S    
C15   C18   S    
C23   O15   D    
H4    N2    S    
C10   H3    S    
Cu2   O6    S    
C19   O9    D    
C14   C18   S    
Cu1   Cu2   S    
C13   C17   S    
N1    C22   S    
O10   H11   S    
C3    C6    S    
Cu2   O2    S    
C7    C18   S    
C16   H7    S    
C11   O3    A    
C2    C3    S    
C1    O1    A    
C7    C8    T    
Cu1   O3    S    
C20   H12   S    
C4    H1    S    
C19   O10   S    
O16   H15   S    
C10   C12   S    
C8    C11   S    
C2    C14   S    
Cu1   N2    S    
Cu1   O7    S    
C21   O13   S    
C21   O12   D    
C22   O14   D    
C1    O2    A    
O13   H13   S    
C14   C20   S    
C5    H9    S    
C23   O16   S    
C14   H5    S    
C12   O6    A    
O18   H16   S    
Cu2   O8    S    
C9    H2    S    
C24   O18   S    
C13   O7    A    
C15   C16   S    
C5    C24   S    
C2    C19   S    
C3    C4    S    
Cu2   O4    S    
C24   O17   D    
C1    C9    S    
C22   H14   S    
C9    C10   D    
C20   O11   D    
C12   O5    A    
C6    C17   T    
C11   O4    A    
C15   H6    S    
C5    C18   S    
Cu1   O5    S    
C2    C21   S    
C4    H10   S    
C3    C16   S    
N1    N2    D    
Cu1   O1    S    
C4    C5    S    
C13   O8    A    
Cu2   N1    S    
C15   C23   S    
