data_mof_unit_38981.cif
_audit_creation_date              2012-10-26T20:03:01-0400
_audit_creation_method            fapswitch 2.2
_symmetry_space_group_name_H-M    P1
_symmetry_Int_Tables_number       1
_space_group_crystal_system       triclinic
_cell_length_a                    10.711078
_cell_length_b                    12.436989
_cell_length_c                    13.145133
_cell_angle_alpha                 116.816794
_cell_angle_beta                  75.503721
_cell_angle_gamma                 100.181425
_cell_volume                      1508.89623987

loop_
_atom_site_label
_atom_site_type_symbol
_atom_type_description
_atom_site_fract_x
_atom_site_fract_y
_atom_site_fract_z
_atom_type_partial_charge
C1    C     C_R   0.511312 0.854975 0.286071 0.521354
C2    C     C_R   0.497288 0.564223 0.009160 0.027749
C3    C     C_R   0.458506 0.650743 0.125389 0.019342
C4    C     C_R   0.739597 0.998804 0.499575 0.535679
C5    C     C_R   0.456125 0.440193 0.978820 0.025944
C6    C     C_R   0.366252 0.405879 0.060450 0.051097
C7    C     C_R   0.317547 0.493984 0.169707 -0.145778
C8    C     C_R   0.361653 0.614579 0.201312 -0.127899
C9    C     C_R   0.502308 0.348823 0.869581 -0.142479
C10   C     C_R   0.365948 0.195685 0.919218 -0.143004
C11   C     C_R   0.516976 0.771115 0.161488 -0.013400
C12   C     C_3   0.121649 0.998107 0.500540 0.053736
C13   C     C_R   0.726858 0.354595 0.342321 -0.147678
C14   C     C_R   0.340777 0.774501 0.662647 0.070587
C15   C     C_R   0.343031 0.709118 0.725606 -0.010790
C16   C     C_R   0.480376 0.144786 0.714029 0.536747
C17   C     C_R   0.426510 0.616002 0.675647 -0.129515
C18   C     C_R   0.491626 0.575565 0.559300 -0.022678
C19   C     C_R   0.504060 0.658368 0.510094 0.146036
C20   C     C_R   0.554863 0.463538 0.494765 -0.013643
C21   C     C_R   0.658143 0.457697 0.401475 0.003927
C22   C     C_R   0.683819 0.549489 0.360977 -0.024216
C23   C     C_3   0.061793 0.110362 0.605454 -0.243255
C24   C     C_R   0.604746 0.646397 0.415487 -0.078242
C25   C     C_R   0.511000 0.352834 0.509596 0.149875
C26   C     C_R   0.675023 0.246756 0.349165 0.163379
C27   C     C_R   0.260292 0.000206 0.500430 0.535898
C28   C     C_3   0.963486 0.997566 0.386622 -0.243419
C29   C     C_3   0.106821 0.995674 0.385548 -0.228629
C30   C     C_3   0.918242 0.111266 0.604482 -0.229340
C31   C     C_3   0.901154 0.883989 0.511991 -0.231871
C32   C     C_3   0.877389 0.997417 0.500512 0.049832
C33   C     C_3   0.701150 0.137505 0.234171 -0.227253
C34   C     C_3   0.044590 0.883619 0.510823 -0.226448
C35   C     C_3   0.812350 0.068595 0.221635 -0.427632
C36   C     C_3   0.788022 0.537253 0.252846 -0.288923
C37   C     C_3   0.789504 0.625243 0.200146 -0.450560
C38   C     C_3   0.378562 0.347268 0.585366 -0.218279
C39   C     C_3   0.269275 0.355732 0.533491 -0.446078
C40   C     C_3   0.266751 0.738950 0.847923 -0.288347
C41   C     C_3   0.164747 0.829845 0.891598 -0.460781
C42   C     C_R   0.323571 0.283798 0.030652 -0.136032
C43   C     C_R   0.453342 0.228642 0.837523 -0.007475
C44   C     C_R   0.594594 0.806512 0.077146 -0.148601
C45   C     C_R   0.619610 0.725534 0.961131 -0.149641
C46   C     C_R   0.574161 0.605347 0.927234 -0.132491
Cu1   Cu    Cu3+1 0.529690 0.098270 0.475420 0.894397
Cu2   Cu    Cu3+1 0.470310 0.901730 0.524580 0.886853
H1    H     H_    0.934607 0.918424 0.309776 0.094613
H2    H     H_    0.951768 0.081126 0.380439 0.127396
H3    H     H_    0.315581 0.679062 0.284852 0.148599
H4    H     H_    0.811555 0.350415 0.275729 0.089528
H5    H     H_    0.284006 0.851836 0.700577 0.129595
H6    H     H_    0.448206 0.583254 0.731953 0.105646
H7    H     H_    0.146444 0.912878 0.310681 0.108687
H8    H     H_    0.162234 0.074451 0.372766 0.123469
H9    H     H_    0.903736 0.194487 0.598405 0.128144
H10   H     H_    0.115031 0.193822 0.602965 0.117692
H11   H     H_    0.842310 0.883203 0.594552 0.133098
H12   H     H_    0.053518 0.880825 0.592204 0.123338
H13   H     H_    0.070068 0.110009 0.688050 0.104746
H14   H     H_    0.598571 0.547785 0.835718 0.097185
H15   H     H_    0.895545 0.132663 0.252550 0.128108
H16   H     H_    0.781115 0.011517 0.269086 0.187723
H17   H     H_    0.845148 0.007930 0.128639 0.108412
H18   H     H_    0.610432 0.082553 0.215628 0.166978
H19   H     H_    0.728024 0.165506 0.161555 0.094643
H20   H     H_    0.694312 0.618646 0.177791 0.172284
H21   H     H_    0.814408 0.719433 0.260037 0.128839
H22   H     H_    0.863857 0.601295 0.118970 0.139096
H23   H     H_    0.857233 0.113849 0.687561 0.110570
H24   H     H_    0.884671 0.545482 0.273583 0.137229
H25   H     H_    0.773201 0.446039 0.182115 0.149283
H26   H     H_    0.289051 0.429941 0.505784 0.158074
H27   H     H_    0.255638 0.270268 0.456286 0.150858
H28   H     H_    0.178133 0.373456 0.599237 0.119918
H29   H     H_    0.357349 0.268707 0.602776 0.209178
H30   H     H_    0.370980 0.412714 0.676048 0.090813
H31   H     H_    0.211439 0.920218 0.901871 0.134919
H32   H     H_    0.096703 0.798905 0.830742 0.141821
H33   H     H_    0.108623 0.838238 0.977925 0.139061
H34   H     H_    0.326600 0.103146 0.895544 0.113199
H35   H     H_    0.216263 0.653889 0.850834 0.146275
H36   H     H_    0.335294 0.773802 0.908816 0.156207
H37   H     H_    0.627163 0.715037 0.385977 0.193389
H38   H     H_    0.871458 0.800179 0.439643 0.124091
H39   H     H_    0.084163 0.800377 0.436530 0.119650
H40   H     H_    0.244819 0.469614 0.231239 0.099433
H41   H     H_    0.254354 0.257055 0.092430 0.098925
H42   H     H_    0.575783 0.368637 0.806370 0.119153
H43   H     H_    0.639954 0.895937 0.100109 0.119237
H44   H     H_    0.678709 0.755314 0.897325 0.114543
N1    N     N_R   0.574690 0.246280 0.438200 -0.220487
N2    N     N_R   0.426100 0.754320 0.561190 -0.255337
O1    O     O_R   0.537340 0.972510 0.318130 -0.508159
O2    O     O_R   0.487200 0.806530 0.359650 -0.525659
O3    O     O_R   0.707380 0.082980 0.479220 -0.498878
O4    O     O_R   0.657240 0.917000 0.520740 -0.519528
O5    O     O_R   0.512800 0.193470 0.640350 -0.521873
O6    O     O_R   0.462660 0.027490 0.681870 -0.500280
O7    O     O_R   0.342760 0.083000 0.479260 -0.523890
O8    O     O_R   0.292620 0.917020 0.520780 -0.517606

loop_
_geom_bond_atom_site_label_1
_geom_bond_atom_site_label_2
_ccdc_geom_bond_type
C23   H10   S    
C30   H9    S    
C25   N1    A    
Cu1   O7    S    
C4    O4    A    
C12   C29   S    
C10   C42   A    
C40   H36   S    
C1    C11   S    
C41   H32   S    
C30   H23   S    
C7    C8    A    
C45   C46   A    
C2    C46   A    
C12   C23   S    
Cu2   N2    S    
C46   H14   S    
C36   C37   S    
C37   H21   S    
C38   C39   S    
C20   C25   A    
C35   H17   S    
C37   H20   S    
Cu1   O5    S    
C18   C19   A    
C39   H26   S    
C31   H11   S    
C45   H44   S    
C28   H2    S    
C31   C32   S    
Cu1   Cu2   S    
C35   H16   S    
C39   H27   S    
C24   H37   S    
C26   N1    A    
Cu2   O8    S    
C31   H38   S    
C21   C22   A    
C34   H12   S    
C40   H35   S    
C33   H18   S    
Cu2   O6    S    
C9    C43   A    
C12   C27   S    
C23   C30   S    
C28   C32   S    
C3    C8    A    
C16   O6    A    
C29   H7    S    
C27   O7    A    
C5    C9    A    
C4    O3    A    
C25   C38   S    
C13   H4    S    
C28   H1    S    
C26   C33   S    
C7    H40   S    
C8    H3    S    
C1    O1    A    
C41   H33   S    
C17   C18   A    
Cu1   N1    S    
C31   C34   S    
C13   C21   A    
C11   C44   A    
C39   H28   S    
C19   N2    A    
C16   C43   S    
C4    C32   S    
C44   H43   S    
C40   C41   S    
C38   H29   S    
C22   C24   A    
C13   C26   A    
C2    C5    A    
C12   C34   S    
C22   C36   S    
C44   C45   A    
C33   H19   S    
C15   C17   A    
C28   C29   S    
Cu2   O2    S    
C10   C43   A    
C9    H42   S    
C41   H31   S    
C16   O5    A    
C6    C7    A    
C29   H8    S    
Cu2   O4    S    
C27   O8    A    
C38   H30   S    
Cu1   O3    S    
C42   H41   S    
C2    C3    A    
C30   C32   S    
C5    C6    A    
C1    O2    A    
C33   C35   S    
C10   H34   S    
C19   C24   A    
C18   C20   A    
C34   H39   S    
C15   C40   S    
C3    C11   A    
C36   H25   S    
C23   H13   S    
C14   H5    S    
C20   C21   A    
C6    C42   A    
Cu1   O1    S    
C14   C15   A    
C35   H15   S    
C37   H22   S    
C17   H6    S    
C14   N2    A    
C36   H24   S    
