data_mof_unit_49923.cif
_audit_creation_date              2012-12-10T18:04:29-0500
_audit_creation_method            fapswitch 2.2
_symmetry_space_group_name_H-M    P1
_symmetry_Int_Tables_number       1
_space_group_crystal_system       triclinic
_cell_length_a                    31.481057
_cell_length_b                    18.314857
_cell_length_c                    25.704484
_cell_angle_alpha                 90.125103
_cell_angle_beta                  144.396707
_cell_angle_gamma                 89.954082
_cell_volume                      8627.99101021

loop_
_atom_site_label
_atom_site_type_symbol
_atom_type_description
_atom_site_fract_x
_atom_site_fract_y
_atom_site_fract_z
_atom_type_partial_charge
C1    C     C_R   0.859269 0.639425 0.108974 0.972418
C2    C     C_R   0.195110 0.302713 0.445208 -0.337927
C3    C     C_R   0.276434 0.777504 0.574051 0.403971
C4    C     C_3   0.162907 0.601284 0.162785 -0.152496
C5    C     C_3   0.837093 0.398716 0.837215 -0.152500
C6    C     C_3   0.974918 0.689882 0.978134 -0.253823
C7    C     C_3   0.025080 0.310117 0.021864 -0.253847
C8    C     C_3   0.662906 0.101286 0.162784 -0.152495
C9    C     C_3   0.337094 0.898714 0.837216 -0.152492
C10   C     C_3   0.474917 0.189882 0.978134 -0.253853
C11   C     C_3   0.525083 0.810118 0.021867 -0.253840
C12   C     C_3   0.850064 0.740687 0.717812 -0.114127
C13   C     C_R   0.195172 0.697162 0.445280 -0.339572
C14   C     C_3   0.149972 0.259354 0.282205 -0.114131
C15   C     C_3   0.150519 0.739556 0.282607 -0.138894
C16   C     C_3   0.849478 0.260450 0.717391 -0.138892
C17   C     C_3   0.350031 0.240648 0.717796 -0.114132
C18   C     C_3   0.649945 0.759324 0.282189 -0.114131
C19   C     C_3   0.650521 0.239550 0.282608 -0.138894
C20   C     C_3   0.349480 0.760445 0.717393 -0.138895
C21   C     C_3   0.731906 0.626306 0.086218 -0.088498
C22   C     C_3   0.268094 0.373690 0.913778 -0.088514
C23   C     C_3   0.246810 0.643626 0.881341 -0.145368
C24   C     C_R   0.804828 0.302838 0.554720 -0.339573
C25   C     C_3   0.753191 0.356373 0.118661 -0.145365
C26   C     C_3   0.231910 0.126308 0.086224 -0.088491
C27   C     C_3   0.768094 0.873692 0.913780 -0.088505
C28   C     C_3   0.746810 0.143626 0.881341 -0.145366
C29   C     C_3   0.253191 0.856374 0.118660 -0.145366
C30   C     C_R   0.304890 0.197287 0.554792 -0.337929
C31   C     C_R   0.695110 0.802713 0.445208 -0.337938
C32   C     C_R   0.695172 0.197162 0.445280 -0.339574
C33   C     C_R   0.304828 0.802838 0.554720 -0.339571
C34   C     C_R   0.766983 0.713618 0.063587 0.412392
C35   C     C_R   0.233017 0.286382 0.936414 0.412385
C36   C     C_R   0.225290 0.720862 0.927709 0.409129
C37   C     C_R   0.140731 0.360575 0.891026 0.972417
C38   C     C_R   0.774711 0.279137 0.072291 0.409130
C39   C     C_R   0.266985 0.213619 0.063589 0.412393
C40   C     C_R   0.733017 0.786382 0.936414 0.412387
C41   C     C_R   0.725290 0.220863 0.927709 0.409130
C42   C     C_R   0.274711 0.779137 0.072291 0.409128
C43   C     C_R   0.217270 0.271264 0.014639 0.246704
C44   C     C_R   0.782731 0.728737 0.985362 0.246703
C45   C     C_R   0.776224 0.277725 0.978562 0.249999
C46   C     C_R   0.223776 0.722275 0.021438 0.250000
C47   C     C_R   0.717269 0.771263 0.014638 0.246703
C48   C     C_R   0.140421 0.639718 0.890508 0.971996
C49   C     C_R   0.282731 0.228736 0.985362 0.246700
C50   C     C_R   0.276224 0.777725 0.978562 0.249998
C51   C     C_R   0.723776 0.222275 0.021438 0.250000
C52   C     C_R   0.197973 0.305524 0.948466 -0.353837
C53   C     C_R   0.802028 0.694476 0.051534 -0.353841
C54   C     C_R   0.802663 0.304927 0.052500 -0.341166
C55   C     C_R   0.197337 0.695073 0.947500 -0.341167
C56   C     C_R   0.697973 0.805524 0.948466 -0.353838
C57   C     C_R   0.302028 0.194477 0.051535 -0.353840
C58   C     C_R   0.302663 0.804927 0.052500 -0.341166
C59   C     C_R   0.859579 0.360282 0.109492 0.972002
C60   C     C_R   0.697337 0.195073 0.947500 -0.341167
C61   C     C_R   0.047351 0.454646 0.519332 -0.242259
C62   C     C_R   0.952649 0.545354 0.480668 -0.242259
C63   C     C_R   0.547350 0.954645 0.519331 -0.242259
C64   C     C_R   0.452650 0.045355 0.480669 -0.242259
C65   C     C_R   0.047995 0.452361 0.573565 0.396357
C66   C     C_R   0.952005 0.547639 0.426434 0.396355
C67   C     C_R   0.547994 0.952360 0.573565 0.396355
C68   C     C_R   0.452006 0.047640 0.426436 0.396355
C69   C     C_R   0.000552 0.498343 0.553929 -0.159287
C70   C     C_R   0.359269 0.139425 0.108974 0.972422
C71   C     C_R   0.999448 0.501657 0.446070 -0.159288
C72   C     C_R   0.500552 0.998343 0.553930 -0.159288
C73   C     C_R   0.499448 0.001657 0.446070 -0.159287
C74   C     C_R   0.139720 0.359670 0.389798 0.968324
C75   C     C_R   0.860280 0.640331 0.610202 0.968307
C76   C     C_R   0.860277 0.359759 0.610190 0.976158
C77   C     C_R   0.139723 0.640241 0.389809 0.976156
C78   C     C_R   0.639720 0.859669 0.389798 0.968306
C79   C     C_R   0.360280 0.140330 0.610202 0.968325
C80   C     C_R   0.360276 0.859759 0.610190 0.976156
C81   C     C_R   0.640731 0.860575 0.891026 0.972416
C82   C     C_R   0.639723 0.140241 0.389810 0.976157
C83   C     C_R   0.999762 0.501211 0.390970 0.912346
C84   C     C_R   0.000238 0.498789 0.609030 0.912345
C85   C     C_R   0.499762 0.001211 0.390970 0.912344
C86   C     C_R   0.500238 0.998789 0.609030 0.912348
C87   C     C_R   0.000024 0.499825 0.108463 0.931805
C88   C     C_R   0.999976 0.500175 0.891537 0.931808
C89   C     C_R   0.500023 0.999825 0.108463 0.931808
C90   C     C_R   0.499976 0.000175 0.891537 0.931805
C91   C     C_3   0.056874 0.538068 0.073904 0.444016
C92   C     C_R   0.640421 0.139718 0.890508 0.972000
C93   C     C_3   0.943126 0.461932 0.926096 0.444021
C94   C     C_3   0.994814 0.568731 0.978691 0.493595
C95   C     C_3   0.005186 0.431268 0.021309 0.493590
C96   C     C_3   0.556874 0.038068 0.073904 0.444021
C97   C     C_3   0.443126 0.961932 0.926095 0.444019
C98   C     C_3   0.494814 0.068732 0.978691 0.493591
C99   C     C_3   0.505186 0.931268 0.021309 0.493593
C100  C     C_3   0.063692 0.469442 0.045770 -0.478966
C101  C     C_3   0.936308 0.530559 0.954230 -0.478956
C102  C     C_3   0.563692 0.969441 0.045770 -0.478958
C103  C     C_R   0.359579 0.860282 0.109492 0.971999
C104  C     C_3   0.436308 0.030559 0.954230 -0.478963
C105  C     C_3   0.000474 0.500592 0.949207 -0.215513
C106  C     C_3   0.999526 0.499408 0.050793 -0.215516
C107  C     C_3   0.500474 0.000592 0.949207 -0.215518
C108  C     C_3   0.499526 0.999408 0.050793 -0.215514
C109  C     C_R   0.219963 0.274162 0.517515 0.248746
C110  C     C_R   0.780027 0.725828 0.482473 0.248747
C111  C     C_R   0.780259 0.273710 0.482705 0.245972
C112  C     C_R   0.219742 0.726289 0.517296 0.245969
C113  C     C_R   0.719974 0.774173 0.517527 0.248746
C114  C     C_R   0.804891 0.697287 0.554792 -0.337943
C115  C     C_R   0.280038 0.225838 0.482485 0.248746
C116  C     C_R   0.280258 0.773711 0.482704 0.245968
C117  C     C_R   0.719741 0.226290 0.517294 0.245971
C118  C     C_R   0.776670 0.723086 0.574283 0.402046
C119  C     C_R   0.223342 0.276926 0.425728 0.402040
C120  C     C_R   0.223566 0.722495 0.425949 0.403971
C121  C     C_R   0.776432 0.277507 0.574049 0.403971
C122  C     C_R   0.276658 0.223074 0.574272 0.402043
C123  C     C_R   0.723331 0.776915 0.425718 0.402042
C124  C     C_R   0.723568 0.222493 0.425951 0.403971
Cl1   Cl    Cl    0.176270 0.296902 0.533271 -0.542495
Cl2   Cl    Cl    0.814735 0.696193 0.956406 -0.571217
Cl3   Cl    Cl    0.801218 0.318642 0.943683 -0.595142
Cl4   Cl    Cl    0.198781 0.681358 0.056316 -0.595147
Cl5   Cl    Cl    0.685264 0.803806 0.043593 -0.571221
Cl6   Cl    Cl    0.314733 0.196191 0.956404 -0.571219
Cl7   Cl    Cl    0.301218 0.818642 0.943684 -0.595144
Cl8   Cl    Cl    0.698782 0.181358 0.056316 -0.595143
Cl9   Cl    Cl    0.105518 0.388489 0.661486 -0.518234
Cl10  Cl    Cl    0.894482 0.611511 0.338514 -0.518225
Cl11  Cl    Cl    0.605516 0.888487 0.661484 -0.518224
Cl12  Cl    Cl    0.823708 0.703078 0.466704 -0.542488
Cl13  Cl    Cl    0.394485 0.111513 0.338516 -0.518231
Cl14  Cl    Cl    0.824340 0.295841 0.467415 -0.536004
Cl15  Cl    Cl    0.175661 0.704158 0.532587 -0.536004
Cl16  Cl    Cl    0.676297 0.796926 0.533301 -0.542486
Cl17  Cl    Cl    0.323731 0.203099 0.466731 -0.542494
Cl18  Cl    Cl    0.324339 0.795842 0.467414 -0.536003
Cl19  Cl    Cl    0.675660 0.204159 0.532585 -0.536004
Cl20  Cl    Cl    0.185265 0.303807 0.043594 -0.571228
H1    H     H_    0.114761 0.445170 0.081183 0.209254
H2    H     H_    0.191160 0.553813 0.173024 0.181310
H3    H     H_    0.205254 0.636617 0.222879 0.211858
H4    H     H_    0.808841 0.446186 0.826978 0.181312
H5    H     H_    0.865101 0.365875 0.895429 0.209472
H6    H     H_    0.794746 0.363383 0.777121 0.211858
H7    H     H_    0.013511 0.685532 0.049812 0.184566
H8    H     H_    0.917790 0.682552 0.934791 0.200269
H9    H     H_    0.979684 0.746000 0.967095 0.177182
H10   H     H_    0.082206 0.317450 0.065201 0.200259
H11   H     H_    0.986483 0.314465 0.950184 0.184569
H12   H     H_    0.885239 0.554830 0.918817 0.209255
H13   H     H_    0.020318 0.253999 0.032908 0.177190
H14   H     H_    0.634898 0.134130 0.104572 0.209473
H15   H     H_    0.691157 0.053816 0.173017 0.181310
H16   H     H_    0.705255 0.136616 0.222881 0.211859
H17   H     H_    0.308844 0.946183 0.826984 0.181309
H18   H     H_    0.365102 0.865869 0.895428 0.209472
H19   H     H_    0.294744 0.863384 0.777119 0.211858
H20   H     H_    0.513508 0.185530 0.049810 0.184571
H21   H     H_    0.417789 0.182553 0.934788 0.200262
H22   H     H_    0.479687 0.246001 0.967098 0.177191
H23   H     H_    0.614761 0.945169 0.081183 0.209255
H24   H     H_    0.582213 0.817446 0.065215 0.200268
H25   H     H_    0.486495 0.814471 0.950191 0.184569
H26   H     H_    0.520312 0.753999 0.032900 0.177185
H27   H     H_    0.894587 0.757609 0.735251 0.143370
H28   H     H_    0.875757 0.711935 0.776606 0.208467
H29   H     H_    0.822390 0.789869 0.705998 0.182850
H30   H     H_    0.124293 0.288121 0.223427 0.208468
H31   H     H_    0.105436 0.242426 0.264741 0.143384
H32   H     H_    0.177649 0.210177 0.294017 0.182861
H33   H     H_    0.106168 0.757099 0.265291 0.143457
H34   H     H_    0.385239 0.054831 0.918817 0.209255
H35   H     H_    0.124519 0.710470 0.223670 0.196286
H36   H     H_    0.178569 0.788350 0.294539 0.181723
H37   H     H_    0.875490 0.289543 0.776332 0.196291
H38   H     H_    0.893821 0.242892 0.734696 0.143442
H39   H     H_    0.821426 0.211665 0.705468 0.181736
H40   H     H_    0.394563 0.257580 0.735253 0.143378
H41   H     H_    0.375716 0.211880 0.776578 0.208468
H42   H     H_    0.322353 0.289822 0.705986 0.182865
H43   H     H_    0.624261 0.788080 0.223404 0.208467
H44   H     H_    0.605414 0.742405 0.264738 0.143380
H45   H     H_    0.083108 0.418716 0.533135 0.224734
H46   H     H_    0.677619 0.710141 0.294005 0.182850
H47   H     H_    0.606178 0.257107 0.265304 0.143442
H48   H     H_    0.624510 0.210458 0.223668 0.196292
H49   H     H_    0.678573 0.288336 0.294532 0.181735
H50   H     H_    0.375479 0.789531 0.776329 0.196288
H51   H     H_    0.393832 0.742902 0.734710 0.143459
H52   H     H_    0.321431 0.711651 0.705461 0.181722
H53   H     H_    0.750499 0.593774 0.138542 0.204483
H54   H     H_    0.723325 0.587684 0.044699 0.115530
H55   H     H_    0.679153 0.651955 0.044504 0.162267
H56   H     H_    0.916892 0.581284 0.466865 0.224738
H57   H     H_    0.276652 0.412332 0.955265 0.115566
H58   H     H_    0.249516 0.406198 0.861453 0.204496
H59   H     H_    0.320856 0.348041 0.955525 0.162233
H60   H     H_    0.219864 0.615579 0.821367 0.187762
H61   H     H_    0.262598 0.600915 0.925697 0.133528
H62   H     H_    0.296571 0.670823 0.915658 0.183763
H63   H     H_    0.737401 0.399083 0.074301 0.133525
H64   H     H_    0.780139 0.384422 0.178636 0.187761
H65   H     H_    0.703432 0.329176 0.084349 0.183768
H66   H     H_    0.250510 0.093768 0.138549 0.204479
H67   H     H_    0.583106 0.918714 0.533133 0.224737
H68   H     H_    0.223318 0.087693 0.044691 0.115515
H69   H     H_    0.179162 0.151957 0.044524 0.162282
H70   H     H_    0.776662 0.912325 0.955282 0.115548
H71   H     H_    0.749508 0.906212 0.861455 0.204490
H72   H     H_    0.820852 0.848044 0.955512 0.162249
H73   H     H_    0.719864 0.115580 0.821366 0.187762
H74   H     H_    0.762597 0.100915 0.925696 0.133528
H75   H     H_    0.796571 0.170823 0.915657 0.183765
H76   H     H_    0.237399 0.899082 0.074299 0.133524
H77   H     H_    0.280139 0.884424 0.178635 0.187758
H78   H     H_    0.416894 0.081286 0.466867 0.224734
H79   H     H_    0.203433 0.829176 0.084351 0.183768
H80   H     H_    0.134899 0.634123 0.104571 0.209471
O1    O     O_3   0.999990 0.500000 0.250040 -0.541494
O2    O     O_R   0.585480 0.853830 0.866170 -0.612394
O3    O     O_R   0.585480 0.146170 0.866170 -0.610589
O4    O     O_R   0.414520 0.853830 0.133830 -0.610594
O5    O     O_R   0.085470 0.353820 0.304740 -0.641056
O6    O     O_R   0.914530 0.646180 0.695260 -0.641043
O7    O     O_R   0.914530 0.353820 0.695260 -0.639118
O8    O     O_R   0.085470 0.646180 0.304740 -0.639118
O9    O     O_R   0.585470 0.853820 0.304740 -0.641048
O10   O     O_R   0.414530 0.146180 0.695260 -0.641054
O11   O     O_R   0.414530 0.853820 0.695260 -0.639119
O12   O     O_3   0.000010 0.500000 0.749960 -0.541495
O13   O     O_R   0.585470 0.146180 0.304740 -0.639118
O14   O     O_R   0.853810 0.414550 0.134600 -0.647949
O15   O     O_R   0.146190 0.585450 0.865400 -0.647949
O16   O     O_R   0.146190 0.414550 0.865400 -0.626663
O17   O     O_R   0.853810 0.585450 0.134600 -0.626659
O18   O     O_R   0.353810 0.914550 0.134600 -0.647948
O19   O     O_R   0.646190 0.085450 0.865400 -0.647950
O20   O     O_R   0.646190 0.914550 0.865400 -0.626662
O21   O     O_R   0.353810 0.085450 0.134600 -0.626658
O22   O     O_R   0.146170 0.585430 0.426970 -0.607985
O23   O     O_3   0.499990 0.000000 0.250040 -0.541494
O24   O     O_R   0.853830 0.414570 0.573030 -0.607984
O25   O     O_R   0.853830 0.585430 0.573030 -0.610975
O26   O     O_R   0.146170 0.414570 0.426970 -0.610979
O27   O     O_R   0.646170 0.085430 0.426970 -0.607984
O28   O     O_R   0.353830 0.914570 0.573030 -0.607985
O29   O     O_R   0.353830 0.085430 0.573030 -0.610981
O30   O     O_R   0.646170 0.914570 0.426970 -0.610971
O31   O     O_R   0.939250 0.500000 0.306600 -0.611608
O32   O     O_R   0.060750 0.500000 0.693400 -0.611606
O33   O     O_R   0.439250 0.000000 0.306600 -0.611613
O34   O     O_3   0.500010 0.000000 0.749960 -0.541494
O35   O     O_R   0.560750 0.000000 0.693400 -0.611607
O36   O     O_R   0.999990 0.560720 0.132740 -0.625865
O37   O     O_R   0.000010 0.439280 0.867260 -0.625868
O38   O     O_R   0.000010 0.560720 0.867260 -0.598137
O39   O     O_R   0.999990 0.439280 0.132740 -0.598143
O40   O     O_R   0.499990 0.060720 0.132740 -0.625869
O41   O     O_R   0.500010 0.939280 0.867260 -0.625865
O42   O     O_R   0.500010 0.060720 0.867260 -0.598144
O43   O     O_R   0.499990 0.939280 0.132740 -0.598138
O44   O     O_R   0.060720 0.500000 0.428060 -0.617725
O45   O     O_R   0.914520 0.646170 0.133830 -0.612396
O46   O     O_R   0.939280 0.500000 0.571940 -0.617723
O47   O     O_R   0.560720 0.000000 0.428060 -0.617721
O48   O     O_R   0.439280 0.000000 0.571940 -0.617725
O49   O     O_3   0.114343 0.578584 0.153654 -0.612425
O50   O     O_3   0.885656 0.421416 0.846345 -0.612431
O51   O     O_3   0.991640 0.639944 0.954807 -0.591280
O52   O     O_3   0.008361 0.360056 0.045194 -0.591285
O53   O     O_3   0.614344 0.078583 0.153655 -0.612429
O54   O     O_3   0.385656 0.921417 0.846345 -0.612427
O55   O     O_3   0.491640 0.139944 0.954807 -0.591287
O56   O     O_R   0.085480 0.353830 0.866170 -0.612392
O57   O     O_3   0.508360 0.860056 0.045192 -0.591282
O58   O     O_3   0.799781 0.692704 0.643762 -0.557031
O59   O     O_3   0.200248 0.307327 0.356267 -0.557052
O60   O     O_3   0.200463 0.691693 0.356489 -0.549560
O61   O     O_3   0.799533 0.308311 0.643507 -0.549565
O62   O     O_3   0.299753 0.192675 0.643734 -0.557051
O63   O     O_3   0.700226 0.807304 0.356244 -0.557037
O64   O     O_3   0.700466 0.191689 0.356492 -0.549564
O65   O     O_3   0.299536 0.808308 0.643511 -0.549561
O66   O     O_3   0.785564 0.679461 0.128234 -0.509573
O67   O     O_R   0.085480 0.646170 0.866170 -0.610594
O68   O     O_3   0.214435 0.320537 0.871765 -0.509570
O69   O     O_3   0.197461 0.694919 0.853369 -0.552751
O70   O     O_3   0.802540 0.305080 0.146632 -0.552750
O71   O     O_3   0.285567 0.179463 0.128237 -0.509576
O72   O     O_3   0.714436 0.820538 0.871766 -0.509571
O73   O     O_3   0.697461 0.194919 0.853368 -0.552749
O74   O     O_3   0.302540 0.805080 0.146632 -0.552752
O75   O     O_R   0.914520 0.353830 0.133830 -0.610589
O76   O     O_R   0.414520 0.146170 0.133830 -0.612396
Zn1   Zn    Zn3+2 0.000000 0.413230 0.206100 1.041632
Zn2   Zn    Zn3+2 0.086780 0.500000 0.792790 1.023298
Zn3   Zn    Zn3+2 0.413220 0.000000 0.207210 1.023294
Zn4   Zn    Zn3+2 0.586780 0.000000 0.792790 1.023299
Zn5   Zn    Zn3+2 0.086760 0.500000 0.380740 1.064026
Zn6   Zn    Zn3+2 0.913240 0.500000 0.619260 1.064027
Zn7   Zn    Zn3+2 0.586760 0.000000 0.380740 1.064028
Zn8   Zn    Zn3+2 0.413240 0.000000 0.619260 1.064026
Zn9   Zn    Zn3+2 1.000000 0.586770 0.793900 1.041632
Zn10  Zn    Zn3+2 0.000000 0.413230 0.793900 1.031976
Zn11  Zn    Zn3+2 0.000000 0.586770 0.206100 1.031977
Zn12  Zn    Zn3+2 0.500000 0.913230 0.206100 1.041630
Zn13  Zn    Zn3+2 0.500000 0.086770 0.793900 1.041632
Zn14  Zn    Zn3+2 0.500000 0.913230 0.793900 1.031977
Zn15  Zn    Zn3+2 0.500000 0.086770 0.206100 1.031975
Zn16  Zn    Zn3+2 0.913220 0.500000 0.207210 1.023299

loop_
_geom_bond_atom_site_label_1
_geom_bond_atom_site_label_2
_ccdc_geom_bond_type
C115  Cl17  S    
C96   C102  S    
C80   O11   A    
C42   C58   A    
C56   C81   S    
C12   H28   S    
C123  O63   S    
C22   H59   S    
O39   Zn1   S    
C90   C107  S    
C118  O58   S    
C13   C112  A    
C98   O55   S    
C16   H38   S    
O3    Zn13  S    
C5    H5    S    
O41   Zn14  S    
C97   C99   S    
C44   C53   A    
C30   C122  A    
C46   C55   A    
C84   O32   A    
C91   C100  S    
O32   Zn2   S    
C61   C71   A    
C96   C108  S    
C5    H4    S    
C61   H45   S    
C43   Cl20  S    
C76   O24   A    
O1    Zn11  S    
C63   C67   A    
C30   C115  A    
O23   Zn15  S    
O1    Zn1   S    
C93   C101  S    
C94   O51   S    
C24   C76   S    
C119  O59   S    
O34   Zn4   S    
O17   Zn16  S    
C95   O52   S    
C76   O7    A    
C14   H31   S    
C110  C123  A    
O15   Zn2   S    
C17   H42   S    
C90   O41   A    
C79   O29   A    
C116  Cl18  S    
C6    H7    S    
C99   O57   S    
C11   H25   S    
C27   H72   S    
C9    O54   S    
C48   O15   A    
C36   C50   A    
O24   Zn6   S    
C18   H46   S    
C33   C116  A    
C22   H57   S    
O23   Zn3   S    
C111  C124  A    
O48   Zn8   S    
C79   O10   A    
C21   H53   S    
O34   Zn14  S    
C33   C80   S    
C7    H13   S    
C14   O59   S    
C48   O67   A    
C91   C94   S    
C17   H40   S    
C89   C108  S    
C24   C121  A    
O9    Zn12  S    
C6    H9    S    
C50   Cl7   S    
C37   O56   A    
C86   O48   A    
C97   C107  S    
O22   Zn5   S    
C61   C65   A    
O8    Zn11  S    
O27   Zn7   S    
C36   C55   A    
C41   C45   A    
C26   H68   S    
C21   O66   S    
C85   O33   A    
C16   O61   S    
C8    H15   S    
C19   H47   S    
O26   Zn5   S    
O16   Zn2   S    
C2    C109  A    
C15   H35   S    
C110  Cl12  S    
C32   C117  A    
O31   Zn16  S    
C88   O38   A    
C99   C108  S    
C47   Cl5   S    
C26   H69   S    
C4    O49   S    
C64   C68   A    
C81   O20   A    
C43   C52   A    
C1    O45   A    
C18   H43   S    
C49   C57   A    
C67   C72   A    
C1    C53   S    
C66   Cl10  S    
O6    Zn9   S    
C92   O3    A    
C96   C98   S    
C35   C49   A    
C27   H70   S    
O47   Zn7   S    
C10   O55   S    
C25   H64   S    
C110  C114  A    
C93   C95   S    
C23   H61   S    
C15   O60   S    
C21   H55   S    
C74   O5    A    
C71   C83   S    
C54   C59   S    
C60   C92   S    
C81   O2    A    
C62   C66   A    
O42   Zn13  S    
C7    O52   S    
C89   O40   A    
C37   C52   S    
O20   Zn4   S    
C38   C51   A    
C70   O21   A    
C116  C120  A    
C95   C106  S    
O7    Zn10  S    
C100  H1    S    
C10   H22   S    
C64   H78   S    
C102  C107  S    
C26   H66   S    
C9    H17   S    
O11   Zn14  S    
C73   C85   S    
O12   Zn9   S    
C34   C53   A    
C30   C79   S    
C115  C119  A    
C15   H33   S    
C39   O71   S    
C40   O72   S    
C87   O39   A    
C13   C120  A    
C101  C106  S    
C41   C60   A    
C63   H67   S    
O12   Zn2   S    
C5    O50   S    
C32   C82   S    
C49   Cl6   S    
C23   H60   S    
C91   C106  S    
C23   H62   S    
C69   C84   S    
C75   O25   A    
C88   C105  S    
O46   Zn6   S    
C7    H10   S    
C19   O64   S    
C40   C44   A    
C80   O28   A    
C38   O70   S    
C51   C60   A    
C31   C113  A    
C47   C56   A    
C48   C55   S    
C94   C105  S    
C28   H73   S    
O67   Zn9   S    
O5    Zn1   S    
C8    H14   S    
O12   Zn6   S    
O13   Zn15  S    
C29   H77   S    
O14   Zn16  S    
C102  H23   S    
C96   O53   S    
C83   O44   A    
C92   O19   A    
C3    C33   A    
O56   Zn10  S    
C82   O13   A    
O35   Zn4   S    
C103  O18   A    
C77   O22   A    
C42   C46   A    
C9    H19   S    
C14   H32   S    
C41   O73   S    
C29   H76   S    
C17   H41   S    
C40   C56   A    
C28   H74   S    
C57   C70   S    
C27   O72   S    
C20   H51   S    
C8    O53   S    
C6    H8    S    
O21   Zn3   S    
O2    Zn14  S    
C27   H71   S    
C68   Cl13  S    
O44   Zn5   S    
C12   H27   S    
O23   Zn12  S    
O34   Zn13  S    
C22   H58   S    
C50   C58   A    
O37   Zn10  S    
C59   O14   A    
C16   H37   S    
C37   O16   A    
C18   O63   S    
C42   O74   S    
C101  H12   S    
C103  O4    A    
C4    H3    S    
C5    H6    S    
C62   C69   A    
C83   O31   A    
C89   O43   A    
C75   O6    A    
C67   Cl11  S    
C29   O74   S    
O1    Zn5   S    
C66   C71   A    
C38   C54   A    
C121  O61   S    
O34   Zn8   S    
C59   O75   A    
C124  O64   S    
O18   Zn3   S    
C28   H75   S    
C11   H24   S    
C11   O57   S    
C8    H16   S    
C104  C108  S    
C31   C78   S    
C29   H79   S    
C117  Cl19  S    
C95   C100  S    
O33   Zn3   S    
O10   Zn13  S    
C87   O36   A    
C72   C86   S    
C51   Cl8   S    
C63   C73   A    
C84   O46   A    
C85   O47   A    
C62   H56   S    
C14   H30   S    
O23   Zn7   S    
C65   C69   A    
C18   H44   S    
C97   C104  S    
C98   C107  S    
C120  O60   S    
C99   C102  S    
C7    H11   S    
C11   H26   S    
C35   C52   A    
C70   O76   A    
C34   C47   A    
C25   H63   S    
O43   Zn12  S    
C111  Cl14  S    
C12   H29   S    
O1    Zn16  S    
O19   Zn4   S    
C17   O62   S    
C25   O70   S    
C32   C124  A    
C21   H54   S    
C16   H39   S    
C44   Cl2   S    
C100  C105  S    
C20   O65   S    
C46   Cl4   S    
C90   O42   A    
C78   O9    A    
O40   Zn15  S    
C109  C122  A    
O76   Zn15  S    
C39   C57   A    
C117  C121  A    
C93   C105  S    
C104  H34   S    
C94   C101  S    
C22   O68   S    
C3    C112  A    
C2    C74   S    
O12   Zn10  S    
C19   H48   S    
C15   H36   S    
C112  Cl15  S    
C24   C111  A    
C20   H50   S    
C74   O26   A    
C88   O37   A    
C13   C77   S    
O28   Zn8   S    
C78   O30   A    
C82   O27   A    
C91   O49   S    
C39   C43   A    
C68   C73   A    
C4    H80   S    
C97   O54   S    
C35   O68   S    
C4    H2    S    
O29   Zn8   S    
C113  Cl16  S    
O30   Zn7   S    
C75   C114  S    
C25   H65   S    
C6    O51   S    
O75   Zn1   S    
C114  C118  A    
C1    O17   A    
C109  Cl1   S    
C45   C54   A    
C19   H49   S    
O36   Zn11  S    
C26   O71   S    
C3    O65   S    
O38   Zn9   S    
C28   O73   S    
C36   O69   S    
C77   O8    A    
C10   H20   S    
C2    C119  A    
O25   Zn6   S    
C122  O62   S    
C31   C123  A    
C93   O50   S    
C87   C106  S    
C45   Cl3   S    
C10   H21   S    
C98   C104  S    
C64   C72   A    
C9    H18   S    
O4    Zn12  S    
C86   O35   A    
C113  C118  A    
C58   C103  S    
O45   Zn11  S    
C23   O69   S    
C20   H52   S    
C65   Cl9   S    
C12   O58   S    
C34   O66   S    
