data_mof_unit_37301.cif
_audit_creation_date              2012-12-11T16:05:06-0500
_audit_creation_method            fapswitch 2.2
_symmetry_space_group_name_H-M    P1
_symmetry_Int_Tables_number       1
_space_group_crystal_system       triclinic
_cell_length_a                    10.603878
_cell_length_b                    10.61533
_cell_length_c                    16.909544
_cell_angle_alpha                 98.348584
_cell_angle_beta                  98.418118
_cell_angle_gamma                 61.963638
_cell_volume                      1655.56288811

loop_
_atom_site_label
_atom_site_type_symbol
_atom_type_description
_atom_site_fract_x
_atom_site_fract_y
_atom_site_fract_z
_atom_type_partial_charge
C1    C     C_R   0.353542 0.777880 0.399367 0.541083
C2    C     C_3   0.263614 0.783269 0.250575 -0.104538
C3    C     C_3   0.333320 0.838721 0.324118 0.056354
C4    C     C_R   0.371097 0.347464 0.358624 0.534499
C5    C     C_3   0.451888 0.821935 0.275059 -0.116848
C6    C     C_3   0.357343 0.978562 0.253720 -0.131581
C7    C     C_3   0.239217 0.993845 0.304422 -0.145390
C8    C     C_3   0.169305 0.938751 0.230064 -0.122859
C9    C     C_3   0.287257 0.922687 0.181066 0.051646
C10   C     C_3   0.455617 0.242362 0.769632 0.291054
C11   C     C_3   0.418404 0.381014 0.733909 -0.093289
C12   C     C_3   0.642581 0.420294 0.232865 -0.145188
C13   C     C_3   0.336116 0.333860 0.662609 0.017861
C14   C     C_3   0.375740 0.194181 0.698519 -0.134199
C15   C     C_3   0.236085 0.275276 0.741364 -0.147351
C16   C     C_R   0.707665 0.415175 0.390427 0.565642
C17   C     C_3   0.196512 0.415293 0.703797 -0.132741
C18   C     C_3   0.278482 0.460634 0.776621 -0.162634
C19   C     C_3   0.319012 0.321126 0.812623 0.072001
C20   C     C_1   0.817234 0.341752 0.709620 -0.064863
C21   C     C_1   0.843417 0.315169 0.778204 -0.054183
C22   C     C_1   0.338204 0.812413 0.709702 -0.056742
C23   C     C_3   0.747696 0.387181 0.308557 0.054514
C24   C     C_1   0.313635 0.839294 0.778546 -0.054504
C25   C     C_R   0.886098 0.312679 0.088349 0.544529
C26   C     C_R   0.319575 0.299970 0.119982 0.533292
C27   C     C_R   0.255724 0.961249 0.099005 0.559085
C28   C     C_R   0.356425 0.771990 0.627164 0.546366
C29   C     C_R   0.884306 0.299654 0.860998 0.562507
C30   C     C_R   0.308317 0.293761 0.891699 0.562868
C31   C     C_R   0.280463 0.884242 0.859067 0.550917
C32   C     C_R   0.366237 0.345125 0.584600 0.543932
C33   C     C_R   0.774302 0.379419 0.629599 0.553245
C34   C     C_3   0.845498 0.238385 0.270538 -0.116726
C35   C     C_1   0.344656 0.338241 0.274809 -0.067572
C36   C     C_1   0.332778 0.328019 0.203547 -0.064169
C37   C     C_3   0.741782 0.270621 0.193154 -0.121794
C38   C     C_3   0.689066 0.060643 0.757122 0.007891
C39   C     C_3   0.706375 0.910442 0.762377 -0.256406
C40   C     C_3   0.818094 0.798418 0.708374 -0.461945
C41   C     C_3   0.928956 0.304713 0.239715 -0.117339
C42   C     C_3   0.830776 0.453479 0.278397 -0.102997
C43   C     C_3   0.726903 0.486218 0.201631 -0.128940
C44   C     C_3   0.824629 0.337580 0.163630 0.055431
C45   C     C_3   0.380945 0.767837 0.200902 -0.115339
Cr1   Cr    Cr6+3 0.608340 0.611040 0.520430 0.999687
Cr2   Cr    Cr6+3 0.287650 0.601120 0.489350 1.015264
Cr3   Cr    Cr6+3 0.604040 0.287870 0.490280 1.011306
Cr4   Cr    Cr6+3 0.054020 0.052700 0.970850 1.021085
Cr5   Cr    Cr6+3 0.059230 0.375120 0.993390 1.020396
Cr6   Cr    Cr6+3 0.374950 0.061200 0.992340 1.031252
H1    H     H_    0.524487 0.467756 0.232982 0.101653
H2    H     H_    0.706078 0.195828 0.156289 0.135906
H3    H     H_    0.892410 0.138793 0.301609 0.126955
H4    H     H_    0.047125 0.258732 0.240259 0.105877
H5    H     H_    0.867504 0.528544 0.313996 0.132286
H6    H     H_    0.682743 0.585926 0.171011 0.122727
H7    H     H_    0.225557 0.701822 0.249885 0.130556
H8    H     H_    0.432962 0.678598 0.154850 0.119878
H9    H     H_    0.567978 0.773819 0.295582 0.123223
H10   H     H_    0.794233 0.059533 0.776267 0.170207
H11   H     H_    0.661550 0.089288 0.693766 0.138115
H12   H     H_    0.397838 0.057054 0.252514 0.131465
H13   H     H_    0.740320 0.882143 0.825438 0.182219
H14   H     H_    0.602123 0.908694 0.744546 0.171206
H15   H     H_    0.784061 0.821727 0.644600 0.151189
H16   H     H_    0.829792 0.690787 0.714911 0.174297
H17   H     H_    0.923870 0.797184 0.725606 0.151805
H18   H     H_    0.182506 0.084759 0.348791 0.115256
H19   H     H_    0.054483 0.982965 0.207490 0.124179
H20   H     H_    0.494962 0.422843 0.728793 0.116410
H21   H     H_    0.412408 0.087624 0.664051 0.106938
H22   H     H_    0.160308 0.232795 0.747000 0.118232
H23   H     H_    0.090034 0.484464 0.673824 0.135374
H24   H     H_    0.239879 0.568025 0.810287 0.130324
O1    O     O_R   0.751220 0.499230 0.435170 -0.522879
O2    O     O_R   0.412990 0.180750 0.091610 -0.525144
O3    O     O_R   0.366620 0.943130 0.065760 -0.499836
O4    O     O_R   0.477220 0.727600 0.436870 -0.521030
O5    O     O_R   0.160510 0.906330 0.879210 -0.515618
O6    O     O_R   0.930190 0.179050 0.889450 -0.494012
O7    O     O_R   0.909140 0.398170 0.896710 -0.510035
O8    O     O_R   0.186190 0.363460 0.918830 -0.511139
O9    O     O_R   0.401670 0.173200 0.913310 -0.471998
O10   O     O_R   0.356120 0.936130 0.900470 -0.491782
O11   O     O_3   0.162740 0.163010 0.985530 -0.284171
O12   O     O_R   0.297880 0.469080 0.560050 -0.494736
O13   O     O_R   0.258650 0.745120 0.411470 -0.518058
O14   O     O_R   0.297070 0.467240 0.395960 -0.501823
O15   O     O_R   0.488830 0.252610 0.387790 -0.518434
O16   O     O_R   0.724400 0.302390 0.420980 -0.499309
O17   O     O_R   0.752100 0.501210 0.612190 -0.516076
O18   O     O_R   0.478040 0.729440 0.600970 -0.502708
O19   O     O_R   0.259530 0.747110 0.588490 -0.507220
O20   O     O_3   0.590098 0.159888 0.810843 -0.552028
O21   O     O_R   0.489720 0.254590 0.564810 -0.529112
O22   O     O_R   0.725220 0.304230 0.585080 -0.495989
O23   O     O_3   0.500010 0.500010 0.500020 -0.273287
O24   O     O_R   0.171830 0.913880 0.057510 -0.514276
O25   O     O_R   0.940690 0.186050 0.054730 -0.519194
O26   O     O_R   0.920470 0.405720 0.075010 -0.513545
O27   O     O_R   0.196690 0.370460 0.084120 -0.496408

loop_
_geom_bond_atom_site_label_1
_geom_bond_atom_site_label_2
_ccdc_geom_bond_type
C11   C18   S    
C9    C45   S    
C18   H24   S    
C31   O10   A    
C34   C37   S    
C39   H14   S    
C41   C42   S    
C13   C32   S    
C35   C36   T    
C27   O3    A    
Cr6   O10   S    
C6    C9    S    
Cr1   O1    S    
C31   O5    A    
C15   C19   S    
C39   H13   S    
C12   C23   S    
C27   O24   A    
Cr2   O23   S    
C12   C43   S    
C3    C7    S    
Cr1   O4    S    
C11   H20   S    
Cr1   O17   S    
C30   O8    A    
Cr6   O11   S    
C28   O19   A    
C18   C19   S    
Cr4   O6    S    
C12   C37   S    
C41   H4    S    
C42   H5    S    
C8    C9    S    
C40   H16   S    
C38   O20   S    
C38   H10   S    
C37   H2    S    
C1    O13   A    
Cr1   O23   S    
C4    C35   S    
Cr3   O15   S    
C13   C14   S    
Cr2   O14   S    
C34   C41   S    
C25   C44   S    
C12   H1    S    
Cr5   O8    S    
C4    O15   A    
C2    C45   S    
C38   C39   S    
C26   O2    A    
Cr5   O7    S    
C7    C8    S    
C10   C14   S    
C33   O17   A    
C39   C40   S    
Cr5   O11   S    
C32   O12   A    
C21   C29   S    
Cr3   O16   S    
C28   O18   A    
C1    C3    S    
Cr2   O12   S    
C6    H12   S    
C43   C44   S    
Cr6   O2    S    
C29   O6    A    
Cr3   O22   S    
Cr4   O24   S    
C25   O25   A    
C10   C19   S    
C23   C34   S    
C17   C18   S    
C23   C42   S    
Cr5   O26   S    
C20   C33   S    
C26   C36   S    
C32   O21   A    
C34   H3    S    
C16   C23   S    
C17   H23   S    
C1    O4    A    
C41   C44   S    
C22   C24   T    
C42   C43   S    
C9    C27   S    
C4    O14   A    
C15   C17   S    
C45   H8    S    
Cr3   O21   S    
C5    H9    S    
C15   H22   S    
C16   O1    A    
C14   H21   S    
Cr4   O11   S    
C2    C8    S    
C3    C5    S    
C7    H18   S    
C2    H7    S    
Cr5   O27   S    
C6    C7    S    
Cr3   O23   S    
C8    H19   S    
Cr4   O5    S    
C13   C17   S    
Cr2   O13   S    
C37   C44   S    
C2    C3    S    
Cr6   O3    S    
C29   O7    A    
C26   O27   A    
Cr4   O25   S    
C11   C13   S    
C25   O26   A    
C5    C6    S    
Cr1   O18   S    
C5    C45   S    
C10   O20   S    
C40   H15   S    
Cr2   O19   S    
C33   O22   A    
C30   O9    A    
C24   C31   S    
C10   C11   S    
C43   H6    S    
C20   C21   T    
C16   O16   A    
C40   H17   S    
C14   C15   S    
C22   C28   S    
C19   C30   S    
Cr6   O9    S    
C38   H11   S    
