data_mof_unit_66761.cif
_audit_creation_date              2012-12-11T14:19:32-0500
_audit_creation_method            fapswitch 2.2
_symmetry_space_group_name_H-M    P1
_symmetry_Int_Tables_number       1
_space_group_crystal_system       triclinic
_cell_length_a                    8.304343
_cell_length_b                    12.677098
_cell_length_c                    15.013831
_cell_angle_alpha                 95.520532
_cell_angle_beta                  99.000013
_cell_angle_gamma                 97.682811
_cell_volume                      1535.99314661

loop_
_atom_site_label
_atom_site_type_symbol
_atom_type_description
_atom_site_fract_x
_atom_site_fract_y
_atom_site_fract_z
_atom_type_partial_charge
Ba1   Ba    Ba6+2 0.153570 0.551840 0.456200 1.843597
Ba2   Ba    Ba6+2 0.656590 0.448150 0.543720 1.865441
C1    C     C_3   0.282778 0.780942 0.104159 0.924523
C2    C     C_R   0.728926 0.816954 0.470774 -0.195820
C3    C     C_R   0.696192 0.995257 0.433698 0.056103
C4    C     C_3   0.827426 0.817652 0.211762 0.946806
C5    C     C_R   0.630945 0.887023 0.431643 0.042749
C6    C     C_R   0.888620 0.852917 0.518130 0.128556
C7    C     C_R   0.953716 0.965467 0.526045 -0.052962
C8    C     C_R   0.856151 0.037450 0.481472 -0.091988
C9    C     C_R   0.921153 0.149617 0.487325 0.056847
C10   C     C_R   0.178941 0.115942 0.574087 -0.029604
C11   C     C_R   0.113097 0.008861 0.575011 0.557927
C12   C     C_3   0.325397 0.762920 0.205091 0.313961
C13   C     C_R   0.239611 0.447077 0.765144 -0.283491
C14   C     C_R   0.142217 0.408752 0.826005 -0.009476
C15   C     C_R   0.205367 0.422088 0.919298 -0.104417
C16   C     C_3   0.810482 0.903065 0.147935 -0.056333
C17   C     C_R   0.367416 0.476373 0.953448 0.047270
C18   C     C_R   0.458261 0.520305 0.889851 -0.096566
C19   C     C_R   0.394313 0.506363 0.797300 -0.011209
C20   C     C_R   0.602682 0.543088 0.085814 -0.088651
C21   C     C_R   0.665704 0.563046 0.178471 -0.021282
C22   C     C_R   0.410713 0.480434 0.213099 0.060042
C23   C     C_3   0.629046 0.783171 0.710316 0.585502
C24   C     C_R   0.343345 0.461719 0.120231 -0.090337
C25   C     C_R   0.437259 0.494677 0.053949 0.043336
C26   C     C_R   0.568874 0.535180 0.242014 -0.281604
C27   C     C_3   0.713368 0.309054 0.270415 0.284825
C28   C     C_3   0.635052 0.270010 0.171944 -0.316348
C29   C     C_3   0.089680 0.682089 0.726365 0.326901
C30   C     C_3   0.167936 0.714639 0.825440 0.609013
C31   C     C_3   0.184078 0.215989 0.315368 0.590202
C32   C     C_3   0.049819 0.146277 0.247193 0.483110
C33   C     C_3   0.744661 0.864223 0.780740 0.479572
C34   C     C_3   0.883435 0.161474 0.795896 0.774760
C35   C     C_3   0.002620 0.135159 0.876012 0.217604
C36   C     C_3   0.402824 0.198741 0.791904 0.314537
C37   C     C_3   0.455156 0.169748 0.887444 0.266960
C38   C     C_R   0.081090 0.185982 0.534578 0.330269
Cl1   Cl    Cl    0.301909 0.129765 0.374500 -0.638761
Cl2   Cl    Cl    0.132063 0.674715 0.043719 -0.604506
Cl3   Cl    Cl    0.455619 0.780362 0.048678 -0.698387
Cl4   Cl    Cl    0.515418 0.854518 0.633001 -0.603936
Cl5   Cl    Cl    0.207719 0.904646 0.090731 -0.474273
Cl6   Cl    Cl    0.900288 0.108651 0.969228 -0.686599
Cl7   Cl    Cl    0.397124 0.030108 0.892785 -0.492584
F1    F     F_    0.065007 0.768394 0.870438 -0.610029
F2    F     F_    0.954060 0.078310 0.291285 -0.704912
F3    F     F_    0.864869 0.918014 0.740704 -0.702563
F4    F     F_    0.957236 0.164833 0.719272 -0.784198
F5    F     F_    0.904072 0.864952 0.297428 -0.685694
F6    F     F_    0.205344 0.950757 0.627384 -0.616211
F7    F     F_    0.145458 0.290810 0.539567 -0.714675
H1    H     H_    0.214605 0.721048 0.225961 0.094647
H2    H     H_    0.973042 0.196959 0.208447 -0.014688
H3    H     H_    0.107484 0.098748 0.198415 0.119504
H4    H     H_    0.421559 0.710183 0.212074 -0.079279
H5    H     H_    0.703385 0.734519 0.672206 -0.035816
H6    H     H_    0.802955 0.822629 0.835784 0.124022
H7    H     H_    0.674767 0.922521 0.811758 0.107791
H8    H     H_    0.771449 0.865687 0.076667 0.141128
H9    H     H_    0.778172 0.095459 0.779113 0.128340
H10   H     H_    0.056144 0.063107 0.855026 0.192471
H11   H     H_    0.103910 0.202787 0.898856 -0.018468
H12   H     H_    0.518164 0.214916 0.169266 0.177397
H13   H     H_    0.266161 0.185111 0.775298 0.007868
H14   H     H_    0.449708 0.285001 0.791823 -0.049516
H15   H     H_    0.397056 0.216497 0.936573 -0.024064
H16   H     H_    0.590568 0.190238 0.908114 0.118082
H17   H     H_    0.619719 0.045442 0.398090 0.133246
H18   H     H_    0.677828 0.733104 0.466332 0.028932
H19   H     H_    0.687769 0.564001 0.040917 0.110750
H20   H     H_    0.122949 0.393394 0.963310 0.092733
H21   H     H_    0.220282 0.417968 0.101990 0.092179
H22   H     H_    0.574886 0.571768 0.910122 0.106765
H23   H     H_    0.608815 0.338209 0.134532 0.026089
H24   H     H_    0.621061 0.548944 0.313615 0.047399
H25   H     H_    0.701054 0.778817 0.215506 -0.162240
H26   H     H_    0.188261 0.441047 0.693695 0.117094
H27   H     H_    0.720619 0.955079 0.166851 0.129723
H28   H     H_    0.930796 0.952013 0.150458 0.166945
H29   H     H_    0.622727 0.345213 0.305382 0.021680
H30   H     H_    0.823578 0.369692 0.271865 0.013601
H31   H     H_    0.719239 0.226679 0.136892 0.159776
H32   H     H_    0.178109 0.644806 0.690237 -0.118387
H33   H     H_    0.976902 0.623129 0.722793 0.003228
H34   H     H_    0.286230 0.768727 0.830641 0.133838
H35   H     H_    0.190459 0.642824 0.858885 -0.036012
H36   H     H_    0.129978 0.266432 0.363874 -0.003992
O1    O     O_2   0.168170 0.764170 0.543850 -0.365677
O2    O     O_2   0.835498 0.459218 0.821913 -0.467419
O3    O     O_3   0.818416 0.255283 0.820060 -0.624036
O4    O     O_3   0.898670 0.629780 0.545890 -0.540500
O5    O     O_3   0.409490 0.443300 0.392340 -0.459493
O6    O     O_2   0.674250 0.555830 0.719690 -0.476363
O7    O     O_3   0.518847 0.723843 0.755554 -0.690098
O8    O     O_2   0.511826 0.114556 0.561400 -0.411785
O9    O     O_3   0.470121 0.135807 0.729327 -0.537173
O10   O     O_3   0.365980 0.695510 0.380810 -0.511655
O11   O     O_2   0.289675 0.888056 0.422506 -0.369428
O12   O     O_3   0.286411 0.273413 0.265927 -0.687307
O13   O     O_3   0.049463 0.774029 0.689157 -0.506612
O14   O     O_3   0.379390 0.860208 0.262248 -0.581922
O15   O     O_2   0.136040 0.444100 0.280280 -0.497609
O16   O     O_3   0.934510 0.640480 0.335500 -0.479558
O17   O     O_2   0.993452 0.551862 0.177220 -0.458864
O18   O     O_3   0.924503 0.746000 0.177839 -0.588727
O19   O     O_2   0.642110 0.235770 0.456130 -0.436463
O20   O     O_3   0.911620 0.370210 0.454030 -0.455776
O21   O     O_3   0.444310 0.304480 0.619110 -0.427463
O22   O     O_3   0.759276 0.220751 0.311225 -0.588931
O23   O     O_3   0.400800 0.556680 0.607590 -0.436307
O24   O     O_3   0.875770 0.359510 0.664420 -0.424945
P1    P     P_3+3 0.998660 0.747790 0.570900 1.146779
P2    P     P_3+3 0.306970 0.411860 0.294270 0.986917
P3    P     P_3+3 0.879000 0.622566 0.217688 1.011343
P4    P     P_3+3 0.811620 0.252200 0.429030 1.103208
P5    P     P_3+3 0.920962 0.368561 0.783440 1.044829
P6    P     P_3+3 0.416318 0.833405 0.376138 1.093400
P7    P     P_3+3 0.496967 0.585904 0.721365 0.969017
P8    P     P_3+3 0.399361 0.166183 0.620167 1.212851

loop_
_geom_bond_atom_site_label_1
_geom_bond_atom_site_label_2
_ccdc_geom_bond_type
Ba2   O19   S    
C32   H2    S    
O15   P2    D    
C17   C18   A    
C2    C6    A    
O20   P4    S    
Ba2   P4    S    
C1    Cl2   S    
C1    Cl3   S    
C24   C25   A    
O6    P7    D    
C34   C35   S    
O2    P5    D    
C22   C24   A    
C27   H29   S    
C36   C37   S    
Ba2   O23   S    
C13   C14   A    
C30   H34   S    
C16   H27   S    
C23   Cl4   S    
Ba1   Ba2   S    
C7    C11   A    
O7    P7    S    
C27   O22   S    
C6    P1    S    
C16   H28   S    
C28   H23   S    
C34   O3    S    
C30   H35   S    
Ba1   O4    S    
C35   H11   S    
C32   H3    S    
O10   P6    S    
Ba1   P2    S    
C34   H9    S    
C17   C25   S    
C7    C8    A    
O24   P5    S    
Ba1   O16   S    
C18   H22   S    
C12   H1    S    
Ba1   O1    S    
C29   H32   S    
O21   P8    S    
O3    P5    S    
C30   F1    S    
Ba1   O23   S    
C2    C5    A    
C12   H4    S    
O18   P3    S    
Ba1   O10   S    
O19   P4    D    
C31   C32   S    
C11   F6    S    
C4    C16   S    
Ba2   O21   S    
C29   H33   S    
C31   O12   S    
Ba2   O4    S    
C36   H13   S    
C27   H30   S    
C14   P5    S    
C3    C5    A    
C6    C7    A    
C1    Cl5   S    
C33   H6    S    
C29   O13   S    
C10   C38   A    
O13   P1    S    
C27   C28   S    
Ba1   O20   S    
C12   O14   S    
C13   H26   S    
O5    P2    S    
Ba1   O5    S    
C33   F3    S    
C24   H21   S    
C37   H15   S    
O23   P7    S    
C33   H7    S    
C21   C26   A    
C18   C19   A    
C28   H31   S    
C34   F4    S    
C28   H12   S    
C1    C12   S    
C23   C33   S    
O9    P8    S    
C23   O7    S    
C36   H14   S    
C22   P2    S    
C38   F7    S    
C20   C25   A    
O16   P3    S    
C15   H20   S    
C2    H18   S    
C35   H10   S    
C26   H24   S    
C37   Cl7   S    
O8    P8    D    
Ba2   O20   S    
C32   F2    S    
O11   P6    D    
C5    P6    S    
C29   C30   S    
C16   H8    S    
C22   C26   A    
C36   O9    S    
Ba2   O5    S    
C21   P3    S    
O4    P1    S    
C23   H5    S    
C31   Cl1   S    
Ba2   O6    S    
C3    C8    A    
C3    H17   S    
C31   H36   S    
O22   P4    S    
Ba2   O24   S    
C4    H25   S    
C14   C15   A    
C15   C17   A    
C37   H16   S    
O1    P1    D    
C19   P7    S    
C9    C38   A    
O12   P2    S    
C8    C9    A    
C13   C19   A    
C10   P8    S    
C10   C11   A    
C4    O18   S    
C20   C21   A    
Ba1   P1    S    
C20   H19   S    
C4    F5    S    
C35   Cl6   S    
C9    P4    S    
O17   P3    D    
Ba1   O15   S    
O14   P6    S    
