data_mof_unit_65681.cif
_audit_creation_date              2012-12-10T16:52:43-0500
_audit_creation_method            fapswitch 2.2
_symmetry_space_group_name_H-M    P1
_symmetry_Int_Tables_number       1
_space_group_crystal_system       triclinic
_cell_length_a                    26.229269
_cell_length_b                    26.230662
_cell_length_c                    22.245749
_cell_angle_alpha                 90.00062
_cell_angle_beta                  54.061085
_cell_angle_gamma                 90.007342
_cell_volume                      12391.8496336

loop_
_atom_site_label
_atom_site_type_symbol
_atom_type_description
_atom_site_fract_x
_atom_site_fract_y
_atom_site_fract_z
_atom_type_partial_charge
C1    C     C_R   0.650346 0.249984 0.699434 0.812678
C2    C     C_1   0.889396 0.750134 0.221238 -0.118370
C3    C     C_2   0.248951 0.943901 0.503055 -0.295663
C4    C     C_3   0.513416 0.796866 0.975373 0.436544
C5    C     C_3   0.511280 0.203086 0.975375 0.436467
C6    C     C_3   0.013597 0.296862 0.975374 0.436549
C7    C     C_3   0.011810 0.703076 0.975379 0.436478
C8    C     C_3   0.426028 0.329339 0.563284 -0.279703
C9    C     C_3   0.426275 0.670411 0.562660 -0.279441
C10   C     C_3   0.926030 0.829341 0.563281 -0.279755
C11   C     C_3   0.926276 0.170411 0.562659 -0.279524
C12   C     C_3   0.647652 0.975424 0.461743 -0.267881
C13   C     C_1   0.389417 0.749849 0.221240 -0.119075
C14   C     C_3   0.813397 0.024681 0.322590 -0.236656
C15   C     C_3   0.147684 0.475533 0.461659 -0.268117
C16   C     C_3   0.313358 0.524575 0.322573 -0.236799
C17   C     C_3   0.883423 0.311820 0.997653 -0.266577
C18   C     C_3   0.881164 0.692544 0.997644 -0.266724
C19   C     C_3   0.383185 0.811365 0.997651 -0.266521
C20   C     C_3   0.380525 0.193898 0.997636 -0.266692
C21   C     C_3   0.998926 0.116228 0.998848 -0.297517
C22   C     C_3   0.003907 0.883692 0.998760 -0.295232
C23   C     C_3   0.499438 0.616222 0.998851 -0.297519
C24   C     C_1   0.389394 0.250132 0.221238 -0.118380
C25   C     C_3   0.505390 0.383648 0.998773 -0.295351
C26   C     C_1   0.610861 0.749854 0.778775 -0.145848
C27   C     C_1   0.610860 0.250121 0.778771 -0.145822
C28   C     C_1   0.110860 0.249854 0.778775 -0.145853
C29   C     C_1   0.110859 0.750121 0.778771 -0.145823
C30   C     C_3   0.030768 0.273358 0.024859 -0.354977
C31   C     C_3   0.029824 0.725014 0.024865 -0.354687
C32   C     C_3   0.530676 0.773524 0.024858 -0.354957
C33   C     C_R   0.650344 0.750012 0.699437 0.813627
C34   C     C_3   0.529536 0.224541 0.024864 -0.354636
C35   C     C_3   0.963890 0.249977 0.073453 -0.021073
C36   C     C_3   0.963853 0.749965 0.073447 -0.021229
C37   C     C_3   0.463889 0.749979 0.073453 -0.021079
C38   C     C_3   0.463846 0.249958 0.073447 -0.021246
C39   C     C_3   0.554873 0.724725 0.975349 -0.277250
C40   C     C_3   0.555925 0.273312 0.975344 -0.277164
C41   C     C_3   0.054777 0.224562 0.975348 -0.277264
C42   C     C_3   0.055666 0.773799 0.975340 -0.277212
C43   C     C_3   0.536963 0.748999 0.926523 0.029244
C44   C     C_R   0.150346 0.749984 0.699434 0.812632
C45   C     C_3   0.536977 0.250941 0.926516 0.029251
C46   C     C_3   0.036960 0.248998 0.926523 0.029250
C47   C     C_3   0.036970 0.750941 0.926516 0.029259
C48   C     C_3   0.987497 0.202097 0.024504 0.586403
C49   C     C_3   0.989260 0.797838 0.024481 0.585940
C50   C     C_3   0.487679 0.702096 0.024505 0.586401
C51   C     C_3   0.489790 0.297819 0.024486 0.585933
C52   C     C_3   0.469879 0.725216 0.975133 -0.430627
C53   C     C_3   0.471003 0.276606 0.975113 -0.430704
C54   C     C_3   0.969785 0.225380 0.975133 -0.430629
C55   C     C_R   0.150344 0.250012 0.699437 0.813619
C56   C     C_3   0.970711 0.776137 0.975112 -0.430698
C57   C     C_1   0.922985 0.249858 0.154520 0.072019
C58   C     C_1   0.922954 0.750107 0.154517 0.072322
C59   C     C_1   0.422984 0.749860 0.154520 0.072028
C60   C     C_1   0.422950 0.250103 0.154517 0.072322
C61   C     C_R   0.849697 0.249972 0.300569 0.821959
C62   C     C_R   0.849691 0.750025 0.300571 0.819626
C63   C     C_R   0.349697 0.749972 0.300569 0.821986
C64   C     C_R   0.349691 0.250025 0.300571 0.819635
C65   C     C_1   0.577544 0.749521 0.845498 0.034008
C66   C     C_3   0.947417 0.273952 0.023879 0.464464
C67   C     C_1   0.577547 0.250433 0.845492 0.033818
C68   C     C_1   0.077542 0.249521 0.845498 0.034000
C69   C     C_1   0.077544 0.750432 0.845492 0.033806
C70   C     C_2   0.487497 0.216454 0.468906 -0.275924
C71   C     C_2   0.487364 0.783678 0.469181 -0.276631
C72   C     C_2   0.987497 0.716453 0.468907 -0.275959
C73   C     C_2   0.987365 0.283678 0.469181 -0.276659
C74   C     C_2   0.448211 0.256607 0.492239 0.407136
C75   C     C_2   0.448226 0.743432 0.492214 0.407291
C76   C     C_2   0.948212 0.756607 0.492239 0.407148
C77   C     C_3   0.946516 0.727530 0.023873 0.464660
C78   C     C_2   0.948226 0.243432 0.492213 0.407301
C79   C     C_2   0.547381 0.218656 0.460598 -0.115231
C80   C     C_2   0.547257 0.781520 0.460859 -0.114644
C81   C     C_2   0.047381 0.718656 0.460598 -0.115253
C82   C     C_2   0.047257 0.281519 0.460859 -0.114617
C83   C     C_2   0.552731 0.246098 0.507415 -0.238137
C84   C     C_2   0.552703 0.753907 0.507469 -0.238122
C85   C     C_2   0.052731 0.746098 0.507415 -0.238156
C86   C     C_2   0.052704 0.253907 0.507469 -0.238135
C87   C     C_2   0.734481 0.972400 0.463268 0.431013
C88   C     C_3   0.447324 0.773795 0.023878 0.464451
C89   C     C_2   0.750142 0.027647 0.450160 0.426420
C90   C     C_2   0.234469 0.472402 0.463284 0.430973
C91   C     C_2   0.250159 0.527646 0.450153 0.426415
C92   C     C_2   0.755709 0.944077 0.494835 -0.472195
C93   C     C_2   0.744493 0.055924 0.504316 -0.475343
C94   C     C_2   0.255718 0.444076 0.494827 -0.472053
C95   C     C_2   0.244485 0.555925 0.504322 -0.475215
C96   C     C_R   0.889293 0.249050 0.499032 0.733287
C97   C     C_R   0.889288 0.750956 0.499040 0.732443
C98   C     C_R   0.389293 0.749050 0.499032 0.733314
C99   C     C_3   0.446263 0.227999 0.023869 0.464652
C100  C     C_R   0.389288 0.250956 0.499040 0.732471
C101  C     C_R   0.610988 0.249360 0.500876 0.832901
C102  C     C_R   0.610976 0.750648 0.500897 0.834897
C103  C     C_R   0.110988 0.749360 0.500876 0.832870
C104  C     C_R   0.110976 0.250648 0.500897 0.834898
C105  C     C_R   0.750104 0.111272 0.499815 0.930328
C106  C     C_R   0.749951 0.888733 0.499947 0.928855
C107  C     C_R   0.250105 0.611272 0.499814 0.930362
C108  C     C_R   0.249951 0.388734 0.499948 0.928896
C109  C     C_R   0.749997 0.388618 0.500256 0.856279
C110  C     C_1   0.889418 0.249849 0.221240 -0.119085
C111  C     C_R   0.749921 0.611382 0.499866 0.855122
C112  C     C_R   0.249997 0.888618 0.500256 0.856281
C113  C     C_R   0.249921 0.111382 0.499866 0.855114
C114  C     C_2   0.800911 0.528066 0.458485 -0.160045
C115  C     C_2   0.800630 0.471948 0.456839 -0.158048
C116  C     C_2   0.300911 0.028066 0.458485 -0.160059
C117  C     C_2   0.300630 0.971948 0.456839 -0.158061
C118  C     C_2   0.748284 0.556097 0.499334 -0.293743
C119  C     C_2   0.748951 0.443901 0.503055 -0.295670
C120  C     C_2   0.248283 0.056097 0.499334 -0.293746
H1    H     H_    0.846477 0.546712 0.423833 0.176128
H2    H     H_    0.512507 0.734090 0.554088 0.176594
H3    H     H_    0.012477 0.765762 0.554168 0.176689
H4    H     H_    0.012507 0.234089 0.554088 0.176586
H5    H     H_    0.780534 0.961640 0.514982 0.121277
H6    H     H_    0.732783 0.038329 0.555175 0.122859
H7    H     H_    0.280569 0.461639 0.514939 0.121259
H8    H     H_    0.232741 0.538331 0.555197 0.122815
H9    H     H_    0.701908 0.539182 0.533120 0.151675
H10   H     H_    0.704090 0.460804 0.545449 0.150075
H11   H     H_    0.201908 0.039182 0.533120 0.151670
H12   H     H_    0.845160 0.453317 0.416278 0.176918
H13   H     H_    0.204090 0.960804 0.545449 0.150072
H14   H     H_    0.445895 0.705198 0.954208 0.161428
H15   H     H_    0.447954 0.298131 0.954177 0.161479
H16   H     H_    0.945724 0.205496 0.954207 0.161411
H17   H     H_    0.947423 0.797284 0.954175 0.161471
H18   H     H_    0.599308 0.704064 0.954421 0.159968
H19   H     H_    0.601252 0.292439 0.954418 0.160115
H20   H     H_    0.099132 0.203770 0.954419 0.159967
H21   H     H_    0.100777 0.793316 0.954412 0.160104
H22   H     H_    0.054772 0.293509 0.045667 0.184900
H23   H     H_    0.346477 0.046712 0.423833 0.176122
H24   H     H_    0.053047 0.703603 0.045681 0.184992
H25   H     H_    0.554603 0.793807 0.045666 0.184909
H26   H     H_    0.552516 0.202754 0.045679 0.185006
H27   H     H_    0.475540 0.180468 0.455836 0.137324
H28   H     H_    0.475272 0.819705 0.456377 0.136976
H29   H     H_    0.975539 0.680467 0.455838 0.137316
H30   H     H_    0.975272 0.319704 0.456377 0.136976
H31   H     H_    0.399451 0.302339 0.610935 0.140031
H32   H     H_    0.393337 0.353466 0.559323 0.205891
H33   H     H_    0.452606 0.355215 0.575098 0.181409
H34   H     H_    0.345160 0.953317 0.416278 0.176910
H35   H     H_    0.393655 0.646361 0.558462 0.206342
H36   H     H_    0.399624 0.697211 0.610548 0.140000
H37   H     H_    0.452908 0.644431 0.574256 0.181332
H38   H     H_    0.899452 0.802341 0.610932 0.140023
H39   H     H_    0.893338 0.853467 0.559319 0.205887
H40   H     H_    0.952607 0.855217 0.575094 0.181403
H41   H     H_    0.893656 0.146361 0.558460 0.206334
H42   H     H_    0.899624 0.197210 0.610547 0.139976
H43   H     H_    0.952909 0.144430 0.574255 0.181326
H44   H     H_    0.657787 0.011097 0.429651 0.201417
H45   H     H_    0.586348 0.195521 0.417646 0.174429
H46   H     H_    0.619314 0.983707 0.522370 0.135866
H47   H     H_    0.618469 0.950951 0.452309 0.180907
H48   H     H_    0.795727 0.989074 0.313734 0.201174
H49   H     H_    0.853374 0.016284 0.325830 0.139199
H50   H     H_    0.831897 0.049195 0.273193 0.193086
H51   H     H_    0.157964 0.511107 0.429329 0.201502
H52   H     H_    0.119374 0.484003 0.522230 0.135920
H53   H     H_    0.118406 0.451053 0.452383 0.180890
H54   H     H_    0.295510 0.489065 0.313749 0.201217
H55   H     H_    0.353293 0.515991 0.325819 0.139293
H56   H     H_    0.586138 0.804820 0.418090 0.175209
H57   H     H_    0.331981 0.549095 0.273153 0.193069
H58   H     H_    0.874411 0.276299 0.978042 0.157319
H59   H     H_    0.924772 0.332455 0.950296 0.186766
H60   H     H_    0.841737 0.336837 0.020855 0.191079
H61   H     H_    0.921727 0.671258 0.950300 0.186501
H62   H     H_    0.873505 0.728736 0.978013 0.157466
H63   H     H_    0.838559 0.668666 0.020849 0.191017
H64   H     H_    0.374309 0.775772 0.978040 0.157335
H65   H     H_    0.424454 0.832068 0.950293 0.186767
H66   H     H_    0.341403 0.836266 0.020851 0.191079
H67   H     H_    0.086347 0.695520 0.417648 0.174417
H68   H     H_    0.420849 0.172424 0.950290 0.186486
H69   H     H_    0.373273 0.230284 0.978007 0.157499
H70   H     H_    0.337654 0.170371 0.020838 0.191010
H71   H     H_    0.505526 0.868998 0.991928 0.341567
H72   H     H_    0.500158 0.131010 0.991942 0.341592
H73   H     H_    0.005984 0.368991 0.991932 0.341570
H74   H     H_    0.001495 0.630973 0.991953 0.341598
H75   H     H_    0.051180 0.119023 0.962912 0.153210
H76   H     H_    0.980485 0.119478 0.964983 0.161086
H77   H     H_    0.986301 0.077754 0.024412 0.189879
H78   H     H_    0.086138 0.304820 0.418089 0.175218
H79   H     H_    0.985332 0.881751 0.964936 0.160253
H80   H     H_    0.056031 0.879613 0.962789 0.152665
H81   H     H_    0.992752 0.922143 0.024292 0.190392
H82   H     H_    0.551682 0.619148 0.962915 0.153184
H83   H     H_    0.480985 0.619334 0.964987 0.161087
H84   H     H_    0.486962 0.577749 0.024417 0.189888
H85   H     H_    0.486781 0.382109 0.964962 0.160209
H86   H     H_    0.557466 0.379186 0.962787 0.152693
H87   H     H_    0.494671 0.422078 0.024307 0.190402
H88   H     H_    0.512477 0.265761 0.554168 0.176692
O1    O     O_3   0.750010 0.250010 0.500000 -0.491498
O2    O     O_R   0.613890 0.719960 0.543100 -0.643308
O3    O     O_R   0.113890 0.780040 0.543100 -0.642322
O4    O     O_R   0.113890 0.219960 0.543100 -0.643324
O5    O     O_R   0.697860 0.219970 0.664410 -0.632242
O6    O     O_R   0.697860 0.780030 0.664410 -0.631384
O7    O     O_R   0.197860 0.719970 0.664410 -0.632174
O8    O     O_R   0.197860 0.280030 0.664410 -0.631358
O9    O     O_R   0.802170 0.219970 0.335590 -0.621445
O10   O     O_R   0.802170 0.780030 0.335590 -0.626323
O11   O     O_R   0.302170 0.719970 0.335590 -0.621418
O12   O     O_3   0.750010 0.749990 0.500000 -0.491700
O13   O     O_R   0.302170 0.280030 0.335590 -0.626343
O14   O     O_R   0.637780 0.280050 0.664410 -0.643195
O15   O     O_R   0.637780 0.719950 0.664410 -0.643030
O16   O     O_R   0.137780 0.780050 0.664410 -0.643230
O17   O     O_R   0.137780 0.219950 0.664410 -0.643044
O18   O     O_R   0.862250 0.280060 0.335590 -0.637075
O19   O     O_R   0.862250 0.719940 0.335590 -0.636423
O20   O     O_R   0.362250 0.780060 0.335590 -0.637091
O21   O     O_R   0.362250 0.219940 0.335590 -0.636439
O22   O     O_R   0.843040 0.219980 0.543100 -0.648957
O23   O     O_3   0.250010 0.750010 0.500000 -0.491501
O24   O     O_R   0.843040 0.780020 0.543100 -0.649149
O25   O     O_R   0.343040 0.719980 0.543100 -0.648936
O26   O     O_R   0.343040 0.280020 0.543100 -0.649143
O27   O     O_R   0.656980 0.219970 0.456900 -0.641094
O28   O     O_R   0.656980 0.780030 0.456900 -0.635521
O29   O     O_R   0.156980 0.719970 0.456900 -0.641116
O30   O     O_R   0.156980 0.280030 0.456900 -0.635505
O31   O     O_R   0.758500 0.135440 0.543100 -0.657342
O32   O     O_R   0.758500 0.864560 0.543100 -0.657418
O33   O     O_R   0.258500 0.635440 0.543100 -0.657347
O34   O     O_3   0.250010 0.249990 0.500000 -0.491700
O35   O     O_R   0.258500 0.364560 0.543100 -0.657426
O36   O     O_R   0.698440 0.364590 0.543100 -0.642945
O37   O     O_R   0.698440 0.635410 0.543100 -0.643345
O38   O     O_R   0.198440 0.864590 0.543100 -0.642942
O39   O     O_R   0.198440 0.135410 0.543100 -0.643347
O40   O     O_R   0.741510 0.135430 0.456900 -0.581478
O41   O     O_R   0.741510 0.864570 0.456900 -0.579967
O42   O     O_R   0.241510 0.635430 0.456900 -0.581497
O43   O     O_R   0.241510 0.364570 0.456900 -0.579977
O44   O     O_R   0.801610 0.364600 0.456900 -0.642006
O45   O     O_R   0.886150 0.280070 0.456900 -0.654156
O46   O     O_R   0.801610 0.635400 0.456900 -0.641458
O47   O     O_R   0.301610 0.864600 0.456900 -0.642011
O48   O     O_R   0.301610 0.135400 0.456900 -0.641472
O49   O     O_3   0.469405 0.304783 0.494813 -0.598016
O50   O     O_3   0.469602 0.695254 0.494422 -0.598026
O51   O     O_3   0.969406 0.804783 0.494811 -0.598015
O52   O     O_3   0.969602 0.195254 0.494421 -0.598018
O53   O     O_3   0.703703 0.949011 0.436698 -0.570728
O54   O     O_3   0.764366 0.051106 0.385858 -0.575616
O55   O     O_3   0.203632 0.449013 0.436787 -0.570857
O56   O     O_R   0.886150 0.719930 0.456900 -0.654511
O57   O     O_3   0.264454 0.551104 0.385815 -0.575732
O58   O     O_3   0.890877 0.301163 0.054128 -0.595640
O59   O     O_3   0.888986 0.701878 0.054121 -0.595473
O60   O     O_3   0.390680 0.800847 0.054125 -0.595652
O61   O     O_3   0.388448 0.202824 0.054115 -0.595473
O62   O     O_3   0.527598 0.846625 0.947585 -0.754884
O63   O     O_3   0.523235 0.153362 0.947595 -0.755270
O64   O     O_3   0.027971 0.346619 0.947588 -0.754881
O65   O     O_3   0.024321 0.653332 0.947604 -0.755241
O66   O     O_3   0.971485 0.152856 0.055989 -0.590039
O67   O     O_R   0.386150 0.780070 0.456900 -0.654151
O68   O     O_3   0.975107 0.847065 0.055930 -0.588946
O69   O     O_3   0.471857 0.652854 0.055992 -0.590026
O70   O     O_3   0.476189 0.347025 0.055939 -0.588963
O71   O     O_R   0.386150 0.219930 0.456900 -0.654498
O72   O     O_R   0.613890 0.280040 0.543100 -0.642308
Zn1   Zn    Zn3+2 0.823730 0.292940 0.438410 0.975470
Zn2   Zn    Zn3+2 0.737880 0.792910 0.438410 1.012824
Zn3   Zn    Zn3+2 0.237880 0.707090 0.438410 1.011367
Zn4   Zn    Zn3+2 0.237880 0.292910 0.438410 1.012822
Zn5   Zn    Zn3+2 0.676310 0.292930 0.561590 0.969460
Zn6   Zn    Zn3+2 0.676310 0.707070 0.561590 0.970544
Zn7   Zn    Zn3+2 0.176310 0.792930 0.561590 0.969413
Zn8   Zn    Zn3+2 0.176310 0.207070 0.561590 0.970519
Zn9   Zn    Zn3+2 0.823730 0.707060 0.438410 0.974314
Zn10  Zn    Zn3+2 0.323730 0.792940 0.438410 0.975483
Zn11  Zn    Zn3+2 0.323730 0.207060 0.438410 0.974309
Zn12  Zn    Zn3+2 0.762140 0.207100 0.561590 0.966278
Zn13  Zn    Zn3+2 0.762140 0.792900 0.561590 0.966722
Zn14  Zn    Zn3+2 0.262140 0.707100 0.561590 0.966336
Zn15  Zn    Zn3+2 0.262140 0.292900 0.561590 0.966760
Zn16  Zn    Zn3+2 0.737880 0.207090 0.438410 1.011381

loop_
_geom_bond_atom_site_label_1
_geom_bond_atom_site_label_2
_ccdc_geom_bond_type
C102  O28   A    
C31   C42   S    
C100  O26   A    
C14   H50   S    
C21   O66   S    
C114  C115  S    
C53   C99   S    
C104  O30   A    
C50   O69   S    
C111  C118  S    
C61   O9    A    
C82   H78   S    
O47   Zn10  S    
C31   C36   S    
C64   O21   A    
C62   O19   A    
C119  H10   S    
C63   O11   A    
O72   Zn5   S    
O31   Zn12  S    
C9    H36   S    
C78   C96   S    
C70   C74   D    
C50   C52   S    
C85   C103  S    
C9    O50   S    
O34   Zn4   S    
O45   Zn1   S    
C29   C69   T    
O41   Zn2   S    
C15   H53   S    
C22   H79   S    
O22   Zn12  S    
O33   Zn14  S    
C88   O60   S    
C112  O47   A    
C74   C100  S    
C32   H25   S    
C35   C66   S    
C75   C98   S    
C105  O40   A    
C113  C120  S    
C13   C63   S    
C75   O50   S    
O21   Zn11  S    
C3    C112  S    
C4    C32   S    
C16   H55   S    
C92   C106  S    
C6    C30   S    
C87   C89   S    
C29   C44   S    
O2    Zn6   S    
C14   H48   S    
C25   H86   S    
C10   H40   S    
C22   H81   S    
C70   C79   S    
O13   Zn4   S    
C21   H77   S    
C4    C43   S    
C109  O36   A    
C118  H9    S    
O44   Zn1   S    
C37   C50   S    
C34   H26   S    
C18   H63   S    
O32   Zn13  S    
H71   O62   S    
C15   H52   S    
C85   H3    S    
C21   H76   S    
C15   O55   S    
C10   O51   S    
C107  O33   A    
C91   O57   S    
C20   O61   S    
C48   O66   S    
C73   H30   S    
C84   C102  S    
O42   Zn3   S    
C101  O72   A    
C53   H15   S    
C86   C104  S    
C92   H5    S    
O34   Zn15  S    
C94   H7    S    
O23   Zn3   S    
C8    H32   S    
C19   H66   S    
C43   C52   S    
O1    Zn1   S    
O25   Zn14  S    
O12   Zn6   S    
C93   H6    S    
C47   C69   S    
C41   H20   S    
C14   O54   S    
O24   Zn13  S    
C95   H8    S    
C30   C41   S    
H72   O63   S    
C10   H38   S    
C16   O57   S    
C103  O29   A    
C7    C77   S    
C17   H59   S    
C39   H18   S    
C45   C53   S    
C113  O48   A    
C61   C110  S    
C115  H12   S    
C52   C88   S    
O28   Zn2   S    
C103  O3    A    
C38   C51   S    
C18   H61   S    
C113  O39   A    
C116  C120  D    
C51   C53   S    
C46   C68   S    
C17   O58   S    
C20   H68   S    
C26   C33   S    
C42   H21   S    
C11   H43   S    
C105  O31   A    
C32   C37   S    
C79   H45   S    
C8    H33   S    
O34   Zn8   S    
C37   C59   S    
C38   C60   S    
C115  C119  D    
C100  O71   A    
C86   H4    S    
O1    Zn12  S    
C104  O4    A    
C16   H54   S    
C83   C101  S    
C107  O42   A    
O19   Zn9   S    
C25   O70   S    
O67   Zn10  S    
C19   H64   S    
C54   C66   S    
O10   Zn2   S    
C40   C51   S    
C61   O18   A    
C23   H84   S    
O26   Zn15  S    
C55   O17   A    
C56   H17   S    
C108  O35   A    
O56   Zn9   S    
C89   C93   D    
C27   C67   T    
C91   C95   D    
O16   Zn7   S    
C9    H35   S    
C78   O52   S    
C24   C60   T    
O48   Zn11  S    
C81   C85   D    
C47   C56   S    
O12   Zn9   S    
C120  H11   S    
C37   C88   S    
C80   C84   D    
C89   O54   S    
C12   H47   S    
C23   O69   S    
C22   H80   S    
C36   C77   S    
C20   H70   S    
C18   O59   S    
C97   O24   A    
C11   H41   S    
C52   H14   S    
C32   C39   S    
O27   Zn16  S    
C3    C117  D    
C114  H1    S    
C5    C99   S    
C45   C67   S    
C44   O16   A    
C87   O53   S    
C72   C81   S    
C24   C64   S    
C106  O32   A    
C87   C92   D    
O23   Zn7   S    
C14   H49   S    
C25   H85   S    
C35   C48   S    
C22   O68   S    
C90   C94   D    
C40   C45   S    
C76   O51   S    
O1    Zn5   S    
C23   H82   S    
O17   Zn8   S    
O23   Zn14  S    
O39   Zn8   S    
C76   C97   S    
C82   C86   D    
C5    C45   S    
C99   O61   S    
C1    O14   A    
C7    C47   S    
C112  O38   A    
O9    Zn16  S    
C12   H44   S    
O15   Zn6   S    
C57   C110  T    
C9    H37   S    
C111  O37   A    
O8    Zn15  S    
C46   C54   S    
C15   H51   S    
C21   H75   S    
C95   C107  S    
C4    C88   S    
C33   O15   A    
C1    O5    A    
C73   C82   S    
C20   H69   S    
C109  C119  S    
H74   O65   S    
C28   C68   T    
O37   Zn6   S    
C38   C99   S    
C33   O6    A    
C2    C58   T    
C63   O20   A    
C30   H22   S    
C35   C57   S    
C11   O52   S    
O18   Zn1   S    
C19   H65   S    
C79   C83   D    
C90   C91   S    
O6    Zn13  S    
O1    Zn16  S    
C12   O53   S    
C11   H42   S    
C98   O67   A    
C117  H34   S    
O20   Zn10  S    
C70   H27   S    
C25   H87   S    
O35   Zn15  S    
C10   H39   S    
C36   C49   S    
C17   H58   S    
C109  O44   A    
O11   Zn3   S    
C44   O7    A    
C72   C76   D    
O4    Zn8   S    
C48   C54   S    
C94   C108  S    
C30   C35   S    
C34   C40   S    
C62   O10   A    
C106  O41   A    
C96   O45   A    
O14   Zn5   S    
C36   C58   S    
C12   H46   S    
O7    Zn14  S    
C18   H62   S    
C84   H2    S    
C40   H19   S    
C31   H24   S    
C116  C117  S    
O40   Zn16  S    
C8    O49   S    
C97   O56   A    
C93   C105  S    
O12   Zn13  S    
C49   O68   S    
O23   Zn10  S    
C101  O27   A    
C41   C46   S    
C96   O22   A    
O46   Zn9   S    
C66   O58   S    
C43   C65   S    
C42   C47   S    
C111  O46   A    
C71   H28   S    
O36   Zn5   S    
O38   Zn7   S    
C71   C80   S    
C28   C55   S    
C4    O62   S    
C5    O63   S    
C7    C31   S    
C108  O43   A    
C6    O64   S    
C8    H31   S    
O3    Zn7   S    
C80   H56   S    
C55   O8    A    
O5    Zn12  S    
C102  O2    A    
C39   C43   S    
C56   C77   S    
C77   O59   S    
C51   O70   S    
C23   H83   S    
C3    H13   S    
C83   H88   S    
C116  H23   S    
C73   C78   D    
C54   H16   S    
C5    C34   S    
C90   O55   S    
C114  C118  D    
C17   H60   S    
O71   Zn11  S    
C16   H57   S    
C74   O49   S    
C6    C46   S    
C34   C38   S    
C26   C65   T    
C7    O65   S    
C49   C56   S    
C71   C75   D    
O34   Zn11  S    
C98   O25   A    
C41   C48   S    
C64   O13   A    
O43   Zn4   S    
O29   Zn3   S    
O30   Zn4   S    
C42   C49   S    
C6    C66   S    
C39   C50   S    
C72   H29   S    
C1    C27   S    
H73   O64   S    
O12   Zn2   S    
C13   C59   T    
C81   H67   S    
C2    C62   S    
C19   O60   S    
