data_mof_unit_18979.cif
_audit_creation_date              2012-10-26T19:25:53-0400
_audit_creation_method            fapswitch 2.2
_symmetry_space_group_name_H-M    P1
_symmetry_Int_Tables_number       1
_space_group_crystal_system       triclinic
_cell_length_a                    15.076153
_cell_length_b                    13.86984
_cell_length_c                    11.677576
_cell_angle_alpha                 90.939309
_cell_angle_beta                  88.314785
_cell_angle_gamma                 90.168346
_cell_volume                      2440.43437469

loop_
_atom_site_label
_atom_site_type_symbol
_atom_type_description
_atom_site_fract_x
_atom_site_fract_y
_atom_site_fract_z
_atom_type_partial_charge
C1    C     C_R   0.328831 0.499823 0.496464 0.513709
C2    C     C_R   0.527024 0.203401 0.403361 0.355840
C3    C     C_R   0.536554 0.793456 0.408113 0.362832
C4    C     C_R   0.468312 0.206777 0.594997 0.355614
C5    C     C_R   0.534434 0.895644 0.406069 -0.011566
C6    C     C_R   0.473813 0.104126 0.599900 -0.021816
C7    C     C_R   0.473422 0.897973 0.599920 -0.023088
C8    C     C_R   0.533332 0.100952 0.405637 -0.021022
C9    C     C_R   0.504071 0.948167 0.503187 -0.021746
C10   C     C_R   0.504022 0.051224 0.503142 -0.020105
C11   C     C_R   0.563869 0.946556 0.309186 -0.142174
C12   C     C_R   0.671301 0.500021 0.499875 0.527358
C13   C     C_R   0.450727 0.053040 0.699858 -0.147589
C14   C     C_R   0.450678 0.951837 0.699921 -0.146084
C15   C     C_R   0.566558 0.047061 0.310536 -0.148480
C16   C     C_R   0.499812 0.499538 0.284182 0.540961
C17   C     C_R   0.499450 0.500644 0.715840 0.536515
C18   C     C_1   0.498754 0.499419 0.162501 -0.020764
C19   C     C_1   0.498527 0.501839 0.837606 -0.016902
C20   C     C_1   0.498098 0.500729 0.059980 -0.053124
C21   C     C_1   0.498028 0.501758 0.940179 -0.048808
C22   C     C_R   0.814606 0.412199 0.486974 -0.131678
C23   C     C_R   0.907112 0.411482 0.483597 0.009577
C24   C     C_R   0.185643 0.587041 0.491284 -0.141897
C25   C     C_R   0.768365 0.499772 0.497959 -0.017646
C26   C     C_R   0.232067 0.499565 0.489039 -0.013987
C27   C     C_R   0.815147 0.587030 0.505992 -0.148791
C28   C     C_R   0.185664 0.412127 0.479245 -0.146717
C29   C     C_R   0.907524 0.587700 0.500751 0.012294
C30   C     C_R   0.093180 0.411474 0.478621 0.008427
C31   C     C_R   0.953768 0.499592 0.490111 0.061879
C32   C     C_R   0.046778 0.499587 0.486942 0.063573
C33   C     C_3   0.338731 0.751737 0.690071 0.018864
C34   C     C_R   0.093323 0.587732 0.492549 0.008851
C35   C     C_3   0.301127 0.673241 0.768387 -0.242190
C36   C     C_3   0.201285 0.684395 0.789452 -0.491432
C37   C     C_3   0.481497 0.234743 0.221498 0.010438
C38   C     C_3   0.521526 0.245289 0.100360 -0.259955
C39   C     C_3   0.449941 0.244109 0.010678 -0.481156
C40   C     C_3   0.664876 0.728125 0.327646 0.037072
C41   C     C_3   0.720506 0.774967 0.231720 -0.299297
C42   C     C_3   0.815468 0.736724 0.227852 -0.479228
C43   C     C_3   0.337182 0.251415 0.683609 0.016219
C44   C     C_3   0.296638 0.331142 0.760476 -0.244392
C45   C     C_R   0.954391 0.674980 0.506211 -0.138837
C46   C     C_3   0.196274 0.319590 0.775020 -0.489678
C47   C     C_R   0.046303 0.324245 0.471671 -0.142518
C48   C     C_R   0.046849 0.675037 0.501299 -0.142034
C49   C     C_R   0.953733 0.324259 0.473882 -0.133900
C50   C     C_R   0.467001 0.795256 0.594396 0.355397
Cu1   Cu    Cu3+1 0.500000 0.597420 0.500000 1.010796
Cu2   Cu    Cu3+1 0.500000 0.402580 0.500000 1.013536
H1    H     H_    0.778790 0.344488 0.480927 0.139011
H2    H     H_    0.432833 0.090940 0.778918 0.134974
H3    H     H_    0.433095 0.916245 0.779190 0.139918
H4    H     H_    0.593266 0.082104 0.235102 0.140619
H5    H     H_    0.311329 0.741762 0.603367 0.126561
H6    H     H_    0.316485 0.823007 0.724539 0.108370
H7    H     H_    0.314776 0.601198 0.728926 0.167941
H8    H     H_    0.334288 0.677141 0.852136 0.175706
H9    H     H_    0.186680 0.753326 0.835879 0.144386
H10   H     H_    0.175889 0.623889 0.842303 0.149369
H11   H     H_    0.166348 0.683505 0.707224 0.154441
H12   H     H_    0.220973 0.654864 0.493505 0.113730
H13   H     H_    0.427921 0.288682 0.236254 0.157576
H14   H     H_    0.448812 0.162705 0.226307 0.098870
H15   H     H_    0.559509 0.313727 0.094668 0.189166
H16   H     H_    0.568553 0.185334 0.081073 0.149670
H17   H     H_    0.413555 0.174363 0.011878 0.138168
H18   H     H_    0.481136 0.253451 0.924233 0.189932
H19   H     H_    0.402338 0.303939 0.027758 0.143534
H20   H     H_    0.675814 0.649284 0.319469 0.181431
H21   H     H_    0.690207 0.753301 0.411954 0.109505
H22   H     H_    0.689940 0.759977 0.147777 0.182696
H23   H     H_    0.779933 0.654558 0.516816 0.113931
H24   H     H_    0.723551 0.854090 0.246468 0.148151
H25   H     H_    0.847732 0.752347 0.310401 0.149378
H26   H     H_    0.854252 0.772421 0.158166 0.150813
H27   H     H_    0.815965 0.657656 0.211008 0.156040
H28   H     H_    0.313893 0.180551 0.715928 0.109373
H29   H     H_    0.312779 0.259847 0.595262 0.128422
H30   H     H_    0.326364 0.329192 0.846233 0.163777
H31   H     H_    0.311735 0.402570 0.722895 0.170965
H32   H     H_    0.164615 0.317960 0.690499 0.156953
H33   H     H_    0.168757 0.381216 0.826378 0.149003
H34   H     H_    0.221194 0.344452 0.473054 0.109028
H35   H     H_    0.180081 0.251716 0.820371 0.142690
H36   H     H_    0.919549 0.743096 0.514226 0.102125
H37   H     H_    0.081215 0.256096 0.465259 0.100028
H38   H     H_    0.082021 0.743183 0.505911 0.100016
H39   H     H_    0.918612 0.256119 0.468725 0.109683
H40   H     H_    0.583864 0.909254 0.230745 0.146325
N1    N     N_R   0.500000 0.743810 0.500000 -0.228955
N2    N     N_R   0.500000 0.256190 0.500000 -0.224770
O1    O     O_R   0.370260 0.582280 0.500020 -0.509154
O2    O     O_3   0.549357 0.249577 0.302428 -0.539684
O3    O     O_3   0.572963 0.744504 0.313710 -0.548995
O4    O     O_3   0.430805 0.257302 0.687090 -0.548426
O5    O     O_R   0.629740 0.417720 0.499980 -0.485608
O6    O     O_R   0.629740 0.582280 0.499980 -0.527934
O7    O     O_R   0.370260 0.417720 0.500020 -0.520171
O8    O     O_R   0.500010 0.582270 0.337200 -0.448839
O9    O     O_R   0.499990 0.417730 0.662800 -0.444560
O10   O     O_R   0.499990 0.582270 0.662800 -0.442557
O11   O     O_R   0.500010 0.417730 0.337200 -0.466099
O12   O     O_3   0.432419 0.746206 0.687664 -0.537681

loop_
_geom_bond_atom_site_label_1
_geom_bond_atom_site_label_2
_ccdc_geom_bond_type
Cu2   O9    S    
C33   H6    S    
C4    O4    S    
C27   C29   A    
C41   C42   S    
C35   C36   S    
C43   O4    S    
C44   H31   S    
C47   C49   A    
Cu1   O8    S    
C19   C21   T    
C17   O10   A    
C24   C26   A    
C46   H35   S    
C44   H30   S    
C38   C39   S    
C36   H10   S    
C23   C49   A    
C40   H21   S    
C35   H7    S    
C12   O5    A    
C17   C19   S    
C41   H22   S    
C11   C15   A    
C11   H40   S    
C7    C14   A    
C22   C25   A    
C37   H13   S    
Cu2   N2    S    
C36   H11   S    
C9    C10   A    
C46   H33   S    
C14   H3    S    
C42   H27   S    
C24   H12   S    
C48   H38   S    
C13   C14   A    
C47   H37   S    
C49   H39   S    
C27   H23   S    
C44   C46   S    
C22   H1    S    
Cu2   O7    S    
Cu1   Cu2   S    
C30   C47   A    
C2    N2    A    
C45   H36   S    
C4    C6    A    
C40   O3    S    
Cu1   O10   S    
C24   C34   A    
C37   O2    S    
C29   C45   A    
C35   H8    S    
C32   C34   A    
C43   C44   S    
C5    C9    A    
C37   C38   S    
C3    O3    S    
C31   C32   A    
C1    O1    A    
C37   H14   S    
C39   H17   S    
C3    N1    A    
C16   C18   S    
C38   H15   S    
C16   O11   A    
Cu1   N1    S    
C4    N2    A    
C16   O8    A    
C40   C41   S    
C38   H16   S    
Cu2   O11   S    
C42   H26   S    
C8    C15   A    
C28   H34   S    
C1    C26   S    
C43   H29   S    
C46   H32   S    
C34   C48   A    
C36   H9    S    
C1    O7    A    
C13   H2    S    
C45   C48   A    
Cu1   O6    S    
C7    C9    A    
C33   H5    S    
C40   H20   S    
C2    C8    A    
C33   O12   S    
C7    C50   A    
C3    C5    A    
C6    C10   A    
C50   N1    A    
C5    C11   A    
C25   C27   A    
Cu2   O5    S    
C26   C28   A    
C12   C25   S    
C15   H4    S    
C2    O2    S    
C43   H28   S    
C29   C31   A    
C41   H24   S    
C30   C32   A    
C28   C30   A    
C33   C35   S    
C39   H18   S    
C18   C20   T    
C17   O9    A    
C12   O6    A    
C20   C21   S    
C42   H25   S    
C8    C10   A    
Cu1   O1    S    
C50   O12   S    
C39   H19   S    
C22   C23   A    
C23   C31   A    
C6    C13   A    
