data_mof_unit_40799.cif
_audit_creation_date              2012-12-10T16:44:44-0500
_audit_creation_method            fapswitch 2.2
_symmetry_space_group_name_H-M    P1
_symmetry_Int_Tables_number       1
_space_group_crystal_system       triclinic
_cell_length_a                    15.032204
_cell_length_b                    8.698693
_cell_length_c                    7.549385
_cell_angle_alpha                 103.531778
_cell_angle_beta                  94.671323
_cell_angle_gamma                 94.020156
_cell_volume                      952.512109155

loop_
_atom_site_label
_atom_site_type_symbol
_atom_type_description
_atom_site_fract_x
_atom_site_fract_y
_atom_site_fract_z
_atom_type_partial_charge
C1    C     C_R   0.497187 0.199796 0.452852 0.872562
C2    C     C_R   0.502813 0.800203 0.547148 0.872561
C3    C     C_R   0.028820 0.388092 0.170444 -0.214366
C4    C     C_R   0.971180 0.611908 0.829556 -0.214366
C5    C     C_2   0.496039 0.031199 0.427270 -0.372962
C6    C     C_2   0.503961 0.968801 0.572730 -0.372962
C7    C     C_R   0.328965 0.499483 0.501128 0.800205
C8    C     C_R   0.671035 0.500517 0.498872 0.800205
C9    C     C_R   0.823143 0.556354 0.663023 -0.250700
C10   C     C_R   0.176857 0.443645 0.336977 -0.250700
C11   C     C_R   0.767928 0.501042 0.497891 -0.062927
C12   C     C_R   0.232072 0.498958 0.502109 -0.062927
C13   C     C_R   0.805449 0.444925 0.333680 -0.260969
C14   C     C_R   0.194551 0.555076 0.666319 -0.260969
C15   C     C_R   0.898037 0.444450 0.333212 0.105949
C16   C     C_R   0.101963 0.555550 0.666788 0.105949
C17   C     C_R   0.953426 0.500290 0.499544 0.065239
C18   C     C_R   0.046574 0.499710 0.500456 0.065239
C19   C     C_R   0.915741 0.556486 0.665023 0.101712
C20   C     C_R   0.084259 0.443513 0.334977 0.101712
C21   C     C_R   0.936111 0.388569 0.169552 -0.220750
C22   C     C_R   0.063889 0.611431 0.830447 -0.220750
Cu1   Cu    Cu3+1 0.510010 0.517380 0.684380 0.938838
Cu2   Cu    Cu3+1 0.489990 0.482620 0.315620 0.938838
H1    H     H_    0.794189 0.600136 0.790195 0.147040
H2    H     H_    0.205811 0.399861 0.209805 0.147040
H3    H     H_    0.762760 0.399262 0.206838 0.147174
H4    H     H_    0.237240 0.600739 0.793161 0.147174
H5    H     H_    0.894251 0.345671 0.041031 0.151774
H6    H     H_    0.105749 0.654329 0.958968 0.151774
H7    H     H_    0.057166 0.344649 0.042610 0.154422
H8    H     H_    0.942834 0.655350 0.957390 0.154421
H9    H     H_    0.488739 0.958172 0.287815 0.179987
H10   H     H_    0.511261 0.041828 0.712185 0.179987
N1    N     N_2   0.474890 0.456420 0.038520 -0.052449
N2    N     N_2   0.525110 0.543580 0.961480 -0.052449
O1    O     O_R   0.506510 0.286130 0.619770 -0.585644
O2    O     O_R   0.493490 0.713870 0.380230 -0.585644
O3    O     O_R   0.489600 0.256770 0.308360 -0.584589
O4    O     O_R   0.510400 0.743230 0.691640 -0.584589
O5    O     O_R   0.378710 0.514640 0.655720 -0.604676
O6    O     O_R   0.621290 0.485360 0.344280 -0.604676
O7    O     O_R   0.361800 0.485290 0.344300 -0.594169
O8    O     O_R   0.638200 0.514710 0.655700 -0.594169
C23   C     C_3   0.388571 0.384543 0.949083 -0.365880
H11   H     H_    0.360979 0.303522 0.028720 0.153486
H12   H     H_    0.341412 0.476873 0.949685 0.164089
H13   H     H_    0.392935 0.308189 0.812227 0.187607
C24   C     C_3   0.611429 0.615457 0.050917 -0.365881
H14   H     H_    0.639021 0.696477 0.971280 0.153486
H15   H     H_    0.607065 0.691811 0.187773 0.187607
H16   H     H_    0.658588 0.523127 0.050316 0.164089

loop_
_geom_bond_atom_site_label_1
_geom_bond_atom_site_label_2
_ccdc_geom_bond_type
Cu2   O2    S    
Cu1   Cu2   S    
C22   H6    S    
C7    O7    A    
C4    C22   A    
C2    O2    A    
N1    N2    D    
Cu1   O5    S    
C1    O1    A    
C9    C11   A    
C24   H16   S    
C10   H2    S    
C24   H15   S    
C7    O5    A    
C17   C18   A    
C9    H1    S    
C3    C20   A    
C2    C6    S    
C23   H11   S    
C3    H7    S    
C11   C13   A    
C8    O8    A    
C4    H8    S    
C10   C12   A    
C8    C11   S    
C1    C5    S    
C17   C19   A    
C8    O6    A    
C24   H14   S    
C18   C20   A    
C13   C15   A    
C5    C6    D    
C14   C16   A    
C7    C12   S    
C3    C21   A    
Cu2   N1    S    
C1    O3    A    
Cu1   O4    S    
N1    C23   S    
C2    O4    A    
C15   C21   A    
Cu2   O3    S    
Cu2   O6    S    
C16   C18   A    
Cu1   N2    S    
C23   H12   S    
C10   C20   A    
C15   C17   A    
Cu2   O7    S    
C13   H3    S    
C16   C22   A    
C23   H13   S    
C14   H4    S    
Cu1   O1    S    
C4    C19   A    
C21   H5    S    
C9    C19   A    
N2    C24   S    
C6    H10   S    
C12   C14   A    
Cu1   O8    S    
C5    H9    S    
