data_mof_unit_27753.cif
_audit_creation_date              2012-12-10T16:52:15-0500
_audit_creation_method            fapswitch 2.2
_symmetry_space_group_name_H-M    P1
_symmetry_Int_Tables_number       1
_space_group_crystal_system       triclinic
_cell_length_a                    10.819792
_cell_length_b                    10.917153
_cell_length_c                    9.677762
_cell_angle_alpha                 89.242208
_cell_angle_beta                  100.909767
_cell_angle_gamma                 89.688842
_cell_volume                      1122.35448463

loop_
_atom_site_label
_atom_site_type_symbol
_atom_type_description
_atom_site_fract_x
_atom_site_fract_y
_atom_site_fract_z
_atom_type_partial_charge
C1    C     C_R   0.495749 0.265313 0.500185 0.835247
C2    C     C_2   0.494025 0.867683 0.494835 -0.339009
C3    C     C_2   0.458968 0.070150 0.382740 -0.250520
C4    C     C_2   0.479858 0.133883 0.501910 -0.319236
C5    C     C_2   0.432752 0.425048 0.908848 -0.059728
C6    C     C_2   0.431063 0.426496 0.064297 -0.022572
C7    C     C_R   0.261391 0.495983 0.445129 0.862371
C8    C     C_R   0.494990 0.734848 0.497780 0.901719
C9    C     C_R   0.738278 0.494284 0.554868 0.832346
C10   C     C_2   0.122800 0.486387 0.421961 -0.259857
C11   C     C_2   0.068052 0.408141 0.503727 -0.102406
C12   C     C_2   0.875663 0.479848 0.577500 -0.356653
C13   C     C_2   0.930116 0.406557 0.493937 0.015825
C14   C     C_2   0.440139 0.937010 0.381991 0.003477
Cu1   Cu    Cu3+1 0.500020 0.500020 0.638640 0.951421
Cu2   Cu    Cu3+1 0.499980 0.499980 0.361360 0.988456
H1    H     H_    0.552873 0.563738 0.904173 0.196898
H2    H     H_    0.369251 0.362398 0.103660 0.152193
H3    H     H_    0.559562 0.557889 0.117791 0.186931
H4    H     H_    0.933350 0.535728 0.656353 0.163468
H5    H     H_    0.548015 0.908954 0.588178 0.127236
H6    H     H_    0.451174 0.117378 0.281795 0.164198
H7    H     H_    0.477829 0.090985 0.603145 0.155918
H8    H     H_    0.374189 0.358190 0.845887 0.160604
N1    N     N_2   0.498650 0.498660 0.846590 -0.282201
N2    N     N_2   0.498620 0.498630 0.152710 -0.274551
O1    O     O_R   0.500020 0.321960 0.617050 -0.596187
O2    O     O_R   0.499980 0.321920 0.382890 -0.574482
O3    O     O_R   0.320700 0.500020 0.574050 -0.591928
O4    O     O_R   0.320660 0.499980 0.339890 -0.513526
O5    O     O_R   0.500020 0.678080 0.617110 -0.581571
O6    O     O_R   0.499980 0.678040 0.382950 -0.543526
O7    O     O_R   0.679340 0.500020 0.660110 -0.565731
O8    O     O_R   0.679300 0.499980 0.425950 -0.577596
C15   C     C_R   0.858925 0.310341 0.405940 0.147548
C16   C     C_R   0.832443 0.321537 0.258482 -0.122859
C17   C     C_R   0.768802 0.228274 0.177022 -0.119463
C18   C     C_R   0.733653 0.122333 0.241901 -0.105787
C19   C     C_R   0.761210 0.109935 0.388420 -0.133354
C20   C     C_R   0.822158 0.204137 0.470393 -0.118030
H9    H     H_    0.859890 0.402207 0.206250 0.116132
H10   H     H_    0.747465 0.237811 0.063507 0.136154
H11   H     H_    0.685127 0.049841 0.178735 0.122770
H12   H     H_    0.734705 0.027542 0.438611 0.142368
H13   H     H_    0.842259 0.193644 0.583885 0.159636
C21   C     C_2   0.141825 0.313027 0.597036 0.410066
H14   H     H_    0.236593 0.288316 0.586062 0.059573
O9    O     O_2   0.095955 0.259512 0.686577 -0.554722
C22   C     C_2   0.046179 0.571142 0.317326 0.379233
H15   H     H_    0.946228 0.583602 0.314366 0.070220
O10   O     O_2   0.094329 0.628815 0.232785 -0.471926
C23   C     C_2   0.361098 0.887654 0.252533 0.424891
H16   H     H_    0.354685 0.937006 0.153287 0.041016
O11   O     O_2   0.296625 0.796813 0.256297 -0.470493

loop_
_geom_bond_atom_site_label_1
_geom_bond_atom_site_label_2
_ccdc_geom_bond_type
Cu2   O2    S    
C7    C10   S    
Cu1   O5    S    
C19   H12   S    
C7    O3    A    
C3    C14   S    
C1    O2    A    
C20   H13   S    
Cu1   O1    S    
C15   C16   A    
C1    C4    S    
H1    N1    S    
C12   H4    S    
C2    H5    S    
C15   C20   A    
C18   H11   S    
C7    O4    A    
C23   H16   S    
C9    O7    A    
C11   C13   S    
C16   H9    S    
C6    N2    D    
C5    H8    S    
C5    N1    D    
C16   C17   A    
C8    O5    A    
C17   C18   A    
C23   O11   D    
C9    O8    A    
Cu1   O3    S    
Cu2   N2    S    
C5    C6    S    
C2    C14   D    
C9    C12   S    
C21   O9    D    
C6    H2    S    
Cu1   N1    S    
Cu2   O6    S    
C10   C11   D    
Cu2   O4    S    
Cu1   Cu2   S    
C8    O6    A    
C19   C20   A    
C18   C19   A    
C12   C13   D    
H3    N2    S    
C22   H15   S    
C22   O10   D    
C2    C8    S    
C17   H10   S    
C1    O1    A    
C4    H7    S    
C21   H14   S    
C3    H6    S    
Cu2   O8    S    
C10   C22   S    
Cu1   O7    S    
C13   C15   S    
C14   C23   S    
C3    C4    D    
C11   C21   S    
