data_mof_unit_41300.cif
_audit_creation_date              2013-03-05T15:49:56-0500
_audit_creation_method            fapswitch 2.2
_symmetry_space_group_name_H-M    P1
_symmetry_Int_Tables_number       1
_space_group_crystal_system       triclinic
_cell_length_a                    12.01318
_cell_length_b                    12.815409
_cell_length_c                    14.998186
_cell_angle_alpha                 90.54829
_cell_angle_beta                  86.025663
_cell_angle_gamma                 93.705481
_cell_volume                      2298.62959242

loop_
_atom_site_label
_atom_site_type_symbol
_atom_site_description
_atom_site_fract_x
_atom_site_fract_y
_atom_site_fract_z
_atom_type_partial_charge
O1    O     O_R   0.421700 0.658830 0.504450 -0.578510
O2    O     O_R   0.578300 0.341170 0.495550 -0.532904
O3    O     O_R   0.609310 0.646410 0.493750 -0.624872
O4    O     O_R   0.390690 0.353590 0.506250 -0.637033
C1    C     C_R   0.522484 0.700010 0.497463 0.935395
C2    C     C_R   0.477583 0.299916 0.502075 0.936959
O5    O     O_R   0.406180 0.506230 0.637500 -0.584876
O6    O     O_R   0.593820 0.493770 0.362500 -0.625136
O7    O     O_R   0.593800 0.493820 0.626800 -0.615836
O8    O     O_R   0.406200 0.506180 0.373200 -0.606778
C3    C     C_R   0.500039 0.500708 0.673256 0.912691
C4    C     C_R   0.499976 0.500989 0.326737 0.902708
Zn1   Zn    Zn3+2 0.374730 0.508290 0.507150 1.047489
Zn2   Zn    Zn3+2 0.625270 0.491710 0.492850 1.047428
C5    C     C_R   0.400722 0.478172 0.190784 -0.118435
C6    C     C_R   0.597469 0.535051 0.809188 -0.131272
C7    C     C_R   0.499407 0.505581 0.231057 -0.084010
C8    C     C_R   0.499697 0.504110 0.769045 -0.088127
C9    C     C_R   0.596248 0.539731 0.180675 -0.154549
C10   C     C_R   0.400471 0.478858 0.819824 -0.096744
C11   C     C_R   0.597484 0.541962 0.087977 -0.022159
C12   C     C_R   0.398180 0.480440 0.912479 -0.029954
C13   C     C_R   0.497443 0.512711 0.046668 0.010775
C14   C     C_R   0.497575 0.512026 0.953748 0.005715
C15   C     C_R   0.397499 0.483206 0.098578 -0.019443
C16   C     C_R   0.597371 0.541932 0.901742 -0.020942
C17   C     C_R   0.695923 0.574333 0.036223 0.206797
C18   C     C_R   0.298227 0.453040 0.964206 0.205127
C19   C     C_R   0.695489 0.575622 0.942950 0.198954
C20   C     C_R   0.297429 0.456112 0.057528 0.199364
H1    H     H_    0.327217 0.450872 0.231975 0.199224
H2    H     H_    0.673129 0.554129 0.767530 0.197910
H3    H     H_    0.670013 0.565199 0.214453 0.186062
H4    H     H_    0.325498 0.456953 0.786263 0.210675
C21   C     C_R   0.463013 0.188754 0.499756 -0.139710
C22   C     C_R   0.537593 0.811042 0.499151 -0.159951
C23   C     C_R   0.602255 0.962603 0.579762 -0.086350
C24   C     C_R   0.398624 0.037334 0.418532 -0.096785
C25   C     C_R   0.604274 0.856947 0.562935 -0.225558
C26   C     C_R   0.395422 0.142787 0.436555 -0.235836
C27   C     C_R   0.471931 0.869638 0.447589 0.240262
C28   C     C_R   0.530648 0.130169 0.549566 0.276568
C29   C     C_R   0.467487 0.976417 0.465547 0.003102
C30   C     C_R   0.533858 0.023323 0.532194 0.006908
H5    H     H_    0.345306 0.189816 0.397260 0.185997
H6    H     H_    0.653305 0.809890 0.603128 0.196772
H7    H     H_    0.652049 0.995174 0.631893 0.216278
H8    H     H_    0.348876 0.005249 0.366269 0.219997
N1    N     N_R   0.207800 0.519350 0.516680 -0.160864
N2    N     N_R   0.792200 0.480650 0.483320 -0.165990
C31   C     C_R   0.954053 0.396327 0.420226 0.170696
C32   C     C_R   0.045399 0.599472 0.583648 0.151873
C33   C     C_R   0.837237 0.408449 0.426271 0.575978
C34   C     C_R   0.162874 0.590491 0.574867 0.570813
C35   C     C_R   0.858094 0.543090 0.534739 -0.039988
C36   C     C_R   0.141840 0.456002 0.466111 -0.032625
C37   C     C_R   0.975803 0.537242 0.529100 -0.119612
C38   C     C_R   0.024452 0.463485 0.470229 -0.122846
H9    H     H_    0.182106 0.399389 0.423330 0.194252
H10   H     H_    0.817499 0.596606 0.580474 0.200026
N3    N     N_R   0.998637 0.312826 0.367312 0.196531
O9    O     O_R   0.072234 0.333291 0.301038 -0.342195
O10   O     O_R   0.955742 0.217594 0.378287 -0.297861
N4    N     N_R   0.997882 0.667091 0.650772 0.201465
O11   O     O_R   0.021609 0.658233 0.733576 -0.247512
O12   O     O_R   0.942242 0.745256 0.627871 -0.374215
N5    N     N_R   0.796281 0.607633 0.077864 0.231234
O13   O     O_R   0.852782 0.539298 0.115806 -0.335121
O14   O     O_R   0.839124 0.702889 0.067076 -0.261605
N6    N     N_R   0.196703 0.423741 0.922505 0.230424
O15   O     O_R   0.188207 0.337317 0.876537 -0.321920
O16   O     O_R   0.109030 0.477251 0.938477 -0.219784
N7    N     N_R   0.795342 0.610375 0.890548 0.234289
O17   O     O_R   0.888363 0.566187 0.899547 -0.214542
O18   O     O_R   0.795688 0.692356 0.839989 -0.309531
N8    N     N_R   0.194917 0.430679 0.110121 0.239311
O19   O     O_R   0.139168 0.341673 0.098566 -0.256413
O20   O     O_R   0.151609 0.500670 0.162989 -0.288759
N9    N     N_R   0.597182 0.180261 0.615852 0.197319
O21   O     O_R   0.549613 0.233710 0.680362 -0.380510
O22   O     O_R   0.705766 0.185205 0.604389 -0.327889
N10   N     N_R   0.411588 0.819983 0.377328 0.202798
O23   O     O_R   0.464359 0.765916 0.315948 -0.365445
O24   O     O_R   0.302929 0.817226 0.380976 -0.385126
O25   O     O_3   0.233547 0.647474 0.629136 -0.578549
C39   C     C_3   0.234331 0.755526 0.610443 -0.126774
H11   H     H_    0.173905 0.793905 0.657139 0.219874
H12   H     H_    0.217329 0.772600 0.540185 0.171628
H13   H     H_    0.318339 0.792073 0.622138 0.167863
O26   O     O_3   0.766072 0.343791 0.378444 -0.573392
C40   C     C_3   0.781198 0.368685 0.286668 -0.099527
H14   H     H_    0.848881 0.324573 0.253264 0.232469
H15   H     H_    0.798557 0.453978 0.274549 0.154088
H16   H     H_    0.703146 0.344282 0.254562 0.172274

loop_
_geom_bond_atom_site_label_1
_geom_bond_atom_site_label_2
_geom_bond_distance
_ccdc_geom_bond_type
C3    C8    1.436632 S    
C17   C19   1.399562 A    
N7    O18   1.301190 A    
N7    O17   1.300698 A    
C31   N3    1.435516 S    
O7    Zn2   2.018604 S    
O26   C40   1.412702 S    
O25   C39   1.414755 S    
O5    C3    1.287958 A    
O1    C1    1.286953 A    
C9    C11   1.389894 A    
C14   C16   1.417478 A    
C39   H12   1.113544 S    
C5    C15   1.388375 A    
C19   N7    1.435935 S    
N1    C34   1.366450 A    
C1    C22   1.422971 S    
C2    C21   1.424418 S    
O4    Zn1   2.003916 S    
N3    O10   1.301125 A    
C21   C28   1.398462 A    
C4    C7    1.437306 S    
C13   C14   1.393468 A    
N6    O15   1.301135 A    
C23   H7    1.081532 S    
C24   H8    1.080589 S    
C10   H4    1.082052 S    
C11   C17   1.410168 A    
C28   N9    1.439079 S    
C12   C18   1.410177 A    
C35   H10   1.080070 S    
C27   C29   1.395835 A    
C22   C27   1.398715 A    
O2    C2    1.286436 A    
C28   C30   1.393877 A    
C32   C34   1.420260 A    
C6    C16   1.390022 A    
C26   H5    1.084411 S    
N2    C33   1.366145 A    
N5    O13   1.300531 A    
N8    O19   1.301230 A    
O4    C2    1.284379 A    
C32   N4    1.434538 S    
C40   H14   1.108697 S    
N9    O22   1.301373 A    
C39   H11   1.108347 S    
C39   H13   1.109284 S    
C31   C33   1.418442 A    
N4    O12   1.301202 A    
C29   C30   1.425933 A    
C40   H15   1.113726 S    
C20   N8    1.436463 S    
O6    C4    1.290524 A    
C31   C38   1.414164 A    
O7    C3    1.290290 A    
O3    Zn2   2.003916 S    
O8    C4    1.288076 A    
C25   H6    1.084476 S    
Zn1   N1    2.014599 S    
C10   C12   1.387998 A    
N10   O24   1.300906 A    
C11   C13   1.417494 A    
C9    H3    1.081723 S    
C12   C14   1.417007 A    
O1    Zn1   1.974737 S    
C15   C20   1.410450 A    
C5    C7    1.391065 A    
O6    Zn2   2.017470 S    
C22   C25   1.391944 A    
C18   N6    1.435860 S    
N8    O20   1.301339 A    
O3    C1    1.283256 A    
O8    Zn1   2.018604 S    
C34   O25   1.385944 S    
C5    H1    1.082767 S    
C6    H2    1.082477 S    
N1    C36   1.360352 A    
N2    C35   1.361110 A    
C36   H9    1.079578 S    
N4    O11   1.300931 A    
C23   C30   1.401487 A    
C35   C37   1.417507 A    
C21   C26   1.392494 A    
C24   C29   1.402110 A    
C23   C25   1.376408 A    
C40   H16   1.109366 S    
C24   C26   1.378100 A    
C37   C38   1.413691 A    
Zn2   N2    2.014599 S    
C27   N10   1.440242 S    
C18   C20   1.399212 A    
C7    C9    1.390908 A    
C36   C38   1.416680 A    
C8    C10   1.390925 A    
C13   C15   1.417053 A    
N3    O9    1.300649 A    
O2    Zn2   1.974737 S    
C17   N5    1.434737 S    
C32   C37   1.414395 A    
N9    O21   1.301201 A    
O5    Zn1   2.017468 S    
C16   C19   1.409902 A    
C6    C8    1.390161 A    
N10   O23   1.301213 A    
C33   O26   1.383511 S    
N6    O16   1.300838 A    
N5    O14   1.300890 A    
