data_mof_unit_9072.cif
_audit_creation_date              2013-03-05T16:19:41-0500
_audit_creation_method            fapswitch 2.2
_symmetry_space_group_name_H-M    P1
_symmetry_Int_Tables_number       1
_space_group_crystal_system       triclinic
_cell_length_a                    10.818549
_cell_length_b                    9.999576
_cell_length_c                    26.841128
_cell_angle_alpha                 91.071271
_cell_angle_beta                  90.249006
_cell_angle_gamma                 89.043527
_cell_volume                      2902.76178434

loop_
_atom_site_label
_atom_site_type_symbol
_atom_site_description
_atom_site_fract_x
_atom_site_fract_y
_atom_site_fract_z
_atom_type_partial_charge
O1    O     O_R   0.314910 0.616040 0.499990 -0.633604
O2    O     O_R   0.314910 0.383960 0.499990 -0.570778
C1    C     C_R   0.259154 0.500972 0.503861 0.887685
O3    O     O_R   0.500140 0.616020 0.428740 -0.565038
O4    O     O_R   0.500140 0.383980 0.428740 -0.573318
C2    C     C_R   0.499111 0.498774 0.405973 0.901614
Zn1   Zn    Zn3+2 0.500150 0.654960 0.499980 1.002177
Zn2   Zn    Zn3+2 0.500150 0.345040 0.499980 1.017186
O5    O     O_R   0.685320 0.616040 0.499970 -0.635013
O6    O     O_R   0.685320 0.383960 0.499970 -0.603612
O7    O     O_R   0.500090 0.616050 0.571230 -0.612610
O8    O     O_R   0.500090 0.383950 0.571230 -0.587101
C3    C     C_R   0.742039 0.499018 0.500565 0.857078
C4    C     C_R   0.499753 0.501456 0.594415 0.941865
C5    C     C_R   0.329949 0.379194 0.178476 0.607406
O9    O     O_2   0.324883 0.264278 0.203955 -0.518119
N1    N     N_R   0.371138 0.492684 0.201523 -0.340200
C6    C     C_R   0.373483 0.612156 0.177756 0.572618
C7    C     C_R   0.534883 0.490737 0.266772 0.021951
C8    C     C_R   0.564531 0.495129 0.317789 -0.287968
C9    C     C_R   0.346887 0.490446 0.338927 -0.116975
C10   C     C_R   0.315852 0.487022 0.288838 -0.106757
C11   C     C_R   0.408360 0.487872 0.252638 0.234340
C12   C     C_R   0.304801 0.500681 0.101687 -0.050677
C13   C     C_R   0.294040 0.381567 0.128432 -0.114274
C14   C     C_R   0.247500 0.267286 0.104906 -0.153765
C15   C     C_R   0.346804 0.618282 0.126265 -0.068050
C16   C     C_R   0.470765 0.495700 0.353332 0.013785
H1    H     H_    0.274224 0.489790 0.366562 0.139620
H2    H     H_    0.219389 0.485325 0.277913 0.155147
H3    H     H_    0.230323 0.178131 0.125921 0.240424
C17   C     C_R   0.462755 0.506633 0.646891 -0.036911
C18   C     C_R   0.250905 0.374622 0.971907 0.052029
C19   C     C_R   0.256501 0.620746 0.971966 0.058588
C20   C     C_R   0.253453 0.496610 0.945795 0.076159
C21   C     C_R   0.262400 0.253428 0.944151 -0.184294
C22   C     C_R   0.272248 0.252535 0.892540 -0.163177
C23   C     C_R   0.274267 0.372523 0.866738 -0.019686
C24   C     C_R   0.261594 0.494785 0.893150 -0.057564
C25   C     C_R   0.264344 0.615680 0.867146 -0.018973
C26   C     C_R   0.290005 0.612390 0.816070 0.519400
N2    N     N_R   0.310660 0.492586 0.791712 -0.352296
C27   C     C_R   0.297829 0.373701 0.815436 0.523693
C28   C     C_R   0.293687 0.554342 0.703947 -0.090526
C29   C     C_R   0.345795 0.562276 0.657048 -0.169973
C30   C     C_R   0.531368 0.446698 0.685523 -0.047414
C31   C     C_R   0.478000 0.438855 0.732882 -0.124927
C32   C     C_R   0.359340 0.492196 0.742119 0.255153
O10   O     O_2   0.311069 0.257197 0.789646 -0.523035
C33   C     C_R   0.247785 0.378535 0.024883 -0.096283
C34   C     C_R   0.276552 0.500657 0.050097 0.023100
C35   C     C_R   0.281053 0.621711 0.023754 0.055070
C36   C     C_R   0.221534 0.265110 0.054101 0.447476
H4    H     H_    0.292789 0.607903 0.627645 0.189205
H5    H     H_    0.202273 0.596510 0.710612 0.192290
H6    H     H_    0.284300 0.157178 0.873177 0.196055
H7    H     H_    0.274131 0.157726 0.961411 0.206648
O11   O     O_2   0.398780 0.723948 0.204490 -0.506665
C37   C     C_R   0.359677 0.736501 0.098584 -0.023622
H8    H     H_    0.660117 0.496913 0.330042 0.170913
C38   C     C_R   0.243626 0.739850 0.944794 -0.235580
C39   C     C_R   0.248120 0.737199 0.893103 -0.124232
O12   O     O_2   0.300018 0.728235 0.791489 -0.541259
C40   C     C_R   0.321858 0.738012 0.048825 -0.257383
H9    H     H_    0.231597 0.836676 0.962789 0.152479
H10   H     H_    0.244093 0.831308 0.873750 0.191563
H11   H     H_    0.530495 0.396351 0.763395 0.168132
H12   H     H_    0.336970 0.829126 0.028917 0.169654
C41   C     C_3   0.067664 0.640570 0.524221 -0.248497
C42   C     C_3   0.072858 0.387496 0.541310 -0.222733
H13   H     H_    0.110572 0.712866 0.499609 0.193475
H14   H     H_    0.094619 0.291473 0.521146 0.180139
C43   C     C_3   0.926795 0.644168 0.515069 -0.227141
C44   C     C_3   0.930077 0.404663 0.545679 -0.259874
H15   H     H_    0.878095 0.678600 0.549680 0.164740
H16   H     H_    0.907638 0.459428 0.580678 0.211832
H17   H     H_    0.094935 0.556593 0.428749 0.199307
H18   H     H_    0.121280 0.381915 0.436564 0.231414
H19   H     H_    0.890026 0.492137 0.419994 0.218317
H20   H     H_    0.919982 0.337534 0.448181 0.257429
C45   C     C_3   0.074616 0.471283 0.453258 -0.435226
C46   C     C_3   0.122457 0.500947 0.507471 -0.073548
C47   C     C_3   0.879377 0.497680 0.502783 -0.047537
C48   C     C_3   0.934915 0.446274 0.452894 -0.342729
C49   C     C_3   0.377796 0.083147 0.481815 -0.192616
C50   C     C_3   0.372719 0.926042 0.491085 -0.168162
H21   H     H_    0.304468 0.129084 0.505355 0.183460
H22   H     H_    0.323649 0.915441 0.526798 0.222008
C51   C     C_3   0.598924 0.075716 0.465679 -0.247859
C52   C     C_3   0.587477 0.916225 0.460709 -0.228983
C53   C     C_3   0.527389 0.083475 0.549806 -0.238720
C54   C     C_3   0.549563 0.924961 0.547329 -0.235863
N3    N     N_3   0.499750 0.138610 0.498940 -0.155502
N4    N     N_3   0.499750 0.861390 0.498940 -0.144079
H23   H     H_    0.616387 0.127227 0.561938 0.153363
H24   H     H_    0.652300 0.911025 0.547840 0.145885
H25   H     H_    0.688263 0.090246 0.485438 0.186923
H26   H     H_    0.679928 0.876568 0.470712 0.150529
C55   C     C_2   0.636535 0.488193 0.229494 0.961613
O13   O     O_2   0.741065 0.519396 0.242201 -0.611488
O14   O     O_R   0.614417 0.448240 0.180099 -0.799728
H27   H     H_    0.691256 0.450945 0.158678 0.351863
C56   C     C_2   0.424024 0.856745 0.117818 1.010940
O15   O     O_2   0.377325 0.967656 0.112352 -0.618247
O16   O     O_R   0.541312 0.843763 0.139488 -0.746784
H28   H     H_    0.576504 0.933076 0.150334 0.361808
C57   C     C_2   0.661664 0.404566 0.679240 0.974913
O17   O     O_2   0.702058 0.306238 0.700772 -0.544795
O18   O     O_R   0.740798 0.483328 0.651803 -0.799886
H29   H     H_    0.830459 0.456553 0.657171 0.392024
C58   C     C_2   0.095970 0.692322 0.576367 0.892012
O19   O     O_2   0.057453 0.635764 0.612978 -0.632134
O20   O     O_R   0.152191 0.816181 0.582190 -0.735258
H30   H     H_    0.153887 0.848321 0.618235 0.374863
C59   C     C_2   0.134153 0.371575 0.591974 0.931703
O21   O     O_2   0.245921 0.358323 0.594692 -0.641405
O22   O     O_R   0.063608 0.362758 0.635349 -0.754610
H31   H     H_    0.116153 0.348158 0.666200 0.360381
C60   C     C_2   0.899602 0.752622 0.477430 0.968763
O23   O     O_2   0.888832 0.726352 0.433094 -0.579735
O24   O     O_R   0.901503 0.886141 0.493749 -0.761367
H32   H     H_    0.892085 0.950867 0.465297 0.382903
C61   C     C_2   0.875117 0.267078 0.550582 0.975110
O25   O     O_2   0.884268 0.184429 0.516671 -0.619853
O26   O     O_R   0.823499 0.231397 0.595951 -0.750462
H33   H     H_    0.805952 0.132336 0.597489 0.356675
C62   C     C_2   0.334212 0.130468 0.429775 1.015599
O27   O     O_2   0.307088 0.247233 0.423624 -0.633053
O28   O     O_R   0.314714 0.043154 0.389446 -0.703237
H34   H     H_    0.283486 0.089714 0.358462 0.375440
C63   C     C_2   0.279851 0.859723 0.456320 1.014035
O29   O     O_2   0.173177 0.902667 0.457062 -0.624700
O30   O     O_R   0.311576 0.760715 0.421443 -0.711239
H35   H     H_    0.239000 0.732193 0.399963 0.333148
C64   C     C_2   0.625032 0.147015 0.417317 0.985720
O31   O     O_2   0.554475 0.141353 0.381773 -0.574779
O32   O     O_R   0.735509 0.216035 0.412696 -0.805690
H36   H     H_    0.743960 0.259509 0.379078 0.334638
C65   C     C_2   0.578708 0.860261 0.407691 1.046408
O33   O     O_2   0.490028 0.882950 0.381112 -0.500926
O34   O     O_R   0.677932 0.785791 0.387895 -0.768631
H37   H     H_    0.664034 0.756966 0.351921 0.356066
C66   C     C_2   0.437424 0.127097 0.591362 1.045522
O35   O     O_2   0.479129 0.177139 0.629686 -0.589815
O36   O     O_R   0.312165 0.095079 0.589588 -0.778398
H38   H     H_    0.268015 0.114603 0.622234 0.377233
C67   C     C_2   0.514966 0.861761 0.596089 1.002245
O37   O     O_2   0.596677 0.828799 0.625356 -0.587841
O38   O     O_R   0.391846 0.848091 0.609633 -0.784545
H39   H     H_    0.382662 0.824823 0.645985 0.349591
O39   O     O_3   0.170180 0.150150 0.034338 -0.652818
C68   C     C_3   0.041170 0.169891 0.030048 0.062609
H40   H     H_    0.019064 0.253341 0.004333 0.151197
H41   H     H_    0.999730 0.192577 0.067309 0.153302
C69   C     C_3   0.984511 0.041738 0.008909 -0.319197
H42   H     H_    0.025166 0.018104 0.971719 0.223897
H43   H     H_    0.006635 0.957385 0.034042 0.240428
C70   C     C_3   0.844419 0.055982 0.003643 -0.900739
H44   H     H_    0.801694 0.078139 0.040528 0.271467
H45   H     H_    0.806203 0.961009 0.988550 0.271494
H46   H     H_    0.820310 0.137705 0.977656 0.267158

loop_
_geom_bond_atom_site_label_1
_geom_bond_atom_site_label_2
_geom_bond_distance
_ccdc_geom_bond_type
O14   H27   1.013826 S    
C43   C60   1.520212 S    
C69   H43   1.112191 S    
C57   O18   1.394730 S    
C26   N2    1.369542 A    
C20   C24   1.415947 A    
C67   O37   1.225201 D    
C28   H5    1.082896 S    
C12   C15   1.418032 A    
C44   C47   1.584033 S    
H20   C48   1.106789 S    
C52   C65   1.522525 S    
O38   H39   1.012989 S    
C61   O25   1.221150 D    
C49   C50   1.597033 S    
Zn1   O7    1.958732 S    
C37   C40   1.395430 A    
N1    C11   1.429618 S    
O26   H33   1.013336 S    
C44   H16   1.104373 S    
C51   C64   1.522388 S    
C40   H12   1.079949 S    
C21   C22   1.389706 A    
C67   O38   1.391830 S    
O28   H34   1.014548 S    
O36   H38   1.014015 S    
O4    C2    1.310335 A    
O7    C4    1.314221 A    
C50   H22   1.105468 S    
C50   C63   1.520149 S    
C61   O26   1.396764 S    
C5    O9    1.350166 S    
C66   O36   1.398030 S    
C54   H24   1.117918 S    
C18   C21   1.414632 A    
C25   C39   1.398244 A    
Zn1   O5    2.034337 S    
C19   C20   1.415611 A    
C17   C29   1.399572 A    
C41   H13   1.098301 S    
O5    C3    1.312528 A    
C41   C46   1.566528 S    
C50   N4    1.524474 S    
C70   H46   1.111292 S    
C22   H6    1.083623 S    
C49   N3    1.506391 S    
C6    O11   1.348336 S    
C2    C16   1.444391 S    
C58   O19   1.221212 D    
C59   O22   1.399830 S    
N1    C6    1.365474 A    
C42   C44   1.556041 S    
O39   C68   1.410842 S    
C41   C43   1.542551 S    
C8    H8    1.084100 S    
C12   C34   1.416756 A    
C49   H21   1.104946 S    
C44   C61   1.516042 S    
C14   H3    1.082938 S    
C9    C10   1.384276 A    
C69   C70   1.526106 S    
C70   H45   1.110947 S    
C43   H15   1.115987 S    
O3    Zn1   1.944259 S    
C31   H11   1.083908 S    
C52   N4    1.517010 S    
C53   C66   1.535837 S    
C60   O24   1.397802 S    
C69   H42   1.112341 S    
C33   C36   1.424086 A    
C39   H10   1.083527 S    
C34   C35   1.414880 A    
C31   C32   1.403174 A    
C64   O31   1.220307 D    
C12   C13   1.408864 A    
C58   O20   1.394785 S    
C21   H7    1.076380 S    
C35   C40   1.409068 A    
C53   C54   1.599355 S    
C7    C55   1.489600 S    
C27   O10   1.349830 S    
C8    C16   1.395427 A    
C18   C33   1.422280 A    
C9    H1    1.083333 S    
C19   C38   1.412741 A    
C45   C46   1.567095 S    
C51   H25   1.110805 S    
O1    C1    1.314069 A    
C70   H44   1.111437 S    
C7    C11   1.419407 A    
C62   O28   1.395483 S    
C22   C23   1.397052 A    
C38   H9    1.080053 S    
C53   N3    1.508811 S    
C47   C48   1.545738 S    
C68   C69   1.528339 S    
H17   C45   1.112337 S    
Zn2   O8    1.944470 S    
C30   C57   1.473952 S    
C1    C46   1.482449 S    
C54   N4    1.534888 S    
C33   C34   1.423399 A    
C56   O16   1.398627 S    
N2    C32   1.433568 S    
C65   O34   1.397369 S    
C60   O23   1.219380 D    
O24   H32   1.013969 S    
O3    C2    1.312132 A    
C25   C26   1.399608 A    
C55   O14   1.398298 S    
C9    C16   1.394792 A    
C68   H41   1.115667 S    
C29   H4    1.077331 S    
O30   H35   1.013714 S    
C49   C62   1.552064 S    
N2    C27   1.368420 A    
C26   O12   1.349942 S    
C57   O17   1.223295 D    
C63   O29   1.224740 D    
C14   C36   1.390945 A    
C24   C25   1.407991 A    
C45   C48   1.535992 S    
C28   C29   1.385673 A    
O20   H30   1.013954 S    
O16   H28   1.013889 S    
C64   O32   1.397232 S    
Zn1   N4    2.064856 S    
C30   C31   1.402496 A    
C10   H2    1.083087 S    
H19   C48   1.109032 S    
O1    Zn1   2.047838 S    
C17   C30   1.409639 A    
O2    Zn2   2.035081 S    
C6    C15   1.412881 A    
C4    C17   1.465690 S    
C63   O30   1.389660 S    
O6    C3    1.312750 A    
O4    Zn2   1.958525 S    
C65   O33   1.213959 D    
C5    N1    1.362851 A    
C62   O27   1.213257 D    
C42   C59   1.520219 S    
O32   H36   1.014042 S    
C3    C47   1.486570 S    
C19   C35   1.413949 A    
C55   O13   1.223516 D    
C37   C56   1.482736 S    
C7    C8    1.405116 A    
O2    C1    1.310023 A    
C13   C14   1.395574 A    
C23   C27   1.401793 A    
C15   C37   1.417090 A    
O34   H37   1.013832 S    
C41   C58   1.514962 S    
H18   C45   1.107313 S    
C59   O21   1.216233 D    
C23   C24   1.406730 A    
C18   C20   1.418879 A    
C43   C47   1.588438 S    
C51   N3    1.519381 S    
C38   C39   1.388244 A    
C42   C46   1.569383 S    
C5    C13   1.397177 A    
C53   H23   1.109279 S    
C28   C32   1.393977 A    
O8    C4    1.319277 A    
C68   H40   1.115060 S    
Zn2   O6    2.047094 S    
Zn2   N3    2.063957 S    
O18   H29   1.012373 S    
C56   O15   1.222096 D    
C36   O39   1.381113 S    
C10   C11   1.398156 A    
C42   H14   1.115540 S    
C51   C52   1.604723 S    
O22   H31   1.013808 S    
C52   H26   1.103694 S    
C66   O35   1.223252 D    
C54   C67   1.515068 S    
