data_mof_unit_60554.cif
_audit_creation_date              2013-03-05T16:27:59-0500
_audit_creation_method            fapswitch 2.2
_symmetry_space_group_name_H-M    P1
_symmetry_Int_Tables_number       1
_space_group_crystal_system       triclinic
_cell_length_a                    28.256941
_cell_length_b                    18.24031
_cell_length_c                    21.660788
_cell_angle_alpha                 90.030485
_cell_angle_beta                  139.809144
_cell_angle_gamma                 90.006627
_cell_volume                      7204.72078998

loop_
_atom_site_label
_atom_site_type_symbol
_atom_site_description
_atom_site_fract_x
_atom_site_fract_y
_atom_site_fract_z
_atom_type_partial_charge
O1    O     O_R   0.892660 0.939370 0.892650 -0.605694
O2    O     O_R   0.107340 0.060630 0.107350 -0.610424
O3    O     O_R   0.107340 0.939370 0.107350 -0.624939
O4    O     O_R   0.892660 0.060630 0.892650 -0.613539
O5    O     O_R   0.392660 0.439370 0.892650 -0.620842
O6    O     O_R   0.607340 0.560630 0.107350 -0.610885
O7    O     O_R   0.607340 0.439370 0.107350 -0.620923
O8    O     O_R   0.392660 0.560630 0.892650 -0.609698
C1    C     C_R   0.858701 0.999976 0.858530 0.905222
C2    C     C_R   0.141300 0.000025 0.141474 0.890067
C3    C     C_R   0.358699 0.499976 0.858697 0.900818
C4    C     C_R   0.641301 0.500026 0.141302 0.900063
O9    O     O_R   0.999980 0.939370 0.907380 -0.634076
O10   O     O_R   0.000020 0.060630 0.092620 -0.609515
O11   O     O_R   0.000020 0.939370 0.092620 -0.542840
O12   O     O_R   0.999980 0.060630 0.907380 -0.541177
O13   O     O_R   0.499980 0.439370 0.907380 -0.618731
O14   O     O_R   0.500020 0.560630 0.092620 -0.551434
O15   O     O_R   0.500020 0.439370 0.092620 -0.618122
O16   O     O_R   0.499980 0.560630 0.907380 -0.551028
C5    C     C_R   0.998239 0.000039 0.876764 0.943430
C6    C     C_R   0.002851 0.000222 0.124267 0.987130
C7    C     C_R   0.503259 0.499850 0.881833 0.977065
C8    C     C_R   0.496921 0.499871 0.118355 0.978523
Zn1   Zn    Zn3+2 0.000000 0.919050 0.000000 1.045378
Zn2   Zn    Zn3+2 0.000000 0.080950 0.000000 1.058468
Zn3   Zn    Zn3+2 0.500000 0.419050 0.000000 0.994846
Zn4   Zn    Zn3+2 0.500000 0.580950 0.000000 1.073065
C9    C     C_3   0.931171 0.950897 0.717616 0.706329
C10   C     C_3   0.062597 0.060600 0.275431 0.674274
C11   C     C_3   0.024068 0.922094 0.239938 0.696585
C12   C     C_3   0.988436 0.082118 0.773675 0.751086
C13   C     C_3   0.515376 0.419027 0.799471 0.705267
C14   C     C_3   0.575871 0.529558 0.286127 0.668228
C15   C     C_3   0.485722 0.418916 0.201562 0.705742
C16   C     C_3   0.423950 0.528447 0.713781 0.668162
C17   C     C_3   0.941665 0.936578 0.656589 0.077649
C18   C     C_3   0.053733 0.071119 0.339026 0.065540
C19   C     C_3   0.034404 0.927357 0.323177 0.009466
C20   C     C_3   0.974522 0.079140 0.687361 -0.011187
C21   C     C_3   0.520244 0.422121 0.731316 0.047549
C22   C     C_3   0.579627 0.528944 0.363146 0.048258
C23   C     C_3   0.480697 0.421929 0.269558 0.046468
C24   C     C_3   0.420137 0.527890 0.636708 0.048922
C25   C     C_3   0.075313 0.968752 0.862012 0.539166
C26   C     C_3   0.922484 0.022534 0.134380 0.578618
C27   C     C_3   0.566676 0.552309 0.852730 0.500883
C28   C     C_3   0.432908 0.551536 0.146849 0.500431
C29   C     C_3   0.998577 0.999951 0.808975 -0.332678
C30   C     C_3   0.002735 0.001776 0.192241 -0.305003
C31   C     C_3   0.502546 0.500151 0.812970 -0.250154
C32   C     C_3   0.497627 0.500215 0.187213 -0.249556
C33   C     C_3   0.998303 0.998378 0.687920 -0.226288
C34   C     C_3   0.001770 0.005324 0.312142 -0.201275
C35   C     C_3   0.499632 0.503685 0.689354 -0.213191
C36   C     C_3   0.500385 0.503736 0.310673 -0.212327
C37   C     C_3   0.078732 0.977549 0.793313 0.745913
C38   C     C_3   0.919832 0.017888 0.204123 0.660792
C39   C     C_3   0.560076 0.560408 0.773621 0.672420
C40   C     C_3   0.439331 0.559698 0.225797 0.672485
C41   C     C_1   0.782161 0.999933 0.781865 -0.157539
C42   C     C_1   0.217839 0.000067 0.218137 -0.150428
C43   C     C_1   0.282160 0.499936 0.781957 -0.154522
C44   C     C_1   0.717840 0.500071 0.218042 -0.154721
C45   C     C_1   0.717297 0.999946 0.716988 -0.155989
C46   C     C_1   0.282703 0.000056 0.283013 -0.154153
C47   C     C_1   0.217297 0.499949 0.717013 -0.154416
C48   C     C_1   0.782703 0.500060 0.282986 -0.154892
O17   O     O_R   0.939350 0.892680 0.439340 -0.619703
O18   O     O_R   0.060650 0.107320 0.560660 -0.631557
O19   O     O_R   0.060650 0.892680 0.560660 -0.606553
O20   O     O_R   0.939350 0.107320 0.439340 -0.629509
O21   O     O_R   0.439350 0.392680 0.439340 -0.616932
O22   O     O_R   0.560650 0.607320 0.560660 -0.622986
O23   O     O_R   0.560650 0.392680 0.560660 -0.619175
O24   O     O_R   0.439350 0.607320 0.439340 -0.624531
C49   C     C_R   0.999975 0.858715 0.499957 0.942132
C50   C     C_R   0.000026 0.141287 0.500051 0.931293
C51   C     C_R   0.499975 0.358715 0.499977 0.892460
C52   C     C_R   0.500025 0.641289 0.500015 0.945845
O25   O     O_R   0.939380 1.000000 0.531980 -0.644251
O26   O     O_R   0.060620 0.000000 0.468020 -0.617514
O27   O     O_R   0.439380 0.500000 0.531980 -0.646374
O28   O     O_R   0.560620 0.500000 0.468020 -0.646352
O29   O     O_R   0.060570 0.000000 0.653170 -0.558107
O30   O     O_R   0.939430 0.000000 0.346830 -0.609732
O31   O     O_R   0.560570 0.500000 0.653170 -0.552495
O32   O     O_R   0.439430 0.500000 0.346830 -0.552021
C53   C     C_R   0.999634 0.998128 0.621135 1.009943
C54   C     C_R   0.000268 0.004984 0.378868 1.032421
C55   C     C_R   0.499760 0.504713 0.621177 1.026049
C56   C     C_R   0.500240 0.504770 0.378833 1.025263
Zn5   Zn    Zn3+2 0.919050 0.000000 0.419040 0.980931
Zn6   Zn    Zn3+2 0.080950 0.000000 0.580960 1.017017
Zn7   Zn    Zn3+2 0.419050 0.500000 0.419040 1.018743
Zn8   Zn    Zn3+2 0.580950 0.500000 0.580960 1.018203
O33   O     O_R   0.499910 0.107290 0.447610 -0.617823
O34   O     O_R   0.500090 0.892710 0.552390 -0.610851
O35   O     O_R   0.500090 0.107290 0.552390 -0.619124
O36   O     O_R   0.499910 0.892710 0.447610 -0.611261
O37   O     O_R   0.999910 0.607290 0.447610 -0.616159
O38   O     O_R   0.000090 0.392710 0.552390 -0.616803
O39   O     O_R   0.000090 0.607290 0.552390 -0.613743
O40   O     O_R   0.999910 0.392710 0.447610 -0.613208
C57   C     C_R   0.499984 0.140733 0.499998 0.916183
C58   C     C_R   0.500016 0.859269 0.500002 0.915321
C59   C     C_R   0.999982 0.640732 0.499995 0.915985
C60   C     C_R   0.000019 0.359268 0.500007 0.914808
O41   O     O_R   0.607280 0.000000 0.555010 -0.612368
O42   O     O_R   0.392720 0.000000 0.444990 -0.612961
O43   O     O_R   0.107280 0.500000 0.555010 -0.613272
O44   O     O_R   0.892720 0.500000 0.444990 -0.613546
O45   O     O_R   0.607300 0.000000 0.659580 -0.614085
O46   O     O_R   0.392700 0.000000 0.340420 -0.611668
O47   O     O_R   0.107300 0.500000 0.659580 -0.610841
O48   O     O_R   0.892700 0.500000 0.340420 -0.610994
C61   C     C_R   0.640736 0.999985 0.640630 0.915863
C62   C     C_R   0.359264 0.000017 0.359370 0.915139
C63   C     C_R   0.140735 0.499986 0.640632 0.914589
C64   C     C_R   0.859264 0.500019 0.359368 0.914117
Zn9   Zn    Zn3+2 0.499950 1.000000 0.430140 1.003898
Zn10  Zn    Zn3+2 0.500050 1.000000 0.569860 1.000794
Zn11  Zn    Zn3+2 0.999950 0.500000 0.430140 1.005232
Zn12  Zn    Zn3+2 0.000050 0.500000 0.569860 1.004479
C65   C     C_1   0.999930 0.782166 0.499944 -0.170866
C66   C     C_1   0.000071 0.217834 0.500066 -0.163361
C67   C     C_1   0.499933 0.282167 0.499959 -0.183047
C68   C     C_1   0.500067 0.717837 0.500036 -0.134440
C69   C     C_1   0.499945 0.217304 0.499981 -0.172422
C70   C     C_1   0.500055 0.782701 0.500018 -0.157576
C71   C     C_1   0.999942 0.717302 0.499973 -0.167025
C72   C     C_1   0.000060 0.282698 0.500034 -0.170712
O49   O     O_3   0.921910 0.883909 0.740719 -0.754735
H1    H     H_    0.967167 0.854581 0.785074 0.379870
O50   O     O_3   0.061463 0.129898 0.244472 -0.754572
H2    H     H_    0.011438 0.147753 0.187605 0.381825
O51   O     O_3   0.970605 0.869426 0.169295 -0.723227
H3    H     H_    0.927907 0.871220 0.154552 0.378414
O52   O     O_3   0.049642 0.125959 0.851361 -0.746142
H4    H     H_    0.090126 0.119822 0.862169 0.378576
O53   O     O_3   0.581681 0.389804 0.889686 -0.787891
H5    H     H_    0.571765 0.358994 0.916563 0.359273
O54   O     O_3   0.590678 0.600008 0.275989 -0.744154
H6    H     H_    0.558509 0.637231 0.262373 0.363603
O55   O     O_3   0.419799 0.388820 0.111613 -0.786765
H7    H     H_    0.430213 0.357231 0.085784 0.359361
O56   O     O_3   0.408329 0.598661 0.723246 -0.745101
H8    H     H_    0.440136 0.636310 0.736621 0.363623
O57   O     O_3   0.865488 0.990055 0.661615 -0.715706
H9    H     H_    0.855233 0.990837 0.696444 0.365733
O58   O     O_3   0.132835 0.032278 0.332351 -0.734712
H10   H     H_    0.140605 0.034309 0.294728 0.364422
O59   O     O_3   0.090047 0.898981 0.277747 -0.733135
H11   H     H_    0.097895 0.846815 0.296935 0.351472
O60   O     O_3   0.927028 0.113925 0.742039 -0.710136
H12   H     H_    0.930311 0.167989 0.740379 0.351639
O61   O     O_3   0.455889 0.373806 0.758454 -0.733574
H13   H     H_    0.471048 0.321670 0.770530 0.331339
O62   O     O_3   0.631145 0.483177 0.317305 -0.715695
H14   H     H_    0.638262 0.494289 0.279927 0.359338
O63   O     O_3   0.545807 0.374554 0.243176 -0.734760
H15   H     H_    0.531443 0.322191 0.232042 0.330956
O64   O     O_3   0.369251 0.481288 0.683110 -0.715020
H16   H     H_    0.361957 0.492302 0.720317 0.359667
N1    N     N_3   0.869932 0.936285 0.552494 -0.410853
H17   H     H_    0.839454 0.890534 0.535936 0.205511
H18   H     H_    0.836055 0.980548 0.528304 0.262380
N2    N     N_3   0.127248 0.069613 0.441513 -0.386039
H19   H     H_    0.125213 0.094027 0.483144 0.204183
H20   H     H_    0.163017 0.103755 0.452617 0.236915
N3    N     N_3   0.112908 0.922331 0.419243 -0.376033
H21   H     H_    0.129596 0.867544 0.438589 0.190071
H22   H     H_    0.149082 0.946055 0.424209 0.284651
N4    N     N_3   0.895861 0.091352 0.596705 -0.378891
H23   H     H_    0.886656 0.093537 0.540025 0.215008
H24   H     H_    0.880219 0.143662 0.595815 0.211956
N5    N     N_3   0.468683 0.368803 0.652097 -0.431859
H25   H     H_    0.475224 0.367720 0.610707 0.192999
H26   H     H_    0.481730 0.315596 0.679241 0.189051
N6    N     N_3   0.638460 0.479246 0.443862 -0.387261
H27   H     H_    0.689805 0.502839 0.486600 0.210170
H28   H     H_    0.639326 0.429230 0.421511 0.282936
N7    N     N_3   0.532778 0.369245 0.349310 -0.432673
H29   H     H_    0.526121 0.368037 0.390570 0.193563
H30   H     H_    0.520323 0.315885 0.322683 0.188726
N8    N     N_3   0.361833 0.477503 0.556434 -0.386532
H31   H     H_    0.310241 0.500454 0.513494 0.210258
H32   H     H_    0.361492 0.427455 0.579223 0.283743
N9    N     N_3   0.973569 0.863148 0.677927 -0.375804
H33   H     H_    0.937366 0.821994 0.656119 0.208192
H34   H     H_    0.979677 0.854953 0.636458 0.209640
N10   N     N_3   0.021465 0.143423 0.322596 -0.440705
H35   H     H_    0.980419 0.159659 0.251363 0.274080
H36   H     H_    0.061445 0.184400 0.358855 0.203618
N11   N     N_3   0.999346 0.865064 0.321102 -0.452132
H37   H     H_    0.942788 0.865500 0.268394 0.252743
H38   H     H_    0.014596 0.815379 0.315836 0.200069
N12   N     N_3   0.012635 0.138925 0.691798 -0.480149
H39   H     H_    0.068836 0.133721 0.742643 0.255887
H40   H     H_    0.002437 0.189132 0.703365 0.202662
N13   N     N_3   0.594531 0.401684 0.783125 -0.384365
H41   H     H_    0.636445 0.423651 0.851846 0.314003
H42   H     H_    0.601646 0.344888 0.793166 0.191642
N14   N     N_3   0.598265 0.603276 0.404373 -0.455180
H43   H     H_    0.648461 0.620066 0.435694 0.222922
H44   H     H_    0.606160 0.603668 0.459927 0.228344
N15   N     N_3   0.406598 0.400595 0.217844 -0.383972
H45   H     H_    0.364496 0.421980 0.148870 0.314059
H46   H     H_    0.400111 0.343709 0.208435 0.193171
N16   N     N_3   0.400658 0.602038 0.594834 -0.456049
H47   H     H_    0.350306 0.618160 0.563442 0.220863
H48   H     H_    0.392683 0.602489 0.539215 0.228221
O65   O     O_3   0.083059 0.893520 0.883954 -0.774077
H49   H     H_    0.101060 0.887844 0.944797 0.352038
O66   O     O_3   0.903576 0.093886 0.096068 -0.806539
H50   H     H_    0.850017 0.100448 0.049094 0.381140
O67   O     O_3   0.870618 0.973532 0.056671 -0.765891
H51   H     H_    0.862168 0.987515 0.004533 0.345987
O68   O     O_3   0.135024 0.007486 0.948041 -0.764469
H52   H     H_    0.135540 0.999848 0.993848 0.328384
O69   O     O_3   0.635060 0.520108 0.935573 -0.730548
H53   H     H_    0.642571 0.524361 0.988331 0.353112
O70   O     O_3   0.434339 0.620944 0.119443 -0.796058
H54   H     H_    0.388677 0.647062 0.085840 0.361987
O71   O     O_3   0.364907 0.518466 0.064291 -0.730093
H55   H     H_    0.357378 0.522677 0.011520 0.353258
O72   O     O_3   0.564534 0.621703 0.879478 -0.795889
H56   H     H_    0.609892 0.648387 0.912757 0.362067
O73   O     O_3   0.102599 0.911512 0.788973 -0.729296
H57   H     H_    0.152054 0.899050 0.854312 0.364154
O74   O     O_3   0.890130 0.084049 0.198317 -0.790249
H58   H     H_    0.860041 0.074104 0.205542 0.367256
O75   O     O_3   0.872873 0.959948 0.174909 -0.800493
H59   H     H_    0.821651 0.974044 0.113658 0.374575
O76   O     O_3   0.129633 0.032452 0.827527 -0.800130
H60   H     H_    0.180087 0.015003 0.886706 0.369951
O77   O     O_3   0.629064 0.544982 0.815989 -0.694706
H61   H     H_    0.662831 0.585711 0.860737 0.374939
O78   O     O_3   0.456324 0.631468 0.263796 -0.782699
H62   H     H_    0.481798 0.660805 0.257676 0.352033
O79   O     O_3   0.370476 0.543385 0.183465 -0.694703
H63   H     H_    0.336279 0.583692 0.138311 0.374480
O80   O     O_3   0.542258 0.631967 0.734908 -0.782068
H64   H     H_    0.516438 0.660935 0.740728 0.352135

loop_
_geom_bond_atom_site_label_1
_geom_bond_atom_site_label_2
_geom_bond_distance
_ccdc_geom_bond_type
O37   C59   1.286612 A    
C17   N9    1.478056 S    
N3    H21   1.046558 S    
O4    C1    1.267447 A    
C19   N3    1.485670 S    
C8    C32   1.476341 S    
N1    H17   1.046110 S    
O26   Zn6   2.041480 S    
O48   Zn11  1.990723 S    
O31   C55   1.273200 A    
O18   C50   1.267717 A    
N13   H41   1.041546 S    
C22   N14   1.480930 S    
O64   H16   0.992965 S    
C14   C22   1.588755 S    
C9    O49   1.418649 S    
N7    H29   1.044732 S    
C38   O75   1.412147 S    
O42   C62   1.286310 A    
C5    C29   1.475689 S    
O63   H15   0.992595 S    
O41   C61   1.286312 A    
O50   H2    0.980728 S    
O40   Zn11  1.993616 S    
C9    C29   1.607379 S    
O65   H49   0.991124 S    
C18   N2    1.482813 S    
N3    H22   1.037067 S    
C25   C37   1.571436 S    
C40   O79   1.410240 S    
C15   O63   1.418734 S    
C20   N12   1.483154 S    
C10   O50   1.420059 S    
O14   C8    1.273519 A    
C44   C48   1.182822 T    
C39   O80   1.420103 S    
C39   O77   1.410212 S    
O78   H62   0.983780 S    
O44   Zn12  1.995278 S    
C35   C39   1.598104 S    
N7    H30   1.045470 S    
O24   Zn7   1.991948 S    
O6    C4    1.267525 A    
C4    C44   1.395741 S    
O11   Zn1   2.039554 S    
C19   C34   1.610538 S    
O54   H6    0.982351 S    
O7    Zn3   1.991871 S    
C10   C18   1.588713 S    
O43   C63   1.286357 A    
O79   H63   0.993916 S    
C15   O55   1.421666 S    
C23   N7    1.480358 S    
N9    H34   1.046761 S    
N4    H23   1.043437 S    
C21   C35   1.603621 S    
O20   C50   1.267662 A    
C38   O74   1.419750 S    
O56   H8    0.982409 S    
C22   C36   1.621092 S    
O5    Zn3   1.992464 S    
O46   Zn9   1.990723 S    
O17   C49   1.267712 A    
O11   C6    1.274253 A    
O6    Zn4   1.992462 S    
O45   Zn10  1.990723 S    
O32   C56   1.273092 A    
C22   N6    1.484476 S    
O33   Zn9   1.993220 S    
N5    H26   1.045489 S    
O80   H64   0.983848 S    
C16   O64   1.414421 S    
C25   O65   1.413753 S    
O58   H10   0.993525 S    
O38   C60   1.286598 A    
N12   H39   1.035351 S    
C25   C29   1.593880 S    
C11   O51   1.418782 S    
C15   C23   1.584895 S    
O75   H59   0.993922 S    
C6    C30   1.475118 S    
C28   C40   1.582715 S    
C17   C33   1.622331 S    
C14   O62   1.414430 S    
O40   C60   1.286712 A    
N2    H20   1.046674 S    
C10   C30   1.612528 S    
O32   Zn7   2.038202 S    
N1    H18   1.037813 S    
C26   O67   1.417491 S    
O22   C52   1.267752 A    
O77   H61   0.993935 S    
C26   C38   1.571004 S    
C21   N13   1.485350 S    
O1    Zn1   1.992464 S    
N13   H42   1.046173 S    
O62   H14   0.992972 S    
O9    Zn1   2.039944 S    
C2    C42   1.395734 S    
C35   C55   1.479663 S    
O38   Zn12  1.993221 S    
O39   Zn12  1.993615 S    
C49   C65   1.396272 S    
C37   O76   1.411099 S    
O73   H57   0.993139 S    
N6    H28   1.041593 S    
O23   Zn8   1.991950 S    
O55   H7    0.991381 S    
O12   Zn2   2.039556 S    
O7    C4    1.267471 A    
O35   C57   1.286697 A    
C43   C47   1.182822 T    
C14   O54   1.419562 S    
O60   H12   0.993714 S    
C27   C39   1.582683 S    
C60   C72   1.396654 S    
C42   C46   1.182822 T    
C23   N15   1.485347 S    
N15   H45   1.041546 S    
O13   Zn3   2.039944 S    
O22   Zn8   1.992539 S    
O3    Zn1   1.991871 S    
O14   Zn4   2.039942 S    
C12   O52   1.419220 S    
C59   C71   1.396658 S    
O30   C54   1.273730 A    
O68   H52   0.991062 S    
O44   C64   1.286356 A    
C33   C37   1.611044 S    
C17   N1    1.486619 S    
O16   Zn4   2.039556 S    
C13   O53   1.421551 S    
O67   H51   0.992891 S    
C48   C64   1.396112 S    
C19   N11   1.485293 S    
O70   H54   0.993593 S    
O48   C64   1.285886 A    
O61   H13   0.992687 S    
C68   C70   1.183138 T    
N10   H36   1.046586 S    
O66   H50   0.993762 S    
C67   C69   1.183122 T    
O69   H53   0.993157 S    
O30   Zn5   2.038202 S    
C27   C31   1.595304 S    
C12   O60   1.414604 S    
O25   Zn5   2.041480 S    
O29   Zn6   2.038204 S    
C65   C71   1.183142 T    
C16   O56   1.419582 S    
C7    C31   1.476324 S    
O72   H56   0.993585 S    
C18   C34   1.621055 S    
O16   C7    1.273417 A    
C66   C72   1.183140 T    
O76   H60   0.992715 S    
O27   Zn7   2.041480 S    
O31   Zn8   2.038204 S    
C36   C56   1.479629 S    
O71   H55   0.993141 S    
O21   C51   1.267719 A    
O1    C1    1.267552 A    
O2    Zn2   1.992462 S    
C40   O78   1.420095 S    
O13   C7    1.269145 A    
C27   O72   1.412217 S    
O10   Zn2   2.039942 S    
C37   O73   1.418272 S    
O46   C62   1.285931 A    
C16   C31   1.589405 S    
O37   Zn11  1.993220 S    
O35   Zn10  1.993615 S    
O45   C61   1.285931 A    
O20   Zn5   1.991948 S    
N2    H19   1.045761 S    
N14   H44   1.042938 S    
N5    H25   1.044743 S    
N16   H48   1.042824 S    
C12   C20   1.590550 S    
C33   C53   1.475552 S    
O49   H1    0.983983 S    
O8    Zn4   1.991873 S    
C1    C41   1.395745 S    
C16   C24   1.588710 S    
O23   C51   1.267631 A    
O21   Zn7   1.992540 S    
C11   C30   1.610459 S    
N8    H32   1.041579 S    
O27   C55   1.270744 A    
O2    C2    1.267552 A    
O28   Zn8   2.041480 S    
O19   C49   1.267642 A    
C18   N10   1.484035 S    
O15   Zn3   2.039554 S    
N6    H27   1.046226 S    
C34   C38   1.616135 S    
C21   N5    1.480309 S    
C58   C70   1.396626 S    
O43   Zn11  1.995276 S    
C51   C67   1.396254 S    
O36   Zn9   1.993616 S    
O29   C53   1.273581 A    
O47   Zn12  1.990723 S    
O18   Zn6   1.992539 S    
C14   C32   1.589493 S    
O33   C57   1.286636 A    
O24   C52   1.267669 A    
O19   Zn6   1.991950 S    
C57   C69   1.396678 S    
O4    Zn2   1.991873 S    
O52   H4    0.983310 S    
C20   C33   1.615431 S    
O12   C5    1.270055 A    
O5    C3    1.267556 A    
C28   O70   1.412200 S    
C34   C54   1.478044 S    
O36   C58   1.286670 A    
C13   C31   1.602545 S    
C52   C68   1.396265 S    
O51   H3    0.984942 S    
C26   C30   1.585876 S    
O17   Zn5   1.992540 S    
O26   C54   1.270635 A    
C13   C21   1.584884 S    
N10   H35   1.039275 S    
O10   C6    1.267843 A    
N12   H40   1.046240 S    
O15   C8    1.268941 A    
N8    H31   1.046235 S    
O25   C53   1.267321 A    
O3    C2    1.267456 A    
O57   H9    0.993644 S    
O9    C5    1.271903 A    
C20   N4    1.475920 S    
C28   O71   1.415197 S    
C15   C32   1.602780 S    
C24   C35   1.621220 S    
O41   Zn9   1.995276 S    
C10   O58   1.410124 S    
O34   C58   1.286617 A    
O8    C3    1.267438 A    
C25   O68   1.418870 S    
O47   C63   1.285885 A    
C11   C19   1.593934 S    
C24   N16   1.481078 S    
N16   H47   1.046613 S    
C11   O59   1.411422 S    
N9    H33   1.046077 S    
N4    H24   1.045577 S    
C12   C29   1.606104 S    
C13   O61   1.418606 S    
C9    O57   1.409944 S    
N11   H37   1.034409 S    
C41   C45   1.182824 T    
C23   C36   1.603338 S    
C28   C32   1.594854 S    
C36   C40   1.598413 S    
N14   H43   1.046592 S    
O34   Zn10  1.993221 S    
C26   O66   1.411355 S    
C46   C62   1.396113 S    
C9    C17   1.581787 S    
O74   H58   0.991766 S    
N15   H46   1.046154 S    
C45   C61   1.396110 S    
O39   C59   1.286700 A    
O28   C56   1.270879 A    
O59   H11   0.993475 S    
O53   H5    0.991355 S    
C3    C43   1.395743 S    
C47   C63   1.396112 S    
O42   Zn10  1.995278 S    
C27   O69   1.415171 S    
C24   N8    1.484487 S    
N11   H38   1.046479 S    
C50   C66   1.396254 S    
