data_mof_unit_10761.cif
_audit_creation_date              2012-12-11T16:52:09-0500
_audit_creation_method            fapswitch 2.2
_symmetry_space_group_name_H-M    P1
_symmetry_Int_Tables_number       1
_space_group_crystal_system       triclinic
_cell_length_a                    7.258529
_cell_length_b                    25.905947
_cell_length_c                    28.90738
_cell_angle_alpha                 89.999923
_cell_angle_beta                  89.999983
_cell_angle_gamma                 89.999945
_cell_volume                      5435.71678114

loop_
_atom_site_label
_atom_site_type_symbol
_atom_type_description
_atom_site_fract_x
_atom_site_fract_y
_atom_site_fract_z
_atom_type_partial_charge
O1    O     O_R   0.601030 0.796770 0.202460 -0.515594
O2    O     O_R   0.398970 0.203230 0.797540 -0.518786
O3    O     O_R   0.398970 0.203230 0.702460 -0.515594
O4    O     O_R   0.601030 0.796770 0.297540 -0.518786
O5    O     O_R   0.101030 0.703230 0.297540 -0.515594
O6    O     O_R   0.898970 0.296770 0.702460 -0.518787
O7    O     O_R   0.898970 0.296770 0.797540 -0.515595
O8    O     O_R   0.101030 0.703230 0.202460 -0.518787
O9    O     O_R   0.271290 0.802910 0.297210 -0.541461
O10   O     O_R   0.728710 0.197090 0.702790 -0.545534
O11   O     O_R   0.728710 0.197090 0.797210 -0.541461
O12   O     O_R   0.271290 0.802910 0.202790 -0.545535
O13   O     O_R   0.771290 0.697090 0.202790 -0.541462
O14   O     O_R   0.228710 0.302910 0.797210 -0.545536
O15   O     O_R   0.228710 0.302910 0.702790 -0.541462
O16   O     O_R   0.771290 0.697090 0.297210 -0.545536
C1    C     C_R   0.440695 0.814972 0.312997 0.714103
C2    C     C_R   0.559246 0.184480 0.687484 0.683964
C3    C     C_R   0.559305 0.185028 0.812996 0.714104
C4    C     C_R   0.440754 0.815520 0.187485 0.683962
C5    C     C_R   0.940695 0.685027 0.187003 0.714101
C6    C     C_R   0.059246 0.315520 0.812515 0.683960
C7    C     C_R   0.059305 0.314973 0.687003 0.714101
C8    C     C_R   0.940754 0.684480 0.312515 0.683961
O17   O     O_3   0.434520 0.717290 0.250000 -0.374120
O18   O     O_3   0.565480 0.282710 0.750000 -0.374121
O19   O     O_3   0.934520 0.782710 0.250000 -0.374119
O20   O     O_3   0.065480 0.217290 0.750000 -0.374117
V1    V     V_3+5 0.159680 0.756060 0.250000 1.430663
V2    V     V_3+5 0.840320 0.243940 0.750000 1.430664
V3    V     V_3+5 0.659680 0.743940 0.250000 1.430661
V4    V     V_3+5 0.340320 0.256060 0.750000 1.430661
C9    C     C_R   0.873549 0.369950 0.629635 0.353811
C10   C     C_R   0.128368 0.633794 0.371698 0.348938
C11   C     C_R   0.126451 0.630050 0.129634 0.353811
C12   C     C_R   0.871633 0.366206 0.871698 0.348938
C13   C     C_R   0.373548 0.130052 0.870366 0.353817
C14   C     C_R   0.628368 0.866205 0.128302 0.348936
C15   C     C_R   0.626453 0.869947 0.370366 0.353822
C16   C     C_R   0.371631 0.133798 0.628301 0.348931
C17   C     C_R   0.866154 0.411415 0.598148 0.365005
C18   C     C_R   0.137308 0.609587 0.415251 0.374089
C19   C     C_R   0.133847 0.588586 0.098147 0.365009
C20   C     C_R   0.862692 0.390413 0.915251 0.374089
C21   C     C_R   0.366151 0.088587 0.901853 0.365004
C22   C     C_R   0.637309 0.890410 0.084748 0.374091
C23   C     C_R   0.633851 0.911412 0.401853 0.364992
C24   C     C_R   0.362685 0.109596 0.584745 0.374095
C25   C     C_R   0.029805 0.430566 0.578306 -0.074342
C26   C     C_R   0.978543 0.585528 0.433583 -0.072586
C27   C     C_R   0.970196 0.569434 0.078306 -0.074342
C28   C     C_R   0.021458 0.414473 0.933582 -0.072587
C29   C     C_R   0.529801 0.069436 0.921695 -0.074338
C30   C     C_R   0.478544 0.914469 0.066416 -0.072582
C31   C     C_R   0.470201 0.930562 0.421696 -0.074329
C32   C     C_R   0.521450 0.085537 0.566411 -0.072574
C33   C     C_R   0.199145 0.412503 0.594733 -0.222387
C34   C     C_R   0.808461 0.594790 0.411872 -0.234621
C35   C     C_R   0.800856 0.587496 0.094733 -0.222386
C36   C     C_R   0.191539 0.405211 0.911871 -0.234621
C37   C     C_R   0.699142 0.087497 0.905267 -0.222387
C38   C     C_R   0.308461 0.905206 0.088126 -0.234616
C39   C     C_R   0.300860 0.912501 0.405268 -0.222394
C40   C     C_R   0.691535 0.094801 0.588120 -0.234605
C41   C     C_R   0.207147 0.375722 0.630155 -0.249093
C42   C     C_R   0.796142 0.627203 0.373123 -0.255623
C43   C     C_R   0.792854 0.624277 0.130155 -0.249092
C44   C     C_R   0.203858 0.372797 0.873123 -0.255622
C45   C     C_R   0.707145 0.124277 0.869845 -0.249093
C46   C     C_R   0.296142 0.872794 0.126875 -0.255623
C47   C     C_R   0.292856 0.875722 0.369846 -0.249096
C48   C     C_R   0.703856 0.127211 0.626871 -0.255623
C49   C     C_R   0.045900 0.353761 0.648498 -0.210457
C50   C     C_R   0.955083 0.647471 0.352298 -0.204812
C51   C     C_R   0.954101 0.646239 0.148498 -0.210454
C52   C     C_R   0.044917 0.352529 0.852298 -0.204812
C53   C     C_R   0.545899 0.146239 0.851502 -0.210455
C54   C     C_R   0.455083 0.852528 0.147702 -0.204814
C55   C     C_R   0.454101 0.853760 0.351502 -0.210455
C56   C     C_R   0.544917 0.147474 0.647700 -0.204816
C57   C     C_R   0.096393 0.518940 0.547798 -0.205396
C58   C     C_R   0.918867 0.496529 0.464399 -0.177217
C59   C     C_R   0.903616 0.481059 0.047799 -0.205395
C60   C     C_R   0.081126 0.503472 0.964398 -0.177215
C61   C     C_R   0.596426 0.981064 0.952204 -0.205395
C62   C     C_R   0.418826 0.003465 0.035597 -0.177227
C63   C     C_R   0.403505 0.018928 0.452209 -0.205396
C64   C     C_R   0.581243 0.996546 0.535588 -0.177245
C65   C     C_R   0.075993 0.557275 0.514093 -0.106099
C66   C     C_R   0.933635 0.458625 0.498793 -0.103444
C67   C     C_R   0.924016 0.442724 0.014093 -0.106101
C68   C     C_R   0.066358 0.541376 0.998792 -0.103443
C69   C     C_R   0.576029 0.942728 0.985909 -0.106086
C70   C     C_R   0.433592 0.041370 0.001204 -0.103445
C71   C     C_R   0.423895 0.057267 0.485911 -0.106064
C72   C     C_R   0.566480 0.958639 0.501197 -0.103451
C73   C     C_R   0.990893 0.546358 0.471451 0.140752
C74   C     C_R   0.023971 0.469449 0.540620 0.122419
C75   C     C_R   0.009107 0.453643 0.971450 0.140754
C76   C     C_R   0.976030 0.530551 0.040620 0.122420
C77   C     C_R   0.490893 0.953640 0.028548 0.140741
C78   C     C_R   0.523966 0.030552 0.959380 0.122410
C79   C     C_R   0.509101 0.046364 0.528544 0.140717
C80   C     C_R   0.476037 0.969447 0.459381 0.122394
O21   O     O_3   0.708176 0.348352 0.643531 -0.567160
C81   C     C_3   0.677881 0.301358 0.619532 0.121992
H1    H     H_    0.571722 0.279680 0.639178 0.143350
H2    H     H_    0.802780 0.276328 0.618505 0.098039
C82   C     C_3   0.605569 0.310252 0.570286 -0.322931
H3    H     H_    0.488046 0.337537 0.570917 0.229914
H4    H     H_    0.715553 0.327232 0.548374 0.191777
C83   C     C_3   0.541914 0.259656 0.548627 -0.874317
H5    H     H_    0.654286 0.230711 0.548766 0.245069
H6    H     H_    0.498474 0.266509 0.512339 0.236314
H7    H     H_    0.424209 0.243900 0.568496 0.235972
O22   O     O_3   0.292695 0.643694 0.349061 -0.572247
C84   C     C_3   0.318227 0.607186 0.313017 0.122925
H8    H     H_    0.432781 0.621456 0.290991 0.156597
H9    H     H_    0.195406 0.604157 0.290042 0.096373
C85   C     C_3   0.370386 0.553546 0.331645 -0.339176
H10   H     H_    0.483788 0.556985 0.357145 0.222278
H11   H     H_    0.249850 0.535822 0.349216 0.191989
C86   C     C_3   0.431368 0.517878 0.292631 -0.856120
H12   H     H_    0.318345 0.513206 0.267063 0.237516
H13   H     H_    0.466707 0.479366 0.306959 0.238712
H14   H     H_    0.554929 0.533896 0.275064 0.232929
O23   O     O_3   0.291825 0.651648 0.143531 -0.567162
C87   C     C_3   0.322121 0.698642 0.119532 0.121995
H15   H     H_    0.428277 0.720320 0.139179 0.143356
H16   H     H_    0.197221 0.723672 0.118503 0.098031
C88   C     C_3   0.394441 0.689748 0.070287 -0.322936
H17   H     H_    0.511951 0.662459 0.070918 0.229922
H18   H     H_    0.284454 0.672772 0.048373 0.191768
C89   C     C_3   0.458121 0.740343 0.048631 -0.874316
H19   H     H_    0.345764 0.769293 0.048771 0.245064
H20   H     H_    0.501558 0.733491 0.012342 0.236317
H21   H     H_    0.575837 0.756092 0.068499 0.235974
O24   O     O_3   0.707305 0.356307 0.849061 -0.572247
C90   C     C_3   0.681772 0.392814 0.813017 0.122925
H22   H     H_    0.567219 0.378543 0.790991 0.156597
H23   H     H_    0.804594 0.395842 0.790042 0.096374
C91   C     C_3   0.629615 0.446454 0.831644 -0.339176
H24   H     H_    0.516211 0.443015 0.857144 0.222278
H25   H     H_    0.750149 0.464178 0.849216 0.191990
C92   C     C_3   0.568635 0.482122 0.792630 -0.856119
H26   H     H_    0.681660 0.486794 0.767062 0.237516
H27   H     H_    0.533295 0.520634 0.806957 0.238711
H28   H     H_    0.445075 0.466104 0.775062 0.232930
O25   O     O_3   0.208175 0.151650 0.856469 -0.567160
C93   C     C_3   0.177878 0.198644 0.880468 0.121999
H29   H     H_    0.071725 0.220322 0.860820 0.143359
H30   H     H_    0.302779 0.223674 0.881498 0.098026
C94   C     C_3   0.105553 0.189750 0.929713 -0.322942
H31   H     H_    0.988048 0.162459 0.929081 0.229925
H32   H     H_    0.215540 0.172775 0.951627 0.191760
C95   C     C_3   0.041860 0.240344 0.951368 -0.874310
H33   H     H_    0.154211 0.269295 0.951227 0.245061
H34   H     H_    0.998424 0.233491 0.987657 0.236317
H35   H     H_    0.924141 0.256091 0.931499 0.235974
O26   O     O_3   0.792695 0.856307 0.150939 -0.572247
C96   C     C_3   0.818223 0.892815 0.186983 0.122928
H36   H     H_    0.932774 0.878544 0.209010 0.156596
H37   H     H_    0.695399 0.895844 0.209957 0.096370
C97   C     C_3   0.870386 0.946454 0.168355 -0.339172
H38   H     H_    0.983796 0.943014 0.142857 0.222273
H39   H     H_    0.749856 0.964178 0.150780 0.191992
C98   C     C_3   0.931354 0.982124 0.207369 -0.856118
H40   H     H_    0.818323 0.986797 0.232935 0.237518
H41   H     H_    0.966698 0.020635 0.193041 0.238711
H42   H     H_    0.054910 0.966106 0.224939 0.232930
O27   O     O_3   0.791826 0.848349 0.356468 -0.567157
C99   C     C_3   0.822124 0.801355 0.380468 0.122001
H43   H     H_    0.928279 0.779678 0.360820 0.143358
H44   H     H_    0.697225 0.776325 0.381497 0.098027
C100  C     C_3   0.894447 0.810249 0.429712 -0.322947
H45   H     H_    0.011953 0.837540 0.429080 0.229925
H46   H     H_    0.784459 0.827224 0.451627 0.191756
C101  C     C_3   0.958138 0.759655 0.451368 -0.874308
H47   H     H_    0.845787 0.730704 0.451227 0.245061
H48   H     H_    0.001574 0.766508 0.487657 0.236317
H49   H     H_    0.075858 0.743908 0.431499 0.235974
O28   O     O_3   0.207305 0.143694 0.650940 -0.572246
C102  C     C_3   0.181780 0.107183 0.686982 0.122930
H50   H     H_    0.067236 0.121453 0.709011 0.156597
H51   H     H_    0.304609 0.104151 0.709954 0.096364
C103  C     C_3   0.129607 0.053546 0.668351 -0.339164
H52   H     H_    0.016193 0.056989 0.642854 0.222271
H53   H     H_    0.250132 0.035822 0.650774 0.191993
C104  C     C_3   0.068639 0.017874 0.707363 -0.856120
H54   H     H_    0.181674 0.013198 0.732928 0.237517
H55   H     H_    0.033287 0.979364 0.693033 0.238712
H56   H     H_    0.945089 0.033892 0.724936 0.232928
O29   O     O_3   0.695341 0.429722 0.584376 -0.579115
C105  C     C_3   0.663297 0.479566 0.603033 0.068210
H57   H     H_    0.556346 0.498277 0.581240 0.145562
H58   H     H_    0.785766 0.505260 0.601595 0.117305
C106  C     C_3   0.593404 0.476755 0.653038 -0.305475
H59   H     H_    0.478788 0.448722 0.655651 0.220313
H60   H     H_    0.706334 0.463551 0.676139 0.186239
C107  C     C_3   0.525420 0.529458 0.669361 -0.859608
H61   H     H_    0.640333 0.557772 0.669146 0.233699
H62   H     H_    0.470529 0.526401 0.705037 0.242230
H63   H     H_    0.413015 0.543574 0.646557 0.227783
O30   O     O_3   0.306156 0.605957 0.437310 -0.571733
C108  C     C_3   0.329336 0.649319 0.466924 0.067841
H64   H     H_    0.409416 0.636259 0.497526 0.139492
H65   H     H_    0.196511 0.665126 0.480387 0.097480
C109  C     C_3   0.436980 0.693017 0.443596 -0.299401
H66   H     H_    0.573213 0.678681 0.432360 0.209848
H67   H     H_    0.361818 0.707297 0.412801 0.211406
C110  C     C_3   0.465206 0.738154 0.476836 -0.875335
H68   H     H_    0.332583 0.750479 0.492339 0.240621
H69   H     H_    0.523427 0.771484 0.457783 0.237780
H70   H     H_    0.561335 0.726974 0.505001 0.237875
O31   O     O_3   0.304660 0.570279 0.084376 -0.579116
C111  C     C_3   0.336705 0.520435 0.103033 0.068209
H71   H     H_    0.443658 0.501724 0.081240 0.145563
H72   H     H_    0.214236 0.494741 0.101594 0.117305
C112  C     C_3   0.406595 0.523246 0.153038 -0.305476
H73   H     H_    0.521208 0.551280 0.155652 0.220314
H74   H     H_    0.293662 0.536449 0.176139 0.186237
C113  C     C_3   0.474583 0.470544 0.169362 -0.859603
H75   H     H_    0.359673 0.442228 0.169147 0.233698
H76   H     H_    0.529473 0.473601 0.205038 0.242229
H77   H     H_    0.586991 0.456428 0.146557 0.227783
O32   O     O_3   0.693845 0.394044 0.937310 -0.571733
C114  C     C_3   0.670666 0.350682 0.966924 0.067845
H78   H     H_    0.590589 0.363742 0.997527 0.139493
H79   H     H_    0.803491 0.334875 0.980387 0.097479
C115  C     C_3   0.563018 0.306984 0.943597 -0.299401
H80   H     H_    0.426786 0.321321 0.932361 0.209849
H81   H     H_    0.638179 0.292704 0.912802 0.211406
C116  C     C_3   0.534792 0.261848 0.976838 -0.875340
H82   H     H_    0.667415 0.249522 0.992340 0.240621
H83   H     H_    0.476568 0.228518 0.957785 0.237780
H84   H     H_    0.438666 0.273029 0.005003 0.237875
O33   O     O_3   0.195337 0.070279 0.915623 -0.579118
C117  C     C_3   0.163302 0.020435 0.896965 0.068209
H85   H     H_    0.056352 0.001722 0.918758 0.145555
H86   H     H_    0.285775 0.994742 0.898404 0.117308
C118  C     C_3   0.093409 0.023246 0.846961 -0.305470
H87   H     H_    0.978777 0.051274 0.844348 0.220304
H88   H     H_    0.206333 0.036455 0.823860 0.186246
C119  C     C_3   0.025452 0.970541 0.830635 -0.859604
H89   H     H_    0.140382 0.942231 0.830848 0.233699
H90   H     H_    0.970554 0.973598 0.794960 0.242228
H91   H     H_    0.913057 0.956417 0.853440 0.227781
O34   O     O_3   0.806158 0.894039 0.062689 -0.571734
C120  C     C_3   0.829340 0.850675 0.033077 0.067829
H92   H     H_    0.909435 0.863732 0.002477 0.139490
H93   H     H_    0.696516 0.834870 0.019612 0.097483
C121  C     C_3   0.936966 0.806975 0.056409 -0.299395
H94   H     H_    0.073200 0.821309 0.067647 0.209845
H95   H     H_    0.861791 0.792699 0.087203 0.211404
C122  C     C_3   0.965190 0.761837 0.023171 -0.875340
H96   H     H_    0.832569 0.749513 0.007666 0.240623
H97   H     H_    0.023396 0.728506 0.042226 0.237777
H98   H     H_    0.061330 0.773014 0.995008 0.237876
O35   O     O_3   0.804666 0.929721 0.415620 -0.579122
C123  C     C_3   0.836687 0.979567 0.396965 0.068203
H99   H     H_    0.943624 0.998282 0.418760 0.145547
H100  H     H_    0.714204 0.005256 0.398402 0.117316
C124  C     C_3   0.906596 0.976759 0.346962 -0.305465
H101  H     H_    0.021260 0.948740 0.344353 0.220290
H102  H     H_    0.793694 0.963538 0.323860 0.186260
C125  C     C_3   0.974500 0.029469 0.330635 -0.859606
H103  H     H_    0.859535 0.057768 0.330840 0.233699
H104  H     H_    0.029423 0.026414 0.294961 0.242230
H105  H     H_    0.086865 0.043606 0.353442 0.227777
O36   O     O_3   0.193834 0.105970 0.562687 -0.571738
C126  C     C_3   0.170648 0.149338 0.533081 0.067802
H106  H     H_    0.090518 0.136287 0.502483 0.139486
H107  H     H_    0.303470 0.165137 0.519608 0.097488
C127  C     C_3   0.063063 0.193040 0.556420 -0.299387
H108  H     H_    0.926830 0.178712 0.567664 0.209839
H109  H     H_    0.138267 0.207312 0.587212 0.211400
C128  C     C_3   0.034843 0.238183 0.523186 -0.875338
H110  H     H_    0.167461 0.250502 0.507676 0.240626
H111  H     H_    0.976669 0.271515 0.542246 0.237774
H112  H     H_    0.938680 0.227013 0.495026 0.237875
H113  H     H_    0.325592 0.427022 0.579941 0.185480
H114  H     H_    0.683938 0.577662 0.425650 0.182951
H115  H     H_    0.674409 0.572977 0.079941 0.185478
H116  H     H_    0.316062 0.422339 0.925649 0.182951
H117  H     H_    0.825589 0.072977 0.920059 0.185477
H118  H     H_    0.183937 0.922334 0.074347 0.182951
H119  H     H_    0.174413 0.927021 0.420060 0.185477
H120  H     H_    0.816060 0.077676 0.574340 0.182949
H121  H     H_    0.340712 0.364040 0.642894 0.197439
H122  H     H_    0.661845 0.635923 0.359109 0.197105
H123  H     H_    0.659289 0.635960 0.142894 0.197437
H124  H     H_    0.338155 0.364077 0.859108 0.197105
H125  H     H_    0.840711 0.135959 0.857105 0.197440
H126  H     H_    0.161845 0.864074 0.140890 0.197105
H127  H     H_    0.159289 0.864041 0.357105 0.197445
H128  H     H_    0.838154 0.135930 0.640886 0.197103
H129  H     H_    0.161718 0.528496 0.580384 0.113087
H130  H     H_    0.851839 0.486850 0.432066 0.120773
H131  H     H_    0.838298 0.471503 0.080385 0.113086
H132  H     H_    0.148147 0.513153 0.932064 0.120772
H133  H     H_    0.661780 0.971512 0.919621 0.113089
H134  H     H_    0.351768 0.013142 0.067927 0.120775
H135  H     H_    0.338096 0.028473 0.419631 0.113095
H136  H     H_    0.648357 0.986877 0.567913 0.120781
H137  H     H_    0.122312 0.595575 0.522391 0.096965
H138  H     H_    0.875016 0.420762 0.492778 0.121227
H139  H     H_    0.877703 0.404424 0.022392 0.096963
H140  H     H_    0.124970 0.579240 0.992776 0.121225
H141  H     H_    0.622381 0.904430 0.977611 0.096974
H142  H     H_    0.374942 0.079230 0.007217 0.121239
H143  H     H_    0.377482 0.095559 0.477616 0.096994
H144  H     H_    0.625188 0.920785 0.507207 0.121261

loop_
_geom_bond_atom_site_label_1
_geom_bond_atom_site_label_2
_ccdc_geom_bond_type
O17   V3    S    
C126  C127  S    
C105  H58   S    
O27   C99   S    
C122  H97   S    
O18   V4    S    
C84   H8    S    
C13   C21   A    
C41   H121  S    
O12   V1    S    
O19   V1    S    
C127  C128  S    
C63   H135  S    
C45   C53   A    
C30   C77   S    
C18   O30   S    
O24   C90   S    
C64   H136  S    
C111  C112  S    
C6    C52   S    
C101  H49   S    
O31   C111  S    
C88   C89   S    
C19   O31   S    
C87   H15   S    
C64   C79   A    
C89   H21   S    
C47   C55   A    
C96   H36   S    
C128  H111  S    
C25   C33   A    
C124  H101  S    
C100  H46   S    
C1    C55   S    
C108  H64   S    
O22   C84   S    
O16   V3    S    
C117  C118  S    
O11   C3    A    
C120  H92   S    
C124  C125  S    
C81   H2    S    
O3    C2    A    
O8    V1    S    
C9    C49   A    
C121  H95   S    
C97   H38   S    
C111  H72   S    
C118  H87   S    
C65   H137  S    
C102  C103  S    
C82   H4    S    
C85   H11   S    
C90   C91   S    
C86   H13   S    
C105  C106  S    
C46   C54   A    
C57   C74   A    
C58   H130  S    
C10   O22   S    
C126  H106  S    
C42   C50   A    
C43   H123  S    
O1    V3    S    
C41   C49   A    
C119  H89   S    
C38   C46   A    
C115  C116  S    
O2    V4    S    
C127  H108  S    
C121  H94   S    
C70   C78   A    
C104  H55   S    
C23   C31   A    
O28   C102  S    
C81   C82   S    
C17   O29   S    
C62   C70   A    
C35   C43   A    
C25   C74   S    
C117  H85   S    
C33   H113  S    
C34   C42   A    
C100  H45   S    
O11   V2    S    
C23   O35   S    
C109  H66   S    
C62   H134  S    
C93   C94   S    
C10   C18   A    
C15   O27   S    
C16   C56   A    
O23   C87   S    
C42   H122  S    
C37   H117  S    
C94   H32   S    
C28   C36   A    
C116  H82   S    
O5    V1    S    
C24   C32   A    
C99   C100  S    
O9    V1    S    
O35   C123  S    
C57   C65   A    
C40   H120  S    
O15   C7    A    
C105  H57   S    
C122  H98   S    
C24   O36   S    
C11   O23   S    
O16   C8    A    
O7    V2    S    
C128  H110  S    
C97   H39   S    
C91   C92   S    
O12   C4    A    
C115  H80   S    
C29   C37   A    
C7    C49   S    
C123  C124  S    
O34   C120  S    
C97   C98   S    
C17   C25   A    
C83   H5    S    
C96   H37   S    
C71   C79   A    
C92   H26   S    
C100  C101  S    
C16   O28   S    
C114  H79   S    
O10   C2    A    
C117  H86   S    
C120  H93   S    
C14   C22   A    
C92   H27   S    
C26   C34   A    
C101  H47   S    
C86   H12   S    
C9    O21   S    
C111  H71   S    
C98   H41   S    
C82   H3    S    
C82   C83   S    
C69   C77   A    
C98   H40   S    
C107  H61   S    
C86   H14   S    
C89   H20   S    
C68   H140  S    
C113  H77   S    
C88   H18   S    
C69   H141  S    
C31   C80   S    
C106  H59   S    
C61   H133  S    
C31   C39   A    
C64   C72   A    
C118  H88   S    
C85   C86   S    
C15   C55   A    
C104  H56   S    
C113  H76   S    
C102  H50   S    
C38   H118  S    
C110  H68   S    
C93   H30   S    
C57   H129  S    
C112  H74   S    
C102  H51   S    
C3    C53   S    
C20   O32   S    
O10   V2    S    
C114  H78   S    
C29   C78   S    
C11   C51   A    
C22   C30   A    
C36   H116  S    
O8    C5    A    
C43   C51   A    
O13   C5    A    
C47   H127  S    
C58   C66   A    
O9    C1    A    
C94   C95   S    
C115  H81   S    
C116  H83   S    
C71   H143  S    
C125  H104  S    
C72   H144  S    
O15   V4    S    
C98   H42   S    
C123  H100  S    
O6    V2    S    
C39   C47   A    
C106  H60   S    
O32   C114  S    
C61   C69   A    
C106  C107  S    
C121  C122  S    
C44   H124  S    
C109  C110  S    
C58   C73   A    
C91   H25   S    
C84   C85   S    
C27   C35   A    
O4    C1    A    
C103  H53   S    
C122  H96   S    
C87   C88   S    
C126  H107  S    
C112  H73   S    
C92   H28   S    
C11   C19   A    
C99   H43   S    
C68   C76   A    
C96   C97   S    
C15   C23   A    
C108  H65   S    
C108  C109  S    
C37   C45   A    
C104  H54   S    
C16   C24   A    
C72   C80   A    
C35   H115  S    
C63   C71   A    
C95   H33   S    
C26   C73   S    
C70   H142  S    
C18   C26   A    
C110  H69   S    
O2    C3    A    
O36   C126  S    
C60   C75   A    
C110  H70   S    
O13   V3    S    
C95   H35   S    
C32   C79   S    
C33   C41   A    
C123  H99   S    
O1    C4    A    
C125  H105  S    
C87   H16   S    
C20   C28   A    
C101  H48   S    
C90   H22   S    
C66   H138  S    
C89   H19   S    
C39   H119  S    
C44   C52   A    
O7    C6    A    
C34   H114  S    
O21   C81   S    
C5    C51   S    
C28   C75   S    
C14   C54   A    
C48   H128  S    
C119  H91   S    
C4    C54   S    
C59   C76   A    
C118  C119  S    
C9    C17   A    
O26   C96   S    
O14   C6    A    
C103  C104  S    
C84   H9    S    
C103  H52   S    
C13   O25   S    
C22   O34   S    
O20   V2    S    
C48   C56   A    
C109  H67   S    
C124  H102  S    
O25   C93   S    
C112  C113  S    
C60   H132  S    
C90   H23   S    
C2    C56   S    
C8    C50   S    
C32   C40   A    
O5    C8    A    
C13   C53   A    
C19   C27   A    
C107  H63   S    
O6    C7    A    
C59   C67   A    
C95   H34   S    
C99   H44   S    
C119  H90   S    
C45   H125  S    
C46   H126  S    
O3    V4    S    
C116  H84   S    
C21   O33   S    
C120  C121  S    
O4    V3    S    
C12   C20   A    
C125  H103  S    
C21   C29   A    
C63   C80   A    
C83   H6    S    
C12   C52   A    
C114  C115  S    
O14   V4    S    
O30   C108  S    
C36   C44   A    
C107  H62   S    
O29   C105  S    
C81   H1    S    
C128  H112  S    
C65   C73   A    
C91   H24   S    
C85   H10   S    
C30   C38   A    
C10   C50   A    
C27   C76   S    
C60   C68   A    
C67   C75   A    
C94   H31   S    
O33   C117  S    
C62   C77   A    
C12   O24   S    
C113  H75   S    
C66   C74   A    
C83   H7    S    
C61   C78   A    
C88   H17   S    
C40   C48   A    
C59   H131  S    
C93   H29   S    
C14   O26   S    
C127  H109  S    
C67   H139  S    
