data_mof_unit_59926.cif
_audit_creation_date              2012-12-10T17:03:44-0500
_audit_creation_method            fapswitch 2.2
_symmetry_space_group_name_H-M    P1
_symmetry_Int_Tables_number       1
_space_group_crystal_system       triclinic
_cell_length_a                    10.053669
_cell_length_b                    10.747682
_cell_length_c                    13.133981
_cell_angle_alpha                 90.490418
_cell_angle_beta                  70.212933
_cell_angle_gamma                 90.348934
_cell_volume                      1335.32579387

loop_
_atom_site_label
_atom_site_type_symbol
_atom_type_description
_atom_site_fract_x
_atom_site_fract_y
_atom_site_fract_z
_atom_type_partial_charge
C1    C     C_R   0.501281 0.737207 0.498143 0.941117
C2    C     C_R   0.370224 0.484668 0.821566 -0.120163
C3    C     C_2   0.610489 0.067523 0.503810 -0.165800
C4    C     C_R   0.421443 0.493698 0.703860 0.857369
C5    C     C_2   0.493042 0.131385 0.514078 -0.330763
C6    C     C_2   0.607304 0.933650 0.510149 -0.157490
C7    C     C_2   0.505881 0.868731 0.489243 -0.335164
C8    C     C_2   0.092396 0.413365 0.454011 0.246553
C9    C     C_2   0.934569 0.403497 0.478882 -0.162948
C10   C     C_R   0.498561 0.262778 0.502722 0.922221
C11   C     C_R   0.578481 0.498978 0.296010 0.865737
C12   C     C_R   0.431584 0.474769 0.984496 0.089771
C13   C     C_R   0.766251 0.367677 0.020497 -0.201028
C14   C     C_R   0.625135 0.480329 0.179784 -0.057933
C15   C     C_R   0.238536 0.536120 0.880719 -0.189422
C16   C     C_R   0.200504 0.552063 0.991874 -0.149287
C17   C     C_R   0.297167 0.525301 0.043346 -0.199824
C18   C     C_3   0.141198 0.280346 0.292326 -0.836310
C19   C     C_R   0.459790 0.440094 0.875673 0.085818
C20   C     C_R   0.539118 0.457577 0.029825 0.079447
C21   C     C_R   0.661928 0.387924 0.973438 0.172675
C22   C     C_R   0.677408 0.338003 0.871920 -0.254063
C23   C     C_R   0.577663 0.363736 0.823406 -0.195153
C24   C     C_R   0.528939 0.510320 0.129098 -0.256153
C25   C     C_R   0.746552 0.411853 0.124718 -0.204980
H1    H     H_    0.821804 0.387511 0.163874 0.157826
H2    H     H_    0.443210 0.571902 0.171181 0.152366
H3    H     H_    0.166956 0.567766 0.840625 0.158942
H4    H     H_    0.262665 0.542088 0.129442 0.133539
H5    H     H_    0.098240 0.590636 0.037607 0.147785
H6    H     H_    0.592959 0.321877 0.745066 0.170971
H7    H     H_    0.711376 0.113467 0.491056 0.164708
H8    H     H_    0.286751 0.335654 0.362542 0.291884
H9    H     H_    0.225076 0.219012 0.239058 0.244760
H10   H     H_    0.129100 0.361540 0.244438 0.245173
H11   H     H_    0.041834 0.225359 0.319584 0.242458
H12   H     H_    0.389592 0.088485 0.533959 0.155357
H13   H     H_    0.691252 0.888404 0.530570 0.170433
H14   H     H_    0.425611 0.910863 0.462749 0.151092
H15   H     H_    0.078916 0.556791 0.554245 0.139736
H16   H     H_    0.889509 0.313574 0.471231 0.169373
H17   H     H_    0.899799 0.584327 0.496516 0.159460
H18   H     H_    0.767973 0.281017 0.829067 0.149054
H19   H     H_    0.859802 0.313747 0.978539 0.141439
N1    N     N_2   0.148270 0.498670 0.498870 -0.232440
N2    N     N_2   0.852610 0.498640 0.498840 -0.208230
N3    N     N_2   0.180242 0.321360 0.383839 -0.283155
O1    O     O_R   0.386950 0.680940 0.500020 -0.614572
O2    O     O_R   0.613110 0.680900 0.499980 -0.610841
O3    O     O_R   0.330780 0.500000 0.653640 -0.611002
O4    O     O_R   0.556930 0.499960 0.653610 -0.600835
O5    O     O_R   0.386890 0.319100 0.500020 -0.627549
O6    O     O_R   0.613050 0.319060 0.499980 -0.623388
O7    O     O_R   0.443070 0.500040 0.346390 -0.632390
O8    O     O_R   0.669220 0.500000 0.346360 -0.605659
Zn1   Zn    Zn3+2 0.349000 0.500030 0.500020 0.926972
Zn2   Zn    Zn3+2 0.651000 0.499970 0.499980 0.932505

loop_
_geom_bond_atom_site_label_1
_geom_bond_atom_site_label_2
_ccdc_geom_bond_type
C12   C17   A    
O2    Zn2   S    
C19   C23   A    
C6    H13   S    
C1    O1    A    
C6    C7    D    
O4    Zn2   S    
C5    H12   S    
C9    H16   S    
C17   H4    S    
C18   H10   S    
C2    C4    S    
C22   H18   S    
C24   H2    S    
C3    C6    S    
C10   O5    A    
C18   N3    S    
C12   C20   A    
C2    C19   A    
C8    N3    S    
C13   C21   A    
C5    C10   S    
C14   C25   A    
C21   C22   A    
C13   H19   S    
C2    C15   A    
C18   H9    S    
C13   C25   A    
C15   H3    S    
C3    H7    S    
C11   O7    A    
C1    O2    A    
C12   C19   A    
O8    Zn2   S    
N2    Zn2   S    
H15   N1    S    
H8    N3    S    
C11   C14   S    
O7    Zn1   S    
C4    O4    A    
C16   H5    S    
C15   C16   A    
C20   C24   A    
C9    N2    D    
C11   O8    A    
C20   C21   A    
H17   N2    S    
C14   C24   A    
O1    Zn1   S    
C10   O6    A    
O6    Zn2   S    
C8    N1    D    
C16   C17   A    
C7    H14   S    
C25   H1    S    
C1    C7    S    
C18   H11   S    
C22   C23   A    
O3    Zn1   S    
O5    Zn1   S    
N1    Zn1   S    
C4    O3    A    
C8    C9    S    
C3    C5    D    
C23   H6    S    
