data_mof_unit_7641.cif
_audit_creation_date              2012-12-11T14:03:37-0500
_audit_creation_method            fapswitch 2.2
_symmetry_space_group_name_H-M    P1
_symmetry_Int_Tables_number       1
_space_group_crystal_system       triclinic
_cell_length_a                    6.98651
_cell_length_b                    11.664712
_cell_length_c                    18.427178
_cell_angle_alpha                 89.99989
_cell_angle_beta                  93.184876
_cell_angle_gamma                 89.999941
_cell_volume                      1499.41494308

loop_
_atom_site_label
_atom_site_type_symbol
_atom_type_description
_atom_site_fract_x
_atom_site_fract_y
_atom_site_fract_z
_atom_type_partial_charge
O1    O     O_R   0.330540 0.606360 0.598870 -0.536413
O2    O     O_R   0.669460 0.106360 0.401130 -0.536413
O3    O     O_R   0.026770 0.620470 0.750430 -0.547974
O4    O     O_R   0.973230 0.120470 0.249570 -0.547975
O5    O     O_R   0.856460 0.393640 0.750930 -0.542567
O6    O     O_R   0.143540 0.893640 0.249070 -0.542565
C1    C     C_R   0.199114 0.648937 0.774057 0.699406
C2    C     C_R   0.800886 0.148938 0.225943 0.699409
O7    O     O_R   0.000920 0.620350 0.599420 -0.548766
O8    O     O_R   0.999080 0.120350 0.400580 -0.548767
O9    O     O_R   0.830430 0.393520 0.598850 -0.536631
O10   O     O_R   0.169570 0.893520 0.401150 -0.536630
C3    C     C_R   0.166709 0.647817 0.574636 0.763301
C4    C     C_R   0.833291 0.147817 0.425364 0.763300
O11   O     O_R   0.356570 0.606480 0.750960 -0.543265
O12   O     O_R   0.643430 0.106480 0.249040 -0.543264
O13   O     O_3   0.176990 0.425580 0.674890 -0.373055
O14   O     O_3   0.823010 0.925580 0.325110 -0.373055
V1    V     V_3+5 0.902170 0.513810 0.674910 1.389076
V2    V     V_3+5 0.097830 0.013810 0.325090 1.389074
O15   O     O_R   0.500800 0.379530 0.599380 -0.548735
O16   O     O_R   0.499200 0.879530 0.400620 -0.548735
C5    C     C_R   0.666571 0.352189 0.574528 0.761531
C6    C     C_R   0.333429 0.852189 0.425472 0.761534
O17   O     O_R   0.526650 0.379650 0.750390 -0.539495
O18   O     O_R   0.473350 0.879650 0.249610 -0.539496
C7    C     C_R   0.699492 0.348784 0.772305 0.721452
C8    C     C_R   0.300508 0.848785 0.227694 0.721449
V3    V     V_3+5 0.402160 0.486190 0.674900 1.403100
V4    V     V_3+5 0.597840 0.986190 0.325100 1.403100
O19   O     O_3   0.677210 0.574420 0.674910 -0.377509
O20   O     O_3   0.322790 0.074420 0.325090 -0.377510
C9    C     C_R   0.714249 0.066759 0.873394 0.417909
C10   C     C_R   0.285754 0.566761 0.126606 0.417904
H1    H     H_    0.643874 0.120210 0.762438 0.123344
H2    H     H_    0.356125 0.620210 0.237563 0.123344
C11   C     C_R   0.719179 0.263632 0.830493 -0.114400
C12   C     C_R   0.280822 0.763634 0.169507 -0.114401
C13   C     C_R   0.758294 0.345344 0.178098 -0.258822
C14   C     C_R   0.241703 0.845344 0.821900 -0.258822
C15   C     C_R   0.727134 0.422708 0.121246 -0.130877
C16   C     C_R   0.272866 0.922708 0.878752 -0.130872
C17   C     C_R   0.714008 0.384801 0.048768 0.407430
C18   C     C_R   0.285995 0.884802 0.951230 0.407432
C19   C     C_R   0.754212 0.268043 0.032938 0.056014
C20   C     C_R   0.245792 0.768045 0.967061 0.056019
C21   C     C_R   0.782970 0.189668 0.091463 0.009251
C22   C     C_R   0.217031 0.689669 0.908536 0.009266
C23   C     C_R   0.755908 0.225819 0.960180 0.036393
C24   C     C_R   0.244096 0.725821 0.039819 0.036397
C25   C     C_R   0.751082 0.105894 0.946238 -0.042139
C26   C     C_R   0.248921 0.605897 0.053762 -0.042141
C27   C     C_R   0.783026 0.030500 0.005843 0.002667
C28   C     C_R   0.216977 0.530502 0.994158 0.002664
C29   C     C_R   0.803262 0.072677 0.076470 -0.241915
C30   C     C_R   0.196738 0.572678 0.923530 -0.241921
C31   C     C_R   0.767091 0.300190 0.900651 -0.149392
C32   C     C_R   0.232915 0.800193 0.099349 -0.149400
C33   C     C_R   0.686219 0.147750 0.817046 -0.273652
C34   C     C_R   0.313781 0.647752 0.182954 -0.273640
C35   C     C_R   0.782693 0.228871 0.164115 -0.104590
C36   C     C_R   0.217307 0.728871 0.835884 -0.104583
H3    H     H_    0.814195 0.387298 0.907818 0.152290
H4    H     H_    0.185815 0.887302 0.092181 0.152291
H5    H     H_    0.759605 0.376242 0.233567 0.123403
H6    H     H_    0.240389 0.876242 0.766431 0.123398
H7    H     H_    0.697909 0.511217 0.134259 0.131918
H8    H     H_    0.302091 0.011217 0.865738 0.131913
H9    H     H_    0.829222 0.011756 0.120373 0.118831
H10   H     H_    0.170777 0.511758 0.879627 0.118828
C37   C     C_2   0.831466 0.233694 0.484621 -0.349757
C38   C     C_2   0.168534 0.733694 0.515378 -0.349758
H11   H     H_    0.968076 0.270351 0.503732 0.151189
H12   H     H_    0.031924 0.770351 0.496268 0.151189
C39   C     C_2   0.668374 0.266417 0.515201 -0.347585
C40   C     C_2   0.331626 0.766417 0.484799 -0.347586
H13   H     H_    0.531758 0.229791 0.496065 0.151210
H14   H     H_    0.468243 0.729791 0.503935 0.151210
C41   C     C_1   0.806787 0.909070 0.998000 0.401899
N1    N     N_1   0.827018 0.811357 0.993240 -0.420126
C42   C     C_1   0.193216 0.409071 0.002002 0.401894
N2    N     N_1   0.172986 0.311359 0.006763 -0.420125
O21   O     O_3   0.675773 0.951925 0.859483 -0.552908
C43   C     C_3   0.792595 0.907172 0.805996 0.080889
H15   H     H_    0.866688 0.831280 0.830082 0.170739
H16   H     H_    0.904279 0.967473 0.787782 0.099596
C44   C     C_3   0.670703 0.865445 0.740244 -0.698475
H17   H     H_    0.576300 0.934899 0.717969 0.197896
H18   H     H_    0.765252 0.836428 0.697359 0.179894
H19   H     H_    0.581717 0.791830 0.755911 0.239047
O22   O     O_3   0.324236 0.451928 0.140517 -0.552908
C45   C     C_3   0.207397 0.407171 0.193997 0.080882
H20   H     H_    0.133309 0.331282 0.169905 0.170744
H21   H     H_    0.095710 0.467472 0.212210 0.099597
C46   C     C_3   0.329270 0.365436 0.259752 -0.698467
H22   H     H_    0.423650 0.434891 0.282040 0.197889
H23   H     H_    0.234707 0.336399 0.302627 0.179902
H24   H     H_    0.418279 0.291832 0.244083 0.239050
O23   O     O_3   0.618613 0.451197 0.995803 -0.570040
C47   C     C_3   0.697302 0.562096 0.990045 0.069766
H25   H     H_    0.850916 0.566359 0.008422 0.114419
H26   H     H_    0.618763 0.622129 0.024226 0.167223
C48   C     C_3   0.674622 0.600790 0.910426 -0.630398
H27   H     H_    0.625942 0.691012 0.906084 0.229398
H28   H     H_    0.812342 0.593049 0.883802 0.181620
H29   H     H_    0.567465 0.547285 0.879321 0.227375
O24   O     O_3   0.381391 0.951199 0.004194 -0.570042
C49   C     C_3   0.302700 0.062098 0.009951 0.069770
H30   H     H_    0.149085 0.066360 0.991575 0.114413
H31   H     H_    0.381235 0.122130 0.975767 0.167218
C50   C     C_3   0.325386 0.100795 0.089569 -0.630381
H32   H     H_    0.374113 0.191010 0.093909 0.229396
H33   H     H_    0.187654 0.093084 0.116189 0.181625
H34   H     H_    0.432511 0.047272 0.120678 0.227368

loop_
_geom_bond_atom_site_label_1
_geom_bond_atom_site_label_2
_ccdc_geom_bond_type
C16   H8    S    
C44   H17   S    
O13   V3    S    
C4    C37   S    
C46   H22   S    
C43   C44   S    
C38   C40   D    
V1    O19   S    
C42   N2    T    
C46   H24   S    
C23   C31   A    
C13   C15   A    
O9    V1    S    
C40   H14   S    
C27   C41   S    
C43   H16   S    
O3    C1    A    
O12   V4    S    
C9    O21   S    
C14   C36   A    
C49   H30   S    
H1    C33   S    
O10   C6    A    
C19   C21   A    
O7    C3    A    
C10   O22   S    
C45   H20   S    
O5    C7    A    
O7    V1    S    
O6    C8    A    
C50   H33   S    
O23   C47   S    
C18   C20   A    
C23   C25   A    
C24   C26   A    
O24   C49   S    
O3    V1    S    
O14   V4    S    
C19   C23   A    
V4    O20   S    
O4    C2    A    
C2    C35   S    
C14   C16   A    
C9    C33   A    
C12   C32   A    
C10   C34   A    
C15   C17   A    
C50   H34   S    
C16   C18   A    
O1    V3    S    
C26   C28   A    
O11   V3    S    
C20   C22   A    
C27   C29   A    
O17   V3    S    
C13   C35   A    
C28   C30   A    
C24   C32   A    
C43   H15   S    
C15   H7    S    
C38   H12   S    
O8    C4    A    
O8    V2    S    
O22   C45   S    
C37   H11   S    
C6    C40   S    
C1    O11   A    
C32   H4    S    
O15   V3    S    
C45   C46   S    
C9    C25   A    
C25   C27   A    
C1    C36   S    
C39   H13   S    
C22   C36   A    
O21   C43   S    
C8    C12   S    
O10   V2    S    
C45   H21   S    
C48   H28   S    
C29   H9    S    
C17   C19   A    
C11   C33   A    
C12   C34   A    
O18   V4    S    
C30   H10   S    
O15   C5    A    
O16   C6    A    
O1    C3    A    
C21   C29   A    
C47   H26   S    
V2    O20   S    
C18   O24   S    
C22   C30   A    
C20   C24   A    
O16   V4    S    
C50   H32   S    
O18   C8    A    
C31   H3    S    
C5    C39   S    
H2    C34   S    
C21   C35   A    
C46   H23   S    
O5    V1    S    
C3    C38   S    
O17   C7    A    
O6    V2    S    
C13   H5    S    
C10   C26   A    
C49   C50   S    
O2    V4    S    
C44   H18   S    
V3    O19   S    
C17   O23   S    
C37   C39   D    
C7    C11   S    
O9    C5    A    
C47   H25   S    
O13   V1    S    
C49   H31   S    
C48   H29   S    
O14   V2    S    
C47   C48   S    
O2    C4    A    
C41   N1    T    
O4    V2    S    
C2    O12   A    
C44   H19   S    
C48   H27   S    
C14   H6    S    
C28   C42   S    
C11   C31   A    
