data_mof_unit_68591.cif
_audit_creation_date              2012-12-11T18:26:25-0500
_audit_creation_method            fapswitch 2.2
_symmetry_space_group_name_H-M    P1
_symmetry_Int_Tables_number       1
_space_group_crystal_system       triclinic
_cell_length_a                    8.750334
_cell_length_b                    14.779556
_cell_length_c                    16.645582
_cell_angle_alpha                 106.255585
_cell_angle_beta                  82.020864
_cell_angle_gamma                 92.455172
_cell_volume                      2046.62187518

loop_
_atom_site_label
_atom_site_type_symbol
_atom_type_description
_atom_site_fract_x
_atom_site_fract_y
_atom_site_fract_z
_atom_type_partial_charge
Ba1   Ba    Ba6+2 0.356390 0.534880 0.456030 1.685611
Ba2   Ba    Ba6+2 0.833430 0.465200 0.543970 1.694737
C1    C     C_3   0.146436 0.763666 0.141395 0.541053
C2    C     C_R   0.885061 0.482509 0.250605 -0.245847
C3    C     C_2   0.447491 0.609597 0.854958 0.501776
C4    C     C_3   0.599871 0.710306 0.209995 0.310440
C5    C     C_2   0.425126 0.583876 0.772858 -0.046481
C6    C     C_2   0.159907 0.522714 0.807958 0.011343
C7    C     C_3   0.200168 0.529108 0.895277 -0.203852
C8    C     C_3   0.317189 0.607294 0.924386 0.201019
C9    C     C_2   0.074454 0.514333 0.965557 0.129192
C10   C     C_2   0.109238 0.483303 0.031126 0.068162
C11   C     C_R   0.853431 0.416298 0.079625 0.027545
C12   C     C_3   0.145798 0.719095 0.215012 0.305902
C13   C     C_R   0.988888 0.466708 0.101225 -0.122895
C14   C     C_R   0.741234 0.393696 0.140600 0.468195
C15   C     C_R   0.756032 0.425136 0.227273 0.008135
C16   C     C_3   0.627036 0.750575 0.132679 0.973321
C17   C     C_R   0.008432 0.495128 0.188827 0.015435
C18   C     C_R   0.205818 0.953909 0.529021 0.062919
C19   C     C_R   0.026393 0.804796 0.498338 0.096160
C20   C     C_R   0.892068 0.767023 0.464280 -0.345071
C21   C     C_R   0.803025 0.815863 0.427403 -0.012622
C22   C     C_R   0.844659 0.907878 0.425875 0.522786
C23   C     C_3   0.051216 0.238326 0.270599 0.787901
C24   C     C_R   0.977491 0.951669 0.459684 -0.091184
C25   C     C_R   0.072986 0.901836 0.496785 -0.100373
C26   C     C_R   0.145741 0.093126 0.486106 -0.031289
C27   C     C_R   0.248134 0.043194 0.515743 0.051715
C28   C     C_3   0.659369 0.785416 0.663834 0.737485
C29   C     C_R   0.179607 0.190068 0.490209 0.105847
C30   C     C_R   0.308117 0.234212 0.527601 -0.218945
C31   C     C_R   0.413174 0.182423 0.551729 -0.016503
C32   C     C_R   0.389623 0.086844 0.538407 -0.070594
C33   C     C_R   0.013565 0.045408 0.456048 0.002094
C34   C     C_3   0.024121 0.158368 0.187062 0.004634
C35   C     C_3   0.680236 0.892987 0.707444 0.985683
C36   C     C_3   0.533175 0.212028 0.329833 0.661355
C37   C     C_3   0.483174 0.112791 0.279006 1.442708
C38   C     C_3   0.118348 0.762418 0.734442 0.327468
C39   C     C_3   0.136555 0.845415 0.818190 -0.011868
C40   C     C_3   0.188622 0.792150 0.293678 -0.429531
C41   C     C_3   0.809995 0.939907 0.662030 -0.297108
C42   C     C_3   0.631162 0.202593 0.395039 -0.238288
C43   C     C_3   0.990647 0.698195 0.754982 -0.168990
C44   C     C_3   0.282403 0.902471 0.805295 -0.281813
C45   C     C_3   0.618138 0.279658 0.763711 0.356444
C46   C     C_3   0.154261 0.806881 0.894013 -0.367631
C47   C     C_3   0.000359 0.914631 0.845472 -0.277081
C48   C     C_3   0.051881 0.853997 0.164590 -0.370957
C49   C     C_3   0.168488 0.310885 0.251435 -0.134747
C50   C     C_3   0.910263 0.084041 0.209016 -0.247550
C51   C     C_3   0.954616 0.197996 0.123612 -0.375954
C52   C     C_3   0.173542 0.105670 0.140872 -0.350434
C53   C     C_3   0.468412 0.286331 0.910010 -0.281412
C54   C     C_3   0.620134 0.144440 0.834306 -0.215680
C55   C     C_3   0.235356 0.310176 0.734081 -0.378627
C56   C     C_3   0.610505 0.251107 0.847642 0.479225
C57   C     C_3   0.007454 0.207911 0.695781 -0.300133
C58   C     C_3   0.196574 0.125216 0.793760 -0.483668
C59   C     C_3   0.987450 0.207746 0.901271 -0.235525
C60   C     C_3   0.241958 0.533821 0.659038 -0.219845
C61   C     C_3   0.889211 0.537597 0.340453 -0.224969
C62   C     C_3   0.274574 0.461346 0.032347 -0.316096
C63   C     C_3   0.622696 0.604161 0.179259 -0.217147
C64   C     C_3   0.299831 0.926779 0.586283 -0.351375
C65   C     C_3   0.606912 0.857098 0.157826 -0.175268
C66   C     C_3   0.572215 0.774701 0.590566 -0.257573
C67   C     C_3   0.079197 0.275254 0.769515 0.458115
C68   C     C_3   0.116348 0.221085 0.834232 -0.034034
C69   C     C_2   0.269613 0.546522 0.749617 -0.298323
F1    F     F_    0.704693 0.905231 0.789775 -0.718045
F2    F     F_    0.731498 0.295434 0.886839 -0.718783
F3    F     F_    0.581650 0.652096 0.878070 -0.620802
F4    F     F_    0.618486 0.339925 0.114488 -0.687057
F5    F     F_    0.756760 0.954309 0.389084 -0.686255
F6    F     F_    0.523937 0.710292 0.076619 -0.700050
F7    F     F_    0.798515 0.741325 0.636532 -0.772430
F8    F     F_    0.548789 0.942425 0.709959 -0.794633
F9    F     F_    0.403752 0.264500 0.368657 -0.762899
F10   F     F_    0.481262 0.110694 0.195636 -0.726347
F11   F     F_    0.339061 0.089509 0.312797 -0.721383
F12   F     F_    0.581897 0.043129 0.280641 -0.748477
F13   F     F_    0.915048 0.285034 0.306643 -0.781400
F14   F     F_    0.087955 0.699316 0.075490 -0.676177
F15   F     F_    0.774804 0.729240 0.091024 -0.647296
H1    H     H_    0.230260 0.726766 0.714136 -0.043568
H2    H     H_    0.481667 0.048276 0.551007 0.122744
H3    H     H_    0.332085 0.307954 0.533579 0.079561
H4    H     H_    0.936756 0.081451 0.429838 0.145324
H5    H     H_    0.208464 0.758106 0.342662 0.163057
H6    H     H_    0.292775 0.832822 0.279131 0.138346
H7    H     H_    0.093467 0.842474 0.318710 0.074228
H8    H     H_    0.846220 0.007131 0.702789 0.087464
H9    H     H_    0.913396 0.897618 0.644705 0.103189
H10   H     H_    0.773586 0.953365 0.605300 0.067517
H11   H     H_    0.632377 0.270481 0.444563 0.139258
H12   H     H_    0.266383 0.780706 0.118698 0.101017
H13   H     H_    0.590393 0.144080 0.421283 0.097003
H14   H     H_    0.749353 0.181895 0.365213 0.146098
H15   H     H_    0.015929 0.661689 0.800500 0.023213
H16   H     H_    0.881051 0.737212 0.779895 0.193282
H17   H     H_    0.976400 0.647711 0.695148 0.156183
H18   H     H_    0.382804 0.855925 0.789194 0.201145
H19   H     H_    0.275125 0.936966 0.755626 0.151530
H20   H     H_    0.300825 0.958066 0.863873 0.127372
H21   H     H_    0.045843 0.774860 0.916986 0.172782
H22   H     H_    0.247233 0.753976 0.875572 0.100192
H23   H     H_    0.026307 0.693305 0.229387 0.042170
H24   H     H_    0.185059 0.864026 0.948899 0.138796
H25   H     H_    0.979431 0.941519 0.792395 0.161836
H26   H     H_    0.895069 0.880927 0.869475 0.195217
H27   H     H_    0.025021 0.976410 0.898192 0.088193
H28   H     H_    0.032699 0.871745 0.106220 0.152487
H29   H     H_    0.938982 0.845007 0.200767 0.170995
H30   H     H_    0.114818 0.913565 0.203240 0.071647
H31   H     H_    0.138858 0.338315 0.200511 -0.006497
H32   H     H_    0.169774 0.371707 0.308057 0.136252
H33   H     H_    0.284385 0.278641 0.232189 0.143738
H34   H     H_    0.738558 0.295656 0.742389 0.104203
H35   H     H_    0.942906 0.058264 0.260858 0.152284
H36   H     H_    0.795123 0.115103 0.227221 0.183603
H37   H     H_    0.901600 0.022605 0.153236 0.103530
H38   H     H_    0.848852 0.237880 0.154531 0.183200
H39   H     H_    0.037027 0.243729 0.095970 0.077994
H40   H     H_    0.921299 0.139662 0.070394 0.139821
H41   H     H_    0.150496 0.051494 0.082234 0.099584
H42   H     H_    0.262511 0.153812 0.121386 0.164008
H43   H     H_    0.218639 0.067955 0.181294 0.223580
H44   H     H_    0.392325 0.229104 0.924181 0.062603
H45   H     H_    0.554300 0.346022 0.773638 -0.009034
H46   H     H_    0.502176 0.328432 0.971438 0.221339
H47   H     H_    0.404867 0.330525 0.883891 0.018498
H48   H     H_    0.632433 0.128374 0.894465 0.138981
H49   H     H_    0.515529 0.107996 0.810496 0.148734
H50   H     H_    0.718125 0.115637 0.787816 0.107293
H51   H     H_    0.290293 0.360993 0.783827 0.061494
H52   H     H_    0.310476 0.250370 0.707435 0.096962
H53   H     H_    0.228786 0.341156 0.681893 0.066752
H54   H     H_    0.974853 0.245616 0.651912 0.124421
H55   H     H_    0.089401 0.151880 0.659008 0.043249
H56   H     H_    0.481042 0.726001 0.241110 0.046854
H57   H     H_    0.904428 0.173107 0.719115 0.098309
H58   H     H_    0.300200 0.128695 0.748901 0.159744
H59   H     H_    0.235316 0.099192 0.843814 0.132120
H60   H     H_    0.115578 0.072734 0.760616 0.122706
H61   H     H_    0.897621 0.161196 0.872147 0.152776
H62   H     H_    0.033285 0.172467 0.943567 0.057887
H63   H     H_    0.944637 0.276650 0.942475 0.204474
H64   H     H_    0.124489 0.539144 0.649013 0.125661
H65   H     H_    0.278905 0.594547 0.636294 0.083836
H66   H     H_    0.295444 0.467949 0.616599 0.113254
H67   H     H_    0.192766 0.267615 0.873566 0.088882
H68   H     H_    0.927797 0.609659 0.340784 0.031883
H69   H     H_    0.778658 0.553641 0.378169 0.131102
H70   H     H_    0.958984 0.500954 0.372511 0.149207
H71   H     H_    0.281810 0.397288 0.053861 0.126406
H72   H     H_    0.344570 0.452194 0.971492 0.075785
H73   H     H_    0.333114 0.522841 0.068995 0.200615
H74   H     H_    0.747188 0.589989 0.159508 0.102494
H75   H     H_    0.579970 0.571239 0.229936 0.110555
H76   H     H_    0.560215 0.571272 0.124779 0.147764
H77   H     H_    0.405378 0.893443 0.548344 0.174502
H78   H     H_    0.956006 0.532421 0.964377 0.146736
H79   H     H_    0.330543 0.988185 0.637096 0.116553
H80   H     H_    0.237281 0.888039 0.624120 0.152971
H81   H     H_    0.487764 0.876796 0.188541 0.081540
H82   H     H_    0.690012 0.891538 0.201553 0.161627
H83   H     H_    0.629253 0.883201 0.100849 0.143296
H84   H     H_    0.612047 0.826621 0.556347 -0.017938
H85   H     H_    0.583028 0.703548 0.545818 0.138596
H86   H     H_    0.452845 0.790414 0.620277 0.103849
H87   H     H_    0.851238 0.699019 0.470083 0.096474
O1    O     O_2   0.449810 0.404330 0.292300 -0.410103
O2    O     O_2   0.731817 0.185144 0.558787 -0.483047
O3    O     O_3   0.563056 0.206528 0.700823 -0.662209
O4    O     O_3   0.665430 0.428070 0.399450 -0.489675
O5    O     O_3   0.040450 0.621130 0.538560 -0.476416
O6    O     O_2   0.903680 0.264350 0.468980 -0.467259
O7    O     O_3   0.106707 0.195827 0.327072 -0.583485
O8    O     O_2   0.835895 0.504288 0.806924 -0.409498
O9    O     O_3   0.974091 0.350369 0.812255 -0.552094
O10   O     O_3   0.183150 0.584440 0.337010 -0.496517
O11   O     O_2   0.326139 0.479211 0.198495 -0.469656
O12   O     O_3   0.074757 0.794947 0.668510 -0.617981
O13   O     O_3   0.622918 0.255608 0.274678 -0.594217
O14   O     O_3   0.256367 0.646352 0.190187 -0.598905
O15   O     O_2   0.286000 0.735700 0.531070 -0.529478
O16   O     O_3   0.580930 0.641410 0.378050 -0.528376
O17   O     O_2   0.494632 0.818564 0.393764 -0.458347
O18   O     O_3   0.707766 0.750118 0.265482 -0.631131
O19   O     O_2   0.739870 0.595710 0.707750 -0.403900
O20   O     O_3   0.524260 0.572010 0.600550 -0.533490
O21   O     O_3   0.006540 0.415640 0.663000 -0.528386
O22   O     O_3   0.572468 0.744505 0.722035 -0.619760
O23   O     O_3   0.149240 0.378950 0.461440 -0.464370
O24   O     O_3   0.608760 0.358670 0.621950 -0.503514
P1    P     P_3+3 0.619500 0.379780 0.307000 1.176810
P2    P     P_3+3 0.105540 0.727570 0.557610 1.010012
P3    P     P_3+3 0.640240 0.755543 0.371698 0.974931
P4    P     P_3+3 0.570190 0.620290 0.693000 1.087383
P5    P     P_3+3 0.580981 0.236366 0.605047 0.909660
P6    P     P_3+3 0.191255 0.549965 0.227776 0.940784
P7    P     P_3+3 0.082088 0.259131 0.435713 1.097519
P8    P     P_3+3 0.990388 0.450890 0.773022 0.984232

loop_
_geom_bond_atom_site_label_1
_geom_bond_atom_site_label_2
_ccdc_geom_bond_type
C65   H82   S    
C59   C68   S    
C12   H23   S    
C46   H24   S    
O5    P2    S    
C1    F14   S    
C40   H7    S    
C66   H86   S    
C47   H27   S    
Ba1   P1    S    
C54   H49   S    
Ba1   O10   S    
C23   O7    S    
O17   P3    D    
C41   H8    S    
C65   H83   S    
C13   C17   A    
C35   F8    S    
C2    C61   S    
C24   C25   A    
C16   F15   S    
C35   F1    S    
C60   H66   S    
C63   H76   S    
C18   C64   S    
C26   C27   A    
C59   H62   S    
Ba2   O19   S    
C61   H70   S    
Ba1   Ba2   S    
C67   C68   S    
C5    C69   S    
C36   C37   S    
C10   C62   S    
C66   H85   S    
C46   H21   S    
C14   C15   A    
Ba2   O24   S    
C44   H19   S    
O14   P6    S    
C31   P5    S    
C49   H32   S    
O20   P4    S    
C55   H53   S    
C48   H29   S    
C42   H11   S    
C3    F3    S    
O21   P8    S    
C34   C51   S    
C43   H17   S    
C2    C17   A    
C66   H84   S    
C4    C63   S    
C29   C30   A    
C26   C33   A    
C6    C7    S    
C61   H68   S    
C4    O18   S    
C64   H77   S    
C23   F13   S    
C41   H9    S    
C39   C44   S    
Ba2   O4    S    
O23   P7    S    
C7    C8    S    
C40   H6    S    
C45   O3    S    
C34   C50   S    
C67   O9    S    
C47   H25   S    
C19   C25   A    
C57   H57   S    
O11   P6    D    
C19   C20   A    
Ba1   P2    S    
Ba2   P4    S    
C50   H36   S    
C19   P2    S    
C63   H74   S    
C39   C47   S    
C54   H50   S    
C1    C48   S    
C41   H10   S    
C18   C27   A    
C38   C43   S    
C4    C16   S    
Ba1   O1    S    
O1    P1    D    
C60   H65   S    
C64   H80   S    
O3    P5    S    
C15   P1    S    
Ba1   O23   S    
O18   P3    S    
C37   F10   S    
C43   H16   S    
C3    C5    D    
C44   H18   S    
C22   F5    S    
C38   O12   S    
C23   C34   S    
O15   P2    D    
C16   C65   S    
C36   O13   S    
C52   H42   S    
C27   C32   A    
C50   H37   S    
C28   C35   S    
C45   H45   S    
Ba2   O21   S    
C35   C41   S    
O8    P8    D    
C23   C49   S    
C36   C42   S    
C62   H71   S    
O2    P5    D    
C55   H52   S    
Ba1   O5    S    
C49   H33   S    
C28   O22   S    
C10   C13   S    
C58   C68   S    
O19   P4    D    
C53   H44   S    
C48   H30   S    
C17   P6    S    
C31   C32   A    
C55   H51   S    
O24   P5    S    
C32   H2    S    
O12   P2    S    
C14   F4    S    
C7    C9    S    
C29   P7    S    
C1    C12   S    
C51   H39   S    
C57   C67   S    
C47   H26   S    
C2    C15   A    
O16   P3    S    
C45   H34   S    
C18   C25   A    
O4    P1    S    
C43   H15   S    
C30   H3    S    
C55   C67   S    
C50   H35   S    
C53   C56   S    
C4    H56   S    
C58   H59   S    
C62   H72   S    
C20   H87   S    
C38   H1    S    
Ba1   O15   S    
C65   H81   S    
C52   H43   S    
C38   C39   S    
C6    C69   D    
C60   H64   S    
C64   H79   S    
C20   C21   A    
C42   H13   S    
C26   C29   A    
C37   F11   S    
C22   C24   A    
O7    P7    S    
C51   H38   S    
C54   H48   S    
C9    C10   D    
O22   P4    S    
C68   H67   S    
C52   H41   S    
Ba1   O4    S    
C12   C40   S    
Ba2   O20   S    
O10   P6    S    
C30   C31   A    
O9    P8    S    
C11   C13   A    
C59   H61   S    
C61   H69   S    
C3    C8    S    
C5    P4    S    
C53   H47   S    
C58   H58   S    
C45   C56   S    
C12   O14   S    
C42   H14   S    
C1    H12   S    
C46   H22   S    
C36   F9    S    
C57   H54   S    
C16   F6    S    
C21   P3    S    
C62   H73   S    
C9    H78   S    
C49   H31   S    
C39   C46   S    
C54   C56   S    
C60   C69   S    
Ba2   O23   S    
C6    P8    S    
C34   C52   S    
C51   H40   S    
C44   H20   S    
C21   C22   A    
C37   F12   S    
C28   F7    S    
C33   H4    S    
C24   C33   A    
C58   H60   S    
O6    P7    D    
C57   H55   S    
C53   H46   S    
Ba2   O6    S    
C11   C14   A    
C63   H75   S    
Ba1   O20   S    
O13   P1    S    
Ba2   O5    S    
C48   H28   S    
C59   H63   S    
C28   C66   S    
C40   H5    S    
C56   F2    S    
Ba1   O16   S    
