data_mof_unit_13025.cif
_audit_creation_date              2012-12-10T17:02:11-0500
_audit_creation_method            fapswitch 2.2
_symmetry_space_group_name_H-M    P1
_symmetry_Int_Tables_number       1
_space_group_crystal_system       triclinic
_cell_length_a                    10.69943
_cell_length_b                    10.842915
_cell_length_c                    10.102463
_cell_angle_alpha                 90.810761
_cell_angle_beta                  89.624308
_cell_angle_gamma                 92.376037
_cell_volume                      1170.87136177

loop_
_atom_site_label
_atom_site_type_symbol
_atom_type_description
_atom_site_fract_x
_atom_site_fract_y
_atom_site_fract_z
_atom_type_partial_charge
C1    C     C_R   0.506953 0.264210 0.499132 0.920415
C2    C     C_2   0.543728 0.139305 0.496234 0.054851
C3    C     C_2   0.421680 0.556978 0.926870 0.007396
C4    C     C_R   0.260633 0.502646 0.501087 0.861650
C5    C     C_2   0.444115 0.578717 0.073903 0.043175
C6    C     C_R   0.492521 0.737064 0.500719 0.818286
C7    C     C_R   0.739724 0.502988 0.499085 0.825776
C8    C     C_R   0.132036 0.672099 0.681662 -0.279770
C9    C     C_R   0.067938 0.754187 0.761798 0.558890
C10   C     C_R   0.944339 0.777077 0.732062 -0.237193
C11   C     C_R   0.883851 0.712384 0.628049 0.116619
C12   C     C_R   0.067942 0.594587 0.588001 -0.011694
C13   C     C_R   0.938958 0.606578 0.572323 0.046315
C14   C     C_3   0.639019 0.102254 0.598008 -0.400211
C15   C     C_3   0.763692 0.174325 0.582039 -0.926885
C16   C     C_3   0.689711 0.413935 0.867986 -0.145854
C17   C     C_3   0.485394 0.369559 0.110665 -0.122019
C18   C     C_3   0.351395 0.317835 0.133470 -0.887344
C19   C     C_3   0.104316 0.782475 0.980517 -0.363884
C20   C     C_3   0.791690 0.783475 0.550911 -0.369926
C21   C     C_3   0.860948 0.886080 0.473650 -0.850682
C22   C     C_3   0.610906 0.956098 0.184024 -0.333386
C23   C     C_R   0.128306 0.509475 0.504122 -0.049222
C24   C     C_3   0.429930 0.902353 0.723927 -0.230924
C25   C     C_R   0.061781 0.431070 0.417063 -0.210155
C26   C     C_R   0.933994 0.432078 0.415298 -0.207355
C27   C     C_R   0.872714 0.516751 0.494511 -0.082381
C28   C     C_2   0.517568 0.934680 0.394141 0.440869
C29   C     C_2   0.474866 0.869364 0.499519 0.214066
C30   C     C_2   0.497558 0.066649 0.398329 -0.274073
H1    H     H_    0.108746 0.365468 0.354082 0.146964
H2    H     H_    0.833122 0.138633 0.651503 0.256048
H3    H     H_    0.601843 0.118442 0.699415 0.206544
H4    H     H_    0.659081 0.004492 0.589571 0.214447
H5    H     H_    0.778497 0.444145 0.818753 0.175517
H6    H     H_    0.639298 0.342453 0.806646 0.166495
H7    H     H_    0.717634 0.370285 0.961334 0.099541
H8    H     H_    0.283987 0.368712 0.074095 0.236637
H9    H     H_    0.323013 0.322393 0.238443 0.289925
H10   H     H_    0.345006 0.219274 0.101740 0.217181
H11   H     H_    0.506791 0.346702 0.007907 0.160253
H12   H     H_    0.337413 0.590308 0.883479 0.072886
H13   H     H_    0.553446 0.315999 0.165314 0.182801
H14   H     H_    0.130097 0.684523 0.990208 0.157253
H15   H     H_    0.003698 0.792471 0.005395 0.178366
H16   H     H_    0.160025 0.837959 0.053934 0.196795
H17   H     H_    0.910691 0.952271 0.541743 0.264077
H18   H     H_    0.930212 0.845796 0.404824 0.264767
H19   H     H_    0.794250 0.937107 0.414106 0.278608
H20   H     H_    0.740317 0.726940 0.476542 0.227793
H21   H     H_    0.722877 0.821130 0.621077 0.178784
H22   H     H_    0.672466 0.036883 0.213556 0.164115
H23   H     H_    0.408847 0.661628 0.119428 0.115091
H24   H     H_    0.522879 0.986014 0.138679 0.156296
H25   H     H_    0.661650 0.903296 0.107328 0.197408
H26   H     H_    0.532044 0.892372 0.737641 0.118578
H27   H     H_    0.377778 0.819557 0.761175 0.209774
H28   H     H_    0.402396 0.981665 0.786595 0.187441
H29   H     H_    0.231244 0.671718 0.695418 0.184718
H30   H     H_    0.901273 0.855465 0.778718 0.153252
H31   H     H_    0.882503 0.365277 0.353518 0.151081
H32   H     H_    0.436055 0.102296 0.323928 0.134347
H33   H     H_    0.799598 0.164697 0.479178 0.261027
H34   H     H_    0.753153 0.273059 0.605879 0.261965
N1    N     N_2   0.501340 0.501330 0.852150 0.069677
N2    N     N_2   0.501380 0.501360 0.147810 -0.044463
O1    O     O_R   0.499980 0.319060 0.613040 -0.629350
O2    O     O_3   0.132916 0.827260 0.853136 -0.614925
O3    O     O_3   0.585421 0.878188 0.292471 -0.606581
O4    O     O_3   0.396322 0.925390 0.591756 -0.627411
O5    O     O_R   0.500020 0.319100 0.386900 -0.653589
O6    O     O_R   0.316750 0.499980 0.613090 -0.639329
O7    O     O_R   0.316790 0.500020 0.386950 -0.628524
O8    O     O_R   0.499980 0.680900 0.613100 -0.632392
O9    O     O_R   0.500020 0.680940 0.386960 -0.570509
O10   O     O_R   0.683210 0.499980 0.613050 -0.608929
O11   O     O_R   0.683250 0.500020 0.386910 -0.603704
O12   O     O_3   0.619605 0.518177 0.899051 -0.523922
Zn1   Zn    Zn3+2 0.499970 0.499970 0.650990 0.962217
Zn2   Zn    Zn3+2 0.500030 0.500030 0.349010 0.959612

loop_
_geom_bond_atom_site_label_1
_geom_bond_atom_site_label_2
_ccdc_geom_bond_type
C25   H1    S    
C3    H12   S    
N1    Zn1   S    
C28   O3    S    
O10   Zn1   S    
C14   H3    S    
C21   H19   S    
C19   H16   S    
C24   O4    S    
C6    O9    A    
C22   H24   S    
C12   C23   A    
C26   C27   A    
C1    O5    A    
C5    H23   S    
C28   C29   D    
C26   H31   S    
C20   H21   S    
C16   H5    S    
C7    C27   S    
C1    C2    S    
C18   H10   S    
C20   H20   S    
C24   H27   S    
C15   H34   S    
O9    Zn2   S    
C22   O3    S    
C16   H7    S    
C7    O11   A    
C21   H18   S    
C3    N1    D    
O5    Zn2   S    
C6    O8    A    
C11   C20   S    
C15   H2    S    
O1    Zn1   S    
C4    C23   S    
C8    C9    A    
C25   C26   A    
C10   H30   S    
C18   H9    S    
C17   H13   S    
C8    C12   A    
C17   C18   S    
C17   N2    S    
C19   O2    S    
C12   C13   A    
C4    O7    A    
C22   H25   S    
O8    Zn1   S    
C30   H32   S    
C24   H26   S    
C4    O6    A    
C19   H14   S    
C22   H22   S    
C29   O4    S    
C9    C10   A    
O11   Zn2   S    
N1    O12   S    
C5    N2    D    
C3    C5    S    
C14   H4    S    
C19   H15   S    
C7    O10   A    
O6    Zn1   S    
N2    Zn2   S    
C2    C30   D    
C28   C30   S    
C18   H8    S    
C9    O2    S    
C8    H29   S    
C16   H6    S    
C11   C13   A    
C1    O1    A    
O7    Zn2   S    
C16   O12   S    
C23   C25   A    
C2    C14   S    
C17   H11   S    
C10   C11   A    
C6    C29   S    
C20   C21   S    
C24   H28   S    
C15   H33   S    
C14   C15   S    
C13   C27   A    
C21   H17   S    
