data_mof_unit_34101.cif
_audit_creation_date              2012-12-10T17:45:30-0500
_audit_creation_method            fapswitch 2.2
_symmetry_space_group_name_H-M    P1
_symmetry_Int_Tables_number       1
_space_group_crystal_system       triclinic
_cell_length_a                    11.605942
_cell_length_b                    10.714794
_cell_length_c                    10.027494
_cell_angle_alpha                 89.279218
_cell_angle_beta                  90.310706
_cell_angle_gamma                 91.286141
_cell_volume                      1246.5425232

loop_
_atom_site_label
_atom_site_type_symbol
_atom_type_description
_atom_site_fract_x
_atom_site_fract_y
_atom_site_fract_z
_atom_type_partial_charge
C1    C     C_R   0.493814 0.260331 0.500019 0.954198
C2    C     C_R   0.807643 0.077785 0.577337 0.343033
C3    C     C_R   0.810380 0.946837 0.585624 0.413361
C4    C     C_R   0.708985 0.878108 0.561697 -0.190196
C5    C     C_R   0.604433 0.937810 0.531641 -0.019405
C6    C     C_R   0.601033 0.068147 0.529974 0.012140
C7    C     C_R   0.496179 0.126407 0.498372 -0.194178
C8    C     C_R   0.397280 0.055769 0.458212 0.376347
C9    C     C_R   0.403005 0.926624 0.456447 0.297698
C10   C     C_R   0.504141 0.870022 0.497322 -0.185347
C11   C     C_R   0.325221 0.370631 0.133838 -0.141335
C12   C     C_R   0.282548 0.506040 0.499714 0.985014
C13   C     C_R   0.228817 0.334698 0.058918 0.358072
C14   C     C_R   0.241356 0.322787 0.920772 0.151487
C15   C     C_R   0.353109 0.332732 0.867985 0.361362
C16   C     C_R   0.425129 0.422428 0.929293 -0.095848
C17   C     C_R   0.419544 0.429605 0.071513 -0.014922
C18   C     C_R   0.574670 0.573003 0.070965 0.390970
C19   C     C_R   0.572938 0.574888 0.928158 0.396865
C20   C     C_R   0.503766 0.738357 0.499302 0.936628
C21   C     C_R   0.717767 0.500692 0.500217 0.847558
C22   C     C_1   0.161773 0.507943 0.499043 -0.018257
C23   C     C_1   0.059608 0.507229 0.498922 0.107238
C24   C     C_1   0.940704 0.504754 0.499515 0.141167
C25   C     C_1   0.838520 0.502587 0.500285 -0.025232
C26   C     C_R   0.703903 0.137129 0.553327 -0.187327
H1    H     H_    0.706075 0.237926 0.547945 0.160027
H2    H     H_    0.713573 0.777393 0.562449 0.190216
H3    H     H_    0.323349 0.354225 0.237390 0.263050
N1    N     N_R   0.498930 0.498800 0.142780 -0.147798
N2    N     N_R   0.498900 0.498720 0.857170 -0.158359
O1    O     O_R   0.500000 0.316780 0.614690 -0.558482
O2    O     O_R   0.499990 0.316750 0.385360 -0.622135
O3    O     O_R   0.334450 0.500030 0.614670 -0.639977
O4    O     O_R   0.334440 0.500000 0.385330 -0.617274
O5    O     O_R   0.500010 0.683250 0.614640 -0.583292
O6    O     O_R   0.500000 0.683220 0.385310 -0.561060
O7    O     O_R   0.665560 0.500000 0.614670 -0.566913
O8    O     O_R   0.665550 0.499970 0.385330 -0.572102
Zn1   Zn    Zn3+2 0.500010 0.500020 0.653130 1.071962
Zn2   Zn    Zn3+2 0.499990 0.499980 0.346870 1.061505
S1    S     S_3+6 0.266365 0.122158 0.404489 0.131178
O9    O     O_2   0.259463 0.256757 0.437991 -0.333601
O10   O     O_2   0.257931 0.106441 0.256129 -0.234761
O11   O     O_3   0.154200 0.047118 0.476769 -0.356521
H4    H     H_    0.090961 0.051697 0.410287 0.426612
S2    S     S_3+6 0.126460 0.267465 0.822474 0.177581
O12   O     O_2   0.163352 0.261696 0.679843 -0.204659
O13   O     O_2   0.090687 0.139166 0.870674 -0.082521
O14   O     O_3   0.014128 0.362923 0.835368 -0.457298
H5    H     H_    0.044041 0.445759 0.805056 0.331943
S3    S     S_3+6 0.415531 0.183309 0.857613 0.094626
O15   O     O_2   0.360575 0.110972 0.746063 -0.249342
O16   O     O_2   0.543713 0.194328 0.837794 -0.263885
O17   O     O_3   0.390810 0.104612 0.001174 -0.498008
H6    H     H_    0.424770 0.021675 0.988196 0.405412
Cl1   Cl    Cl    0.667469 0.677080 0.842187 -0.438985
Cl2   Cl    Cl    0.931325 0.173212 0.586084 -0.417726
S4    S     S_3+6 0.937997 0.863962 0.617964 0.103063
O18   O     O_2   0.991481 0.831008 0.487306 -0.266566
O19   O     O_2   0.022479 0.940123 0.698678 -0.131097
O20   O     O_3   0.905616 0.731506 0.702547 -0.521400
H7    H     H_    0.980932 0.693785 0.722987 0.375377
Cl3   Cl    Cl    0.283843 0.832304 0.401264 -0.467066
Cl4   Cl    Cl    0.671562 0.672770 0.156143 -0.452118
Cl5   Cl    Cl    0.097329 0.302109 0.140845 -0.390696

loop_
_geom_bond_atom_site_label_1
_geom_bond_atom_site_label_2
_ccdc_geom_bond_type
O11   H4    S    
C23   C24   S    
C2    Cl2   S    
N1    Zn2   S    
C6    C7    A    
C20   O6    A    
S2    O14   S    
C9    Cl3   S    
C3    S4    S    
C9    C10   A    
S2    O12   D    
C21   O8    A    
S3    O17   S    
O17   H6    S    
C19   N2    A    
O20   H7    S    
C15   S3    S    
O14   H5    S    
C1    O2    A    
S4    O18   D    
C2    C26   A    
C6    C26   A    
C13   C14   A    
C24   C25   T    
C18   Cl4   S    
O7    Zn1   S    
C17   N1    A    
C11   C13   A    
C26   H1    S    
C14   S2    S    
S1    O10   D    
O3    Zn1   S    
C5    C10   A    
C4    H2    S    
C8    S1    S    
C2    C3    A    
O2    Zn2   S    
C22   C23   T    
C13   Cl5   S    
O1    Zn1   S    
O6    Zn2   S    
C5    C6    A    
O4    Zn2   S    
C12   O4    A    
S4    O19   D    
C7    C8    A    
S1    O9    D    
C18   N1    A    
C12   O3    A    
C15   C16   A    
C20   O5    A    
C12   C22   S    
O5    Zn1   S    
S3    O15   D    
C11   H3    S    
S2    O13   D    
C18   C19   A    
O8    Zn2   S    
C10   C20   S    
C21   C25   S    
C14   C15   A    
C4    C5    A    
S4    O20   S    
N2    Zn1   S    
C1    C7    S    
C1    O1    A    
C19   Cl1   S    
C21   O7    A    
C3    C4    A    
C16   C17   A    
S3    O16   D    
C8    C9    A    
C16   N2    A    
S1    O11   S    
C11   C17   A    
