data_mof_unit_50663.cif
_audit_creation_date              2012-12-10T18:33:44-0500
_audit_creation_method            fapswitch 2.2
_symmetry_space_group_name_H-M    P1
_symmetry_Int_Tables_number       1
_space_group_crystal_system       triclinic
_cell_length_a                    10.565578
_cell_length_b                    15.049064
_cell_length_c                    15.477987
_cell_angle_alpha                 82.771643
_cell_angle_beta                  89.428207
_cell_angle_gamma                 104.128482
_cell_volume                      2365.50130391

loop_
_atom_site_label
_atom_site_type_symbol
_atom_type_description
_atom_site_fract_x
_atom_site_fract_y
_atom_site_fract_z
_atom_type_partial_charge
C1    C     C_R   0.484922 0.442338 0.662012 0.860173
C2    C     C_R   0.589254 0.487751 0.044115 0.039645
C3    C     C_R   0.577282 0.393184 0.074297 -0.264614
C4    C     C_R   0.641697 0.612309 0.923352 -0.275917
C5    C     C_R   0.557061 0.326590 0.017009 0.077697
C6    C     C_R   0.659733 0.678490 0.980740 0.067933
C7    C     C_R   0.690629 0.844661 0.639052 0.028707
C8    C     C_R   0.314363 0.156758 0.357890 0.025561
C9    C     C_R   0.669954 0.758231 0.610392 0.175300
C10   C     C_R   0.332102 0.242235 0.388185 0.175708
C11   C     C_R   0.509978 0.792706 0.514196 -0.055619
C12   C     C_R   0.521075 0.557766 0.337953 0.854401
C13   C     C_R   0.491206 0.207737 0.485144 -0.064780
C14   C     C_R   0.542199 0.885901 0.530747 -0.036562
C15   C     C_R   0.460390 0.114821 0.467806 -0.036102
C16   C     C_R   0.741894 0.500431 0.499557 0.891046
C17   C     C_R   0.258043 0.499587 0.500347 0.894265
C18   C     C_R   0.622788 0.907538 0.601295 0.091054
C19   C     C_R   0.381314 0.093580 0.396405 0.089576
C20   C     C_R   0.494408 0.957089 0.482371 0.053266
C21   C     C_R   0.508599 0.043720 0.516029 0.056184
C22   C     C_R   0.566335 0.054277 0.597946 0.068135
C23   C     C_R   0.532319 0.474326 0.810988 -0.256379
C24   C     C_R   0.437478 0.946622 0.400236 0.058875
C25   C     C_R   0.631311 0.990173 0.635115 -0.233146
C26   C     C_R   0.373610 0.011107 0.362411 -0.236500
C27   C     C_3   0.932876 0.419866 0.478857 0.153952
C28   C     C_3   0.066790 0.580116 0.520737 0.154634
C29   C     C_3   0.016386 0.429007 0.559999 -0.291037
C30   C     C_3   0.983210 0.570935 0.439625 -0.339178
C31   C     C_3   0.123537 0.499707 0.501067 -0.054914
C32   C     C_3   0.876246 0.500274 0.498649 -0.051950
C33   C     C_3   0.039626 0.489104 0.421460 0.069677
C34   C     C_R   0.548631 0.527346 0.188292 -0.256432
C35   C     C_3   0.960196 0.510861 0.578178 0.097969
C36   C     C_R   0.497163 0.409010 0.753695 -0.058135
C37   C     C_R   0.552360 0.592002 0.245748 -0.056131
C38   C     C_R   0.506923 0.287871 0.870084 -0.196951
C39   C     C_R   0.632622 0.715504 0.127994 -0.188140
C40   C     C_R   0.485726 0.315464 0.783161 -0.217364
C41   C     C_R   0.595561 0.686474 0.215642 -0.223644
C42   C     C_R   0.560962 0.449179 0.896994 0.068031
C43   C     C_R   0.591733 0.554381 0.101341 0.062195
C44   C     C_R   0.542495 0.353864 0.928229 0.154561
C45   C     C_R   0.629122 0.650199 0.069801 0.171110
C46   C     C_R   0.597934 0.516758 0.953824 0.045236
H1    H     H_    0.569268 0.234499 0.526107 0.184168
H2    H     H_    0.300289 0.364322 0.329934 0.236842
H3    H     H_    0.701366 0.635836 0.668212 0.234701
H4    H     H_    0.816839 0.697639 0.589461 0.219460
H5    H     H_    0.759092 0.820644 0.759019 0.184901
H6    H     H_    0.876149 0.867712 0.679668 0.202647
H7    H     H_    0.254976 0.182627 0.235301 0.200559
H8    H     H_    0.132217 0.135548 0.311202 0.201959
H9    H     H_    0.501624 0.093541 0.707107 0.186581
H10   H     H_    0.643980 0.162698 0.662288 0.181595
H11   H     H_    0.359879 0.838216 0.335881 0.172689
H12   H     H_    0.432151 0.766232 0.473034 0.166832
H13   H     H_    0.503087 0.906734 0.291673 0.190071
H14   H     H_    0.924234 0.292315 0.445642 0.183365
H15   H     H_    0.820124 0.346451 0.393630 0.191381
H16   H     H_    0.073483 0.703855 0.562033 0.184467
H17   H     H_    0.194240 0.705405 0.490709 0.176738
H18   H     H_    0.009339 0.473606 0.294410 0.186105
H19   H     H_    0.160473 0.532875 0.313649 0.176086
H20   H     H_    0.990624 0.526881 0.705125 0.197022
H21   H     H_    0.839625 0.467003 0.686201 0.177005
H22   H     H_    0.545985 0.221174 0.117509 0.185491
H23   H     H_    0.600379 0.737754 0.259539 0.169671
H24   H     H_    0.628067 0.213183 0.026720 0.177710
H25   H     H_    0.795048 0.784986 0.915579 0.187979
H26   H     H_    0.638345 0.791126 0.902021 0.188319
H27   H     H_    0.507676 0.455384 0.211875 0.160955
H28   H     H_    0.532710 0.545102 0.788248 0.161249
H29   H     H_    0.587679 0.370039 0.142166 0.143538
H30   H     H_    0.665879 0.637313 0.855189 0.148448
H31   H     H_    0.681933 0.003223 0.694555 0.172016
H32   H     H_    0.323999 0.998219 0.302592 0.173990
H33   H     H_    0.460052 0.263765 0.739337 0.170820
H34   H     H_    0.494030 0.214792 0.891506 0.157378
H35   H     H_    0.662844 0.789033 0.106036 0.164823
H36   H     H_    0.031477 0.371921 0.608417 0.150468
H37   H     H_    0.968048 0.628015 0.391225 0.154141
H38   H     H_    0.185004 0.302741 0.408853 0.219606
N1    N     N_R   0.574200 0.731700 0.552740 -0.125187
N2    N     N_3   0.140836 0.667285 0.546111 -0.431628
N3    N     N_3   0.086031 0.474685 0.336678 -0.470017
N4    N     N_3   0.913744 0.525320 0.662950 -0.464447
N5    N     N_3   0.545176 0.230892 0.049437 -0.470749
N6    N     N_3   0.704088 0.774659 0.947686 -0.481342
N7    N     N_R   0.425800 0.268300 0.447260 -0.129073
N8    N     N_3   0.247300 0.299191 0.357419 -0.474840
N9    N     N_3   0.754488 0.700991 0.640938 -0.478967
N10   N     N_3   0.784353 0.869931 0.703823 -0.477041
N11   N     N_3   0.225421 0.133050 0.290028 -0.475027
N12   N     N_3   0.551141 0.125156 0.648100 -0.485469
N13   N     N_3   0.452696 0.875429 0.350477 -0.484978
N14   N     N_3   0.858219 0.332345 0.454448 -0.445734
O1    O     O_R   0.462600 0.383110 0.605620 -0.610629
O2    O     O_R   0.537400 0.616890 0.394380 -0.612876
O3    O     O_R   0.510210 0.531900 0.639510 -0.632547
O4    O     O_R   0.489790 0.468100 0.360490 -0.638201
O5    O     O_R   0.662240 0.425610 0.483080 -0.616212
O6    O     O_R   0.337760 0.574390 0.516920 -0.610885
O7    O     O_R   0.709860 0.574400 0.516970 -0.632110
O8    O     O_R   0.290140 0.425600 0.483030 -0.630087
Zn1   Zn    Zn3+2 0.468210 0.400660 0.477370 0.930072
Zn2   Zn    Zn3+2 0.531790 0.599340 0.522630 0.934799

loop_
_geom_bond_atom_site_label_1
_geom_bond_atom_site_label_2
_ccdc_geom_bond_type
C38   C40   A    
C27   N14   S    
C6    C45   A    
C1    O3    A    
C27   C29   S    
C34   C37   A    
C14   C18   A    
H15   N14   S    
C1    O1    A    
C39   C41   A    
C4    C46   A    
C27   C33   S    
C15   C19   A    
C18   C25   A    
H21   N4    S    
C26   H32   S    
C23   C42   A    
C25   H31   S    
C17   O6    A    
C24   C26   A    
H14   N14   S    
H20   N4    S    
C11   C14   A    
H7    N11   S    
O8    Zn1   S    
C12   C37   S    
H10   N12   S    
C42   C46   A    
C30   H37   S    
C19   C26   A    
C9    N1    A    
C20   C24   A    
C28   C35   S    
C22   C25   A    
C31   C33   S    
H6    N10   S    
C11   H12   S    
C3    H29   S    
H18   N3    S    
C39   C45   A    
O3    Zn2   S    
C10   N8    S    
C21   C22   A    
C13   N7    A    
C8    N11   S    
C42   C44   A    
C38   C44   A    
H19   N3    S    
O7    Zn2   S    
O2    Zn2   S    
C8    C19   A    
C4    H30   S    
C24   N13   S    
C32   C35   S    
N7    Zn1   S    
C36   C40   A    
C39   H35   S    
C4    C6    A    
C13   H1    S    
H5    N10   S    
C6    N6    S    
C2    C46   A    
C12   O4    A    
C14   C20   A    
H26   N6    S    
C35   N4    S    
C16   O5    A    
C2    C43   A    
C7    C18   A    
H11   N13   S    
H22   N5    S    
C40   H33   S    
O4    Zn1   S    
C43   C45   A    
H8    N11   S    
C16   O7    A    
C5    C44   A    
C10   N7    A    
C13   C15   A    
H17   N2    S    
C28   N2    S    
C17   C31   S    
H24   N5    S    
C23   H28   S    
N1    Zn2   S    
C9    N9    S    
O6    Zn2   S    
H16   N2    S    
C41   H23   S    
C7    C9    A    
C7    N10   S    
C30   C33   S    
C27   C32   S    
C22   N12   S    
C28   C31   S    
C34   C43   A    
H9    N12   S    
C3    C5    A    
H4    N9    S    
C16   C32   S    
O1    Zn1   S    
C29   C35   S    
C28   C30   S    
C2    C3    A    
C33   N3    S    
C29   H36   S    
C29   C31   S    
C17   O8    A    
C30   C32   S    
H25   N6    S    
C38   H34   S    
C11   N1    A    
H13   N13   S    
C37   C41   A    
C12   O2    A    
C34   H27   S    
C15   C21   A    
C20   C21   A    
C8    C10   A    
C23   C36   A    
H2    N8    S    
O5    Zn1   S    
H38   N8    S    
H3    N9    S    
C5    N5    S    
C1    C36   S    
