data_mof_unit_6544.cif
_audit_creation_date              2012-12-10T16:54:57-0500
_audit_creation_method            fapswitch 2.2
_symmetry_space_group_name_H-M    P1
_symmetry_Int_Tables_number       1
_space_group_crystal_system       triclinic
_cell_length_a                    7.761572
_cell_length_b                    8.57146
_cell_length_c                    15.72445
_cell_angle_alpha                 90.79681
_cell_angle_beta                  85.918733
_cell_angle_gamma                 93.585607
_cell_volume                      1041.37384429

loop_
_atom_site_label
_atom_site_type_symbol
_atom_type_description
_atom_site_fract_x
_atom_site_fract_y
_atom_site_fract_z
_atom_type_partial_charge
C1    C     C_R   0.546119 0.794756 0.503074 0.890230
C2    C     C_3   0.331159 0.564752 0.052788 -0.365183
C3    C     C_3   0.502832 0.509009 0.082662 0.215939
C4    C     C_3   0.524655 0.340589 0.047980 -0.430042
C5    C     C_3   0.526208 0.338549 0.949876 -0.359801
C6    C     C_1   0.495896 0.506052 0.174376 -0.088187
C7    C     C_1   0.511256 0.503723 0.825392 -0.087453
C8    C     C_1   0.507710 0.501592 0.750215 -0.147704
C9    C     C_2   0.569491 0.956177 0.522688 -0.214520
C10   C     C_2   0.433259 0.041998 0.511587 -0.449538
C11   C     C_R   0.502207 0.500036 0.661592 0.908510
C12   C     C_R   0.455044 0.205774 0.507264 0.978571
C13   C     C_R   0.497910 0.500157 0.338402 0.910932
C14   C     C_3   0.339591 0.568323 0.954623 -0.454603
C15   C     C_3   0.664663 0.618190 0.946962 -0.022826
C16   C     C_3   0.661610 0.615312 0.046376 -0.160742
C17   C     C_1   0.494317 0.503183 0.249711 -0.136492
C18   C     C_3   0.512949 0.506667 0.916875 0.312424
H1    H     H_    0.303660 0.681840 0.079604 0.228391
H2    H     H_    0.228239 0.495265 0.931639 0.186682
H3    H     H_    0.221136 0.483388 0.076341 0.178743
H4    H     H_    0.647480 0.296319 0.067730 0.178623
H5    H     H_    0.309843 0.991699 0.492105 0.193134
H6    H     H_    0.013510 0.381735 0.436731 0.199201
H7    H     H_    0.986458 0.618155 0.563331 0.210705
H8    H     H_    0.326697 0.690077 0.933243 0.195811
H9    H     H_    0.642369 0.738117 0.925327 0.185333
H10   H     H_    0.779556 0.560380 0.065426 0.145633
H11   H     H_    0.414754 0.261854 0.929959 0.182073
H12   H     H_    0.645384 0.286585 0.921943 0.188504
H13   H     H_    0.416920 0.259878 0.074733 0.193682
N1    N     N_2   0.950340 0.457950 0.477370 -0.157094
N2    N     N_2   0.049660 0.542050 0.522630 -0.157174
O1    O     O_R   0.389240 0.738570 0.505550 -0.615834
O2    O     O_R   0.678400 0.711630 0.491050 -0.586360
O3    O     O_R   0.355360 0.513470 0.630110 -0.620443
O4    O     O_R   0.644510 0.486530 0.615610 -0.607326
O5    O     O_R   0.321600 0.288370 0.508950 -0.629614
O6    O     O_R   0.610760 0.261430 0.494450 -0.593871
O7    O     O_R   0.355490 0.513470 0.384390 -0.619562
O8    O     O_R   0.644640 0.486530 0.369890 -0.606706
Zn1   Zn    Zn3+2 0.306930 0.517990 0.509680 0.973224
Zn2   Zn    Zn3+2 0.693070 0.482010 0.490320 1.007319
C19   C     C_2   0.730192 0.013278 0.563661 0.952115
O9    O     O_2   0.720994 0.103567 0.624556 -0.623647
O10   O     O_R   0.890522 0.960073 0.534060 -0.799954
H14   H     H_    0.988919 0.006124 0.567435 0.334509
C20   C     C_3   0.844577 0.580800 0.906440 -0.958390
H15   H     H_    0.943808 0.668528 0.928262 0.251982
H16   H     H_    0.880401 0.463346 0.925005 0.252058
H17   H     H_    0.848478 0.586645 0.835857 0.266721
C21   C     C_2   0.668210 0.779640 0.083827 0.888025
O11   O     O_2   0.782601 0.820778 0.130428 -0.623000
O12   O     O_R   0.546248 0.884691 0.064437 -0.833120
H18   H     H_    0.565306 0.990012 0.093505 0.340112

loop_
_geom_bond_atom_site_label_1
_geom_bond_atom_site_label_2
_ccdc_geom_bond_type
O4    Zn2   S    
C15   C18   S    
H6    N1    S    
C16   H10   S    
C13   O8    A    
C10   H5    S    
O2    Zn2   S    
C9    C10   D    
C14   C18   S    
C15   H9    S    
O1    Zn1   S    
C13   C17   S    
C7    C18   S    
N1    N2    D    
C3    C6    S    
C12   O6    A    
C20   H16   S    
C2    C3    S    
C7    C8    T    
C14   H8    S    
O8    Zn2   S    
C10   C12   S    
C15   C20   S    
C2    H3    S    
C8    C11   S    
N2    Zn1   S    
O7    Zn1   S    
C11   O3    A    
N1    Zn2   S    
C21   O12   S    
C1    O1    A    
O5    Zn1   S    
C5    H11   S    
C12   O5    A    
C2    C14   S    
C4    H13   S    
C15   C16   S    
C3    C16   S    
C3    C4    S    
C14   H2    S    
C1    C9    S    
C21   O11   D    
C1    O2    A    
C5    H12   S    
H7    N2    S    
C11   O4    A    
C6    C17   T    
C4    H4    S    
O12   H18   S    
C20   H15   S    
C13   O7    A    
O6    Zn2   S    
C5    C18   S    
C2    H1    S    
O10   H14   S    
O3    Zn1   S    
C20   H17   S    
C19   O9    D    
C16   C21   S    
C19   O10   S    
C4    C5    S    
C9    C19   S    
