data_mof_unit_39384.cif
_audit_creation_date              2012-12-10T18:57:44-0500
_audit_creation_method            fapswitch 2.2
_symmetry_space_group_name_H-M    P1
_symmetry_Int_Tables_number       1
_space_group_crystal_system       triclinic
_cell_length_a                    10.93082
_cell_length_b                    10.791022
_cell_length_c                    9.555916
_cell_angle_alpha                 90.389136
_cell_angle_beta                  88.933241
_cell_angle_gamma                 90.389116
_cell_volume                      1126.91899728

loop_
_atom_site_label
_atom_site_type_symbol
_atom_type_description
_atom_site_fract_x
_atom_site_fract_y
_atom_site_fract_z
_atom_type_partial_charge
C1    C     C_R   0.498848 0.262603 0.499683 0.808483
C2    C     C_R   0.491561 0.129585 0.500803 -0.130507
C3    C     C_R   0.411475 0.065827 0.412426 -0.222679
C4    C     C_R   0.405243 0.935867 0.414683 0.158742
C5    C     C_R   0.485516 0.870845 0.502944 -0.100886
C6    C     C_R   0.554772 0.937107 0.599502 0.078535
C7    C     C_3   0.689010 0.930514 0.625667 -0.477807
C8    C     C_3   0.690504 0.070911 0.626598 -0.466171
C9    C     C_R   0.584578 0.568113 0.072429 0.250744
C10   C     C_R   0.423634 0.424475 0.075447 -0.074803
C11   C     C_R   0.423483 0.424620 0.926601 -0.075238
C12   C     C_R   0.265370 0.503337 0.501388 0.852370
C13   C     C_R   0.585210 0.567269 0.925164 0.268537
C14   C     C_3   0.604798 0.703749 0.919090 -0.509835
C15   C     C_3   0.601342 0.705369 0.077578 -0.503699
C16   C     C_R   0.496035 0.737462 0.500433 0.800390
C17   C     C_R   0.734848 0.502369 0.498497 0.849940
C18   C     C_2   0.937341 0.549536 0.391656 0.210056
C19   C     C_2   0.867545 0.498313 0.494713 -0.325010
C20   C     C_2   0.070604 0.533139 0.389833 -0.169686
C21   C     C_2   0.133705 0.516313 0.506659 -0.372035
C22   C     C_R   0.556625 0.064631 0.599499 0.131354
Cu1   Cu    Cu3+1 0.499990 0.499980 0.640670 0.939801
Cu2   Cu    Cu3+1 0.500010 0.500020 0.359330 0.934465
H1    H     H_    0.744210 0.111635 0.538013 0.190812
H2    H     H_    0.360174 0.365065 0.132112 0.136616
H3    H     H_    0.359817 0.365457 0.871720 0.139148
H4    H     H_    0.696724 0.726475 0.874775 0.186369
H5    H     H_    0.527116 0.754172 0.872966 0.225847
H6    H     H_    0.689826 0.733956 0.123059 0.197174
H7    H     H_    0.520085 0.754203 0.121690 0.226084
H8    H     H_    0.908150 0.447137 0.579081 0.116992
H9    H     H_    0.118241 0.539205 0.289200 0.172598
H10   H     H_    0.089954 0.519057 0.609421 0.152278
H11   H     H_    0.354018 0.117053 0.342178 0.153857
H12   H     H_    0.709323 0.891560 0.729480 0.198814
H13   H     H_    0.741512 0.889113 0.536341 0.191666
H14   H     H_    0.709906 0.111659 0.731080 0.200309
N1    N     N_R   0.500780 0.500930 0.147930 -0.185667
N2    N     N_R   0.500780 0.500890 0.852020 -0.187087
O1    O     O_R   0.500000 0.319640 0.618810 -0.580596
O2    O     O_R   0.500010 0.319680 0.381230 -0.583301
O3    O     O_R   0.321940 0.499980 0.618760 -0.583970
O4    O     O_R   0.321950 0.500020 0.381180 -0.588792
O5    O     O_R   0.499990 0.680320 0.618770 -0.582958
O6    O     O_R   0.500000 0.680360 0.381190 -0.580859
O7    O     O_R   0.678050 0.499980 0.618820 -0.584441
O8    O     O_R   0.678060 0.500020 0.381240 -0.566647
C23   C     C_3   0.884539 0.623900 0.274217 -0.831279
H15   H     H_    0.957720 0.671187 0.212046 0.211534
H16   H     H_    0.834023 0.562051 0.201906 0.241799
H17   H     H_    0.823169 0.696721 0.317848 0.220073
C24   C     C_3   0.312663 0.872462 0.323049 -0.856167
H18   H     H_    0.297619 0.773888 0.350484 0.242698
H19   H     H_    0.222700 0.918803 0.335970 0.223812
H20   H     H_    0.342611 0.879101 0.211746 0.228222

loop_
_geom_bond_atom_site_label_1
_geom_bond_atom_site_label_2
_ccdc_geom_bond_type
C16   O5    A    
C2    C22   A    
C8    C22   S    
Cu1   Cu2   S    
C15   H7    S    
C6    C7    S    
Cu1   O5    S    
C11   H3    S    
C4    C24   S    
Cu2   O2    S    
C7    H12   S    
Cu1   O1    S    
C17   O8    A    
C3    H11   S    
C23   H17   S    
Cu2   O6    S    
C10   H2    S    
C23   H16   S    
C2    C3    A    
C7    H13   S    
C7    C8    S    
C12   O4    A    
C13   C14   S    
C8    H1    S    
C11   N2    A    
C8    H14   S    
C19   H8    S    
C1    O1    A    
C17   C19   S    
C18   C19   D    
C12   O3    A    
C18   C20   S    
C24   H19   S    
C9    C15   S    
C5    C6    A    
Cu2   O4    S    
Cu1   O7    S    
C10   C11   A    
C20   H9    S    
C14   H5    S    
C3    C4    A    
Cu2   O8    S    
C1    O2    A    
C9    N1    A    
Cu2   N1    S    
Cu1   O3    S    
C20   C21   D    
C15   H6    S    
C1    C2    S    
C24   H20   S    
C16   O6    A    
C23   H15   S    
Cu1   N2    S    
C9    C13   A    
C14   C15   S    
C4    C5    A    
C13   N2    A    
C21   H10   S    
C14   H4    S    
C24   H18   S    
C12   C21   S    
C17   O7    A    
C18   C23   S    
C10   N1    A    
C5    C16   S    
C6    C22   A    
