data_mof_unit_67623.cif
_audit_creation_date              2012-12-10T18:19:56-0500
_audit_creation_method            fapswitch 2.2
_symmetry_space_group_name_H-M    P1
_symmetry_Int_Tables_number       1
_space_group_crystal_system       triclinic
_cell_length_a                    10.713008
_cell_length_b                    10.751018
_cell_length_c                    9.538243
_cell_angle_alpha                 90.562845
_cell_angle_beta                  89.590011
_cell_angle_gamma                 91.900738
_cell_volume                      1097.89115073

loop_
_atom_site_label
_atom_site_type_symbol
_atom_type_description
_atom_site_fract_x
_atom_site_fract_y
_atom_site_fract_z
_atom_type_partial_charge
C1    C     C_R   0.498567 0.259958 0.499159 0.847155
C2    C     C_R   0.504550 0.739520 0.500953 0.858766
C3    C     C_3   0.502374 0.961552 0.633689 0.294564
C4    C     C_3   0.504743 0.036128 0.367408 0.314282
C5    C     C_3   0.544378 0.604092 0.050201 0.297869
C6    C     C_3   0.456061 0.396055 0.949904 0.288503
C7    C     C_3   0.433265 0.587385 0.951543 0.314375
C8    C     C_3   0.567162 0.412930 0.048383 0.294845
C9    C     C_3   0.611411 0.516820 0.950419 0.289981
C10   C     C_3   0.388902 0.483402 0.049295 0.307694
C11   C     C_R   0.259856 0.501946 0.500383 0.812202
C12   C     C_R   0.739745 0.502619 0.499569 0.839652
C13   C     C_3   0.036864 0.471627 0.625541 0.479357
C14   C     C_3   0.961384 0.537527 0.374063 0.468213
C15   C     C_3   0.951303 0.387920 0.529950 -0.518023
C16   C     C_3   0.046308 0.621302 0.468942 -0.509539
C17   C     C_3   0.875825 0.503965 0.498846 -0.199490
C18   C     C_3   0.122817 0.505330 0.500629 -0.236033
C19   C     C_3   0.960006 0.585539 0.594307 0.466071
C20   C     C_3   0.037743 0.423907 0.404918 0.418130
C21   C     C_3   0.602375 0.048609 0.566782 0.220763
C22   C     C_3   0.404777 0.949231 0.434845 0.252728
C23   C     C_3   0.607838 0.962871 0.436781 0.299697
C24   C     C_3   0.399452 0.035295 0.564566 0.204461
C25   C     C_3   0.507722 0.875170 0.503530 -0.230936
C26   C     C_3   0.499355 0.123395 0.497317 -0.299161
Cu1   Cu    Cu3+1 0.500030 0.499990 0.643150 1.080732
Cu2   Cu    Cu3+1 0.499970 0.500010 0.356850 1.099377
H1    H     H_    0.909882 0.293817 0.550900 0.198593
H2    H     H_    0.084835 0.713955 0.439030 0.176373
N1    N     N_3   0.500090 0.499970 0.858290 -0.215661
N2    N     N_3   0.499910 0.500030 0.141710 -0.220381
O1    O     O_R   0.500060 0.316850 0.620870 -0.559271
O2    O     O_R   0.499940 0.683150 0.379130 -0.516580
O3    O     O_R   0.500000 0.316860 0.379090 -0.532330
O4    O     O_R   0.500000 0.683140 0.620910 -0.525569
O5    O     O_R   0.316880 0.499960 0.620870 -0.525891
O6    O     O_R   0.683120 0.500040 0.379130 -0.511843
O7    O     O_R   0.316830 0.499970 0.379090 -0.536899
O8    O     O_R   0.683170 0.500030 0.620910 -0.533327
O9    O     O_3   0.082411 0.449939 0.761464 -0.578275
C27   C     C_3   0.070945 0.322394 0.794015 0.056902
H3    H     H_    0.148752 0.300638 0.864267 0.184917
H4    H     H_    0.083662 0.260140 0.701278 0.142307
C28   C     C_3   0.946323 0.295174 0.869883 -0.358048
H5    H     H_    0.950990 0.332954 0.978643 0.243778
H6    H     H_    0.869721 0.341482 0.815033 0.269498
C29   C     C_3   0.914610 0.156183 0.873524 -0.903336
H7    H     H_    0.902327 0.121067 0.765286 0.300574
H8    H     H_    0.826859 0.138274 0.933465 0.269606
H9    H     H_    0.990076 0.104231 0.921929 0.250957
O10   O     O_3   0.912871 0.567238 0.241852 -0.578164
C30   C     C_3   0.008562 0.613852 0.152134 0.099750
H10   H     H_    0.008996 0.554982 0.055869 0.187039
H11   H     H_    0.104309 0.612207 0.197054 0.194146
C31   C     C_3   0.980821 0.746989 0.111342 -0.342912
H12   H     H_    0.891865 0.747526 0.052066 0.257752
H13   H     H_    0.970361 0.805015 0.207548 0.230077
C32   C     C_3   0.086002 0.802891 0.021213 -0.857624
H14   H     H_    0.173481 0.811242 0.082823 0.278131
H15   H     H_    0.061154 0.896988 0.987455 0.238386
H16   H     H_    0.101270 0.744162 0.926541 0.305204
O11   O     O_3   0.914278 0.663892 0.701247 -0.566356
C33   C     C_3   0.882078 0.779051 0.644043 0.103663
H17   H     H_    0.801204 0.814221 0.704375 0.193057
H18   H     H_    0.849442 0.770708 0.533298 0.166913
C34   C     C_3   0.991940 0.873241 0.659114 -0.335063
H19   H     H_    0.985362 0.919892 0.762622 0.215424
H20   H     H_    0.082542 0.825868 0.655966 0.249347
C35   C     C_3   0.992637 0.970507 0.544209 -0.889224
H21   H     H_    0.015032 0.927829 0.441021 0.256955
H22   H     H_    0.063911 0.044067 0.568769 0.282409
H23   H     H_    0.900982 0.014263 0.537809 0.304000
O12   O     O_3   0.081446 0.346309 0.297330 -0.550314
C36   C     C_3   0.127285 0.237896 0.356977 0.074506
H24   H     H_    0.048464 0.169744 0.372282 0.159494
H25   H     H_    0.174152 0.255175 0.459767 0.094473
C37   C     C_3   0.224137 0.183458 0.259317 -0.250101
H26   H     H_    0.296852 0.255055 0.231740 0.271262
H27   H     H_    0.268954 0.108978 0.314961 0.243379
C38   C     C_3   0.165359 0.129073 0.127571 -0.791777
H28   H     H_    0.091736 0.058283 0.155243 0.247023
H29   H     H_    0.237239 0.084756 0.061216 0.246596
H30   H     H_    0.123661 0.205205 0.069358 0.278199
O13   O     O_3   0.716136 0.923366 0.369663 -0.715964
H31   H     H_    0.755967 0.999505 0.329121 0.345353
O14   O     O_3   0.289375 0.071605 0.630064 -0.753539
H32   H     H_    0.316107 0.123016 0.711774 0.358469
O15   O     O_3   0.705066 0.102180 0.636147 -0.755505
H33   H     H_    0.669916 0.149447 0.716091 0.341840
O16   O     O_3   0.302568 0.893664 0.365366 -0.728000
H34   H     H_    0.251488 0.853482 0.440105 0.330933
O17   O     O_3   0.502229 0.921802 0.772836 -0.681097
H35   H     H_    0.497467 0.998590 0.830720 0.324787
O18   O     O_3   0.506169 0.074846 0.227859 -0.695420
H36   H     H_    0.504616 0.997264 0.170802 0.352567
O19   O     O_3   0.360194 0.679585 0.895136 -0.657872
H37   H     H_    0.361646 0.748076 0.965360 0.337624
O20   O     O_3   0.639650 0.320031 0.104151 -0.647951
H38   H     H_    0.665614 0.269256 0.022481 0.319599
O21   O     O_3   0.593311 0.715496 0.107127 -0.664704
H39   H     H_    0.616509 0.768008 0.025554 0.336258
O22   O     O_3   0.407684 0.284543 0.893234 -0.742498
H40   H     H_    0.404580 0.225170 0.972016 0.329179
O23   O     O_3   0.731307 0.536319 0.895052 -0.672027
H41   H     H_    0.787951 0.534309 0.976472 0.346301
O24   O     O_3   0.268907 0.464667 0.103990 -0.695520
H42   H     H_    0.213075 0.463424 0.021775 0.339204

loop_
_geom_bond_atom_site_label_1
_geom_bond_atom_site_label_2
_ccdc_geom_bond_type
C24   O14   S    
C7    C10   S    
C21   C26   S    
C11   C18   S    
O17   H35   S    
O9    C27   S    
O18   H36   S    
O14   H32   S    
C13   O9    S    
O19   H37   S    
C10   O24   S    
C1    O1    A    
C21   O15   S    
C30   H10   S    
Cu1   O1    S    
O21   H39   S    
C13   C18   S    
C22   C24   S    
C8    O20   S    
C24   C26   S    
C37   H27   S    
C30   C31   S    
C9    O23   S    
C31   H12   S    
C28   H6    S    
C11   O5    A    
C29   H9    S    
C14   O10   S    
Cu2   O3    S    
C19   O11   S    
C8    C9    S    
C22   C25   S    
C12   C17   S    
O24   H42   S    
C35   H21   S    
C5    N2    S    
C2    O2    A    
C29   H8    S    
C6    N1    S    
Cu2   O2    S    
C32   H14   S    
C14   C17   S    
C3    C24   S    
C27   H4    S    
C38   H29   S    
C15   H1    S    
C30   H11   S    
C15   C20   S    
C5    O21   S    
C32   H15   S    
C7    N1    S    
O12   C36   S    
C13   C19   S    
Cu1   N1    S    
C34   H19   S    
C8    N2    S    
C33   C34   S    
C14   C20   S    
Cu2   N2    S    
O16   H34   S    
C5    C7    S    
C4    C23   S    
C37   H26   S    
C6    C8    S    
Cu2   O7    S    
O13   H31   S    
C38   H28   S    
C34   H20   S    
C27   C28   S    
C33   H18   S    
C12   O8    A    
C36   H24   S    
C5    C9    S    
C10   N2    S    
C4    O18   S    
C4    C22   S    
O20   H38   S    
Cu2   O6    S    
Cu1   O8    S    
C22   O16   S    
C35   H23   S    
C20   O12   S    
C3    O17   S    
C6    O22   S    
C11   O7    A    
C36   H25   S    
C29   H7    S    
C13   C15   S    
C1    C26   S    
C14   C16   S    
C3    C21   S    
C27   H3    S    
Cu1   Cu2   S    
C38   H30   S    
O10   C30   S    
C1    O3    A    
C28   C29   S    
C2    O4    A    
C15   C17   S    
C32   H16   S    
C7    O19   S    
C6    C10   S    
C4    C26   S    
Cu1   O4    S    
O23   H41   S    
C31   C32   S    
C34   C35   S    
C33   H17   S    
C21   C23   S    
C37   C38   S    
Cu1   O5    S    
C16   C19   S    
C17   C19   S    
C31   H13   S    
C2    C25   S    
C18   C20   S    
C23   C25   S    
C12   O6    A    
C36   C37   S    
C9    N1    S    
O11   C33   S    
C28   H5    S    
C3    C25   S    
C16   C18   S    
C23   O13   S    
O22   H40   S    
C35   H22   S    
O15   H33   S    
C16   H2    S    
