data_mof_unit_17688.cif
_audit_creation_date              2013-03-05T16:47:36-0500
_audit_creation_method            fapswitch 2.2
_symmetry_space_group_name_H-M    P1
_symmetry_Int_Tables_number       1
_space_group_crystal_system       triclinic
_cell_length_a                    18.142656
_cell_length_b                    18.247656
_cell_length_c                    18.314344
_cell_angle_alpha                 119.924962
_cell_angle_beta                  90.008901
_cell_angle_gamma                 119.839026
_cell_volume                      4302.22123974

loop_
_atom_site_label
_atom_site_type_symbol
_atom_site_description
_atom_site_fract_x
_atom_site_fract_y
_atom_site_fract_z
_atom_type_partial_charge
Zn1   Zn    Zn3+2 0.207400 0.586780 0.791530 0.999034
Zn2   Zn    Zn3+2 0.792600 0.413220 0.208470 0.999074
Zn3   Zn    Zn3+2 0.208510 0.413230 0.792630 0.987778
Zn4   Zn    Zn3+2 0.791490 0.586770 0.207370 0.987788
Zn5   Zn    Zn3+2 0.383150 0.586740 0.791530 0.979161
Zn6   Zn    Zn3+2 0.616850 0.413260 0.208470 0.979161
Zn7   Zn    Zn3+2 0.207400 0.413250 0.618010 0.983143
Zn8   Zn    Zn3+2 0.792600 0.586750 0.381990 0.983148
O1    O     O_3   0.251620 0.500000 0.748430 -0.497463
O2    O     O_3   0.748380 0.500000 0.251570 -0.497473
O3    O     O_R   0.134680 0.268390 0.572240 -0.611894
O4    O     O_R   0.865320 0.731610 0.427760 -0.611901
O5    O     O_R   0.306670 0.731630 0.863510 -0.633295
O6    O     O_R   0.693330 0.268370 0.136490 -0.633311
O7    O     O_R   0.135450 0.439270 0.865360 -0.641185
O8    O     O_R   0.864550 0.560730 0.134640 -0.641207
O9    O     O_R   0.429670 0.560710 0.692610 -0.639832
O10   O     O_R   0.570330 0.439290 0.307390 -0.639832
O11   O     O_R   0.308540 0.439240 0.865360 -0.651224
O12   O     O_R   0.691460 0.560760 0.134640 -0.651223
O13   O     O_R   0.133580 0.439310 0.571150 -0.640142
O14   O     O_R   0.866420 0.560690 0.428850 -0.640145
O15   O     O_R   0.430770 0.560690 0.864590 -0.634382
O16   O     O_R   0.569230 0.439310 0.135410 -0.634385
O17   O     O_R   0.133580 0.560760 0.692610 -0.636494
O18   O     O_R   0.866420 0.439240 0.307390 -0.636469
O19   O     O_R   0.134680 0.560740 0.864590 -0.630406
O20   O     O_R   0.865320 0.439260 0.135410 -0.630346
O21   O     O_R   0.306670 0.439270 0.571150 -0.636915
O22   O     O_R   0.693330 0.560730 0.428850 -0.636911
O23   O     O_R   0.135450 0.268370 0.694460 -0.645644
O24   O     O_R   0.864550 0.731630 0.305540 -0.645635
O25   O     O_R   0.429670 0.731610 0.863510 -0.638014
O26   O     O_R   0.570330 0.268390 0.136490 -0.637983
C1    C     C_R   0.111838 0.220053 0.609586 0.827495
C2    C     C_R   0.888161 0.779947 0.390414 0.827500
C3    C     C_R   0.392739 0.781010 0.888298 0.793651
C4    C     C_R   0.607261 0.218990 0.111701 0.793628
C5    C     C_R   0.111780 0.501607 0.890509 0.822559
C6    C     C_R   0.888218 0.498392 0.109490 0.822613
C7    C     C_R   0.391990 0.499993 0.607859 0.801889
C8    C     C_R   0.608010 0.500007 0.392141 0.801880
C9    C     C_R   0.394058 0.499755 0.888171 0.833402
C10   C     C_R   0.605942 0.500245 0.111829 0.833406
C11   C     C_R   0.108967 0.500190 0.607741 0.792379
C12   C     C_R   0.891032 0.499810 0.392259 0.792391
C13   C     C_3   0.077696 0.525161 0.482498 -0.163818
C14   C     C_3   0.922304 0.474838 0.517502 -0.163777
C15   C     C_3   0.042667 0.594287 0.516651 -0.163185
C16   C     C_3   0.957333 0.405712 0.483350 -0.163185
H1    H     H_    0.076884 0.671696 0.529461 0.159267
H2    H     H_    0.923116 0.328304 0.470539 0.159267
H3    H     H_    0.142330 0.545815 0.468939 0.155702
H4    H     H_    0.857670 0.454185 0.531061 0.155734
C17   C     C_3   0.948791 0.499525 0.448983 0.021664
C18   C     C_3   0.051208 0.500475 0.551018 0.021671
C19   C     C_3   0.983001 0.430354 0.413972 -0.105788
C20   C     C_3   0.016999 0.569645 0.586029 -0.105755
H5    H     H_    0.968385 0.373119 0.342556 0.170050
H6    H     H_    0.031614 0.626880 0.657445 0.170061
C21   C     C_3   0.412150 0.963610 0.976198 -0.135271
C22   C     C_3   0.587851 0.036389 0.023802 -0.135164
C23   C     C_3   0.486776 0.035768 0.955458 -0.141476
C24   C     C_3   0.513226 0.964232 0.044543 -0.141388
H7    H     H_    0.476989 0.064722 0.918119 0.195247
H8    H     H_    0.523013 0.935278 0.081882 0.195251
H9    H     H_    0.340152 0.934160 0.958009 0.185911
H10   H     H_    0.659849 0.065840 0.041990 0.185933
C25   C     C_3   0.550316 0.103052 0.052265 -0.059951
C26   C     C_3   0.449685 0.896948 0.947735 -0.059951
C27   C     C_3   0.477052 0.031411 0.071762 0.104763
C28   C     C_3   0.522949 0.968589 0.928239 0.104717
C29   C     C_3   0.414808 0.428661 0.448514 0.141313
C30   C     C_3   0.585191 0.571337 0.551485 0.141309
C31   C     C_3   0.485273 0.404826 0.450248 -0.295344
C32   C     C_3   0.514727 0.595172 0.549751 -0.295350
H11   H     H_    0.473346 0.327716 0.409903 0.150637
H12   H     H_    0.526657 0.672283 0.590097 0.150635
C33   C     C_3   0.551774 0.499691 0.448991 -0.016161
C34   C     C_3   0.448226 0.500307 0.551008 -0.016158
C35   C     C_3   0.480554 0.521260 0.446607 0.071738
C36   C     C_3   0.519445 0.478738 0.553392 0.071735
C37   C     C_R   0.127220 0.173552 0.834670 -0.105518
C38   C     C_R   0.872856 0.826496 0.165328 -0.105546
H13   H     H_    0.186146 0.192182 0.873984 0.152120
H14   H     H_    0.813949 0.807889 0.126005 0.152151
C39   C     C_R   0.110400 0.128087 0.743099 -0.110914
C40   C     C_R   0.889647 0.871941 0.256895 -0.110990
H15   H     H_    0.156351 0.111875 0.712743 0.164174
H16   H     H_    0.843696 0.888164 0.287239 0.164207
C41   C     C_R   0.034641 0.103849 0.690907 0.136777
C42   C     C_R   0.965381 0.896152 0.309099 0.136794
C43   C     C_R   0.975506 0.124782 0.731181 -0.182655
C44   C     C_R   0.024520 0.875209 0.268842 -0.182642
H17   H     H_    0.916540 0.105937 0.691612 0.137025
H18   H     H_    0.083466 0.894034 0.308421 0.137026
C45   C     C_R   0.991542 0.168561 0.822477 -0.146375
C46   C     C_R   0.008511 0.831448 0.177551 -0.146411
H19   H     H_    0.944630 0.182787 0.852476 0.142204
H20   H     H_    0.055426 0.817214 0.147566 0.142200
C47   C     C_R   0.067596 0.193716 0.874918 0.157957
C48   C     C_R   0.932485 0.806323 0.125098 0.158002
C49   C     C_R   0.957671 0.945570 0.538089 0.044425
C50   C     C_R   0.042328 0.054430 0.461913 0.044421
C51   C     C_R   0.943352 0.892372 0.445497 -0.087732
C52   C     C_R   0.056648 0.107627 0.554506 -0.087739
C53   C     C_R   0.984109 0.947230 0.406949 -0.085235
C54   C     C_R   0.015895 0.052769 0.593055 -0.085228
C55   C     C_R   0.666651 0.676614 0.850363 -0.152023
C56   C     C_R   0.333353 0.323369 0.149630 -0.151965
H21   H     H_    0.676107 0.646749 0.785901 0.176776
H22   H     H_    0.323896 0.353228 0.214091 0.176777
C57   C     C_R   0.611509 0.607969 0.870953 -0.174419
C58   C     C_R   0.388488 0.392020 0.129042 -0.174421
H23   H     H_    0.580007 0.526070 0.822549 0.170828
H24   H     H_    0.419983 0.473916 0.177447 0.170834
C59   C     C_R   0.597351 0.644179 0.953466 -0.032052
C60   C     C_R   0.402649 0.355817 0.046531 -0.032079
C61   C     C_R   0.640846 0.751468 0.017208 0.201508
C62   C     C_R   0.359164 0.248530 0.982787 0.201503
C63   C     C_R   0.698314 0.821363 0.996800 0.232550
C64   C     C_R   0.301697 0.178629 0.003191 0.232560
C65   C     C_R   0.709895 0.783082 0.911916 0.026598
C66   C     C_R   0.290115 0.216902 0.088074 0.026587
C67   C     C_R   0.593413 0.568279 0.032377 -0.202813
C68   C     C_R   0.406587 0.431724 0.967627 -0.202822
H25   H     H_    0.666220 0.621355 0.056854 0.167658
H26   H     H_    0.333780 0.378649 0.943150 0.167636
C69   C     C_R   0.549822 0.499640 0.056356 -0.034922
C70   C     C_R   0.450178 0.500362 0.943647 -0.034925
C71   C     C_R   0.455040 0.430537 0.024060 0.083266
C72   C     C_R   0.544960 0.569464 0.975942 0.083256
H27   H     H_    0.182135 0.900476 0.962502 0.195698
H28   H     H_    0.817897 0.099470 0.037417 0.195706
C73   C     C_R   0.198814 0.837379 0.028402 -0.151114
C74   C     C_R   0.801173 0.162605 0.971577 -0.151149
H29   H     H_    0.265397 0.905550 0.073695 0.161737
H30   H     H_    0.734580 0.094445 0.926303 0.161811
C75   C     C_R   0.160097 0.752374 0.032691 -0.185909
C76   C     C_R   0.839873 0.247623 0.967308 -0.185855
H31   H     H_    0.197432 0.755840 0.081851 0.153975
H32   H     H_    0.802519 0.244178 0.918179 0.153985
C77   C     C_R   0.073555 0.663506 0.974476 0.013037
C78   C     C_R   0.926425 0.336476 0.025501 0.013037
C79   C     C_R   0.025015 0.660305 0.910839 0.358559
C80   C     C_R   0.974990 0.339644 0.089088 0.358590
C81   C     C_R   0.065545 0.747068 0.907730 -0.188813
C82   C     C_R   0.934488 0.252872 0.092177 -0.188899
H33   H     H_    0.030616 0.746834 0.859604 0.189147
H34   H     H_    0.969448 0.253095 0.140272 0.189118
C83   C     C_R   0.151720 0.834639 0.965955 -0.166798
C84   C     C_R   0.848299 0.165316 0.033979 -0.166754
C85   C     C_R   0.978541 0.571707 0.035002 -0.203709
C86   C     C_R   0.021456 0.428292 0.964996 -0.203817
H35   H     H_    0.962643 0.628013 0.062278 0.175172
H36   H     H_    0.037353 0.371985 0.937718 0.175168
C87   C     C_R   0.943695 0.496216 0.051930 -0.033757
C88   C     C_R   0.056301 0.503782 0.948067 -0.033794
C89   C     C_R   0.964866 0.422861 0.015725 0.066963
C90   C     C_R   0.035125 0.577133 0.984267 0.067033
N1    N     N_3   0.083334 0.239741 0.968654 -0.437262
H37   H     H_    0.144173 0.257533 0.998888 0.204506
H38   H     H_    0.032445 0.184163 0.975539 0.201949
N2    N     N_3   0.916776 0.760316 0.031367 -0.437374
H39   H     H_    0.855968 0.742580 0.001128 0.204475
H40   H     H_    0.967706 0.815886 0.024499 0.201922
N3    N     N_3   0.911608 0.890242 0.576379 -0.401098
H41   H     H_    0.958882 0.905970 0.624359 0.211074
H42   H     H_    0.871444 0.913738 0.606333 0.187210
N4    N     N_3   0.088389 0.109756 0.423622 -0.401091
H43   H     H_    0.041115 0.094004 0.375622 0.211063
H44   H     H_    0.128571 0.086278 0.393689 0.187213
N5    N     N_3   0.763728 0.849560 0.885419 -0.428508
H45   H     H_    0.720860 0.829940 0.831003 0.170560
H46   H     H_    0.790517 0.926711 0.934925 0.219345
N6    N     N_3   0.236291 0.150421 0.114571 -0.428553
H47   H     H_    0.279176 0.170016 0.168962 0.170555
H48   H     H_    0.209460 0.073262 0.065046 0.219366
N7    N     N_R   0.628466 0.789327 0.103046 0.224016
O27   O     O_R   0.548206 0.746824 0.108935 -0.389153
O28   O     O_R   0.697389 0.865455 0.175801 -0.362841
N8    N     N_R   0.371551 0.210679 0.896953 0.224006
O29   O     O_R   0.451813 0.253193 0.891070 -0.389166
O30   O     O_R   0.302633 0.134546 0.824194 -0.362827
N9    N     N_R   0.744354 0.930308 0.062060 0.203667
O31   O     O_R   0.831847 0.989401 0.094685 -0.407188
O32   O     O_R   0.699116 0.968649 0.096461 -0.394978
N10   N     N_R   0.255658 0.069686 0.937927 0.203654
O33   O     O_R   0.168166 0.010599 0.905285 -0.407169
O34   O     O_R   0.300896 0.031345 0.903526 -0.395004
N11   N     N_R   0.935917 0.571144 0.849513 0.200616
O35   O     O_R   0.909368 0.479141 0.824821 -0.397961
O36   O     O_R   0.883042 0.580464 0.812201 -0.406588
N12   N     N_R   0.064088 0.428804 0.150392 0.200599
O37   O     O_R   0.090492 0.520842 0.175338 -0.397985
O38   O     O_R   0.117083 0.419435 0.187477 -0.406521
N13   N     N_3   0.451201 0.065988 0.151341 -0.469329
H49   H     H_    0.429120 0.109697 0.152922 0.191439
H50   H     H_    0.509407 0.116040 0.206639 0.184652
N14   N     N_3   0.548803 0.934012 0.848661 -0.469434
H51   H     H_    0.570637 0.890052 0.846946 0.191524
H52   H     H_    0.490644 0.884194 0.793367 0.184694
N15   N     N_3   0.320684 0.351068 0.392209 -0.422838
H53   H     H_    0.319446 0.312996 0.326240 0.183184
H54   H     H_    0.291617 0.389946 0.397772 0.201068
N16   N     N_3   0.679316 0.648931 0.607789 -0.422835
H55   H     H_    0.680554 0.687004 0.673758 0.183170
H56   H     H_    0.708384 0.610054 0.602228 0.201073
N17   N     N_3   0.458428 0.541767 0.385525 -0.463943
H57   H     H_    0.409701 0.556378 0.400913 0.189367
H58   H     H_    0.515997 0.610212 0.400054 0.186617
N18   N     N_3   0.541570 0.458229 0.614474 -0.463944
H59   H     H_    0.590315 0.443647 0.599102 0.189372
H60   H     H_    0.484008 0.389769 0.599927 0.186620

loop_
_geom_bond_atom_site_label_1
_geom_bond_atom_site_label_2
_geom_bond_distance
_ccdc_geom_bond_type
C21   C26   1.551426 S    
C14   C17   1.535376 S    
N12   O38   1.301580 A    
N15   H53   1.043957 S    
C23   H7    1.110015 S    
C49   N3    1.440974 S    
Zn7   O21   1.939512 S    
C39   C41   1.404027 A    
C38   C48   1.405219 A    
C40   H16   1.083095 S    
C35   N17   1.455906 S    
Zn2   O18   1.951780 S    
H27   C83   1.080695 S    
C74   C76   1.393900 A    
C7    C34   1.457916 S    
C50   C52   1.411363 A    
N1    H37   1.046025 S    
N9    O31   1.301153 A    
C77   C90   1.480160 S    
N3    H42   1.045043 S    
N5    H45   1.045436 S    
C14   H4    1.110154 S    
C51   C53   1.419829 A    
C31   C33   1.553768 S    
C30   C32   1.546489 S    
O24   C2    1.278138 A    
N10   O34   1.300701 A    
N2    H39   1.046055 S    
C81   H33   1.082527 S    
C38   H14   1.082019 S    
C86   C88   1.397465 A    
C32   C35   1.548342 S    
O10   C8    1.278362 A    
C48   N2    1.434114 S    
C23   C25   1.548798 S    
N16   H56   1.044983 S    
N9    O32   1.300708 A    
C82   C84   1.395757 A    
N4    H43   1.045635 S    
C44   C46   1.397992 A    
C20   H6    1.110489 S    
C77   C79   1.420511 A    
O15   C9    1.268355 A    
N13   H50   1.044978 S    
C43   C45   1.397997 A    
C24   C27   1.540425 S    
C25   C27   1.529695 S    
C59   C72   1.483966 S    
N8    O29   1.301201 A    
C22   C24   1.560827 S    
C60   C71   1.483964 S    
C55   H21   1.082289 S    
C56   C66   1.399485 A    
C75   C77   1.404408 A    
O3    C1    1.286780 A    
C29   C34   1.537109 S    
C40   C42   1.404021 A    
C11   C18   1.479134 S    
O11   C9    1.278953 A    
N14   H51   1.045216 S    
C15   H1    1.110120 S    
Zn5   O25   1.934127 S    
C12   C17   1.479138 S    
C16   H2    1.110118 S    
Zn3   O11   1.950476 S    
C49   C54   1.390824 A    
C24   C26   1.548807 S    
O4    C2    1.286775 A    
C56   C58   1.391563 A    
C80   C82   1.407774 A    
C55   C57   1.391564 A    
C13   H3    1.110155 S    
O21   C7    1.274930 A    
C21   C27   1.539337 S    
C14   C16   1.548191 S    
N12   O37   1.301019 A    
C4    C25   1.501648 S    
Zn6   O16   1.950812 S    
C8    C33   1.457914 S    
C43   H17   1.083006 S    
C3    C26   1.501648 S    
C79   N11   1.442430 S    
C88   C90   1.416006 A    
C29   C31   1.546483 S    
C61   N7    1.438766 S    
C30   C36   1.527198 S    
C29   C35   1.527200 S    
N1    H38   1.045318 S    
C62   C64   1.416300 A    
C27   N13   1.455818 S    
O13   C11   1.278115 A    
N5    H46   1.041947 S    
Zn6   O10   1.939300 S    
O9    C7    1.278362 A    
C79   C81   1.407828 A    
C32   H12   1.110076 S    
C32   C34   1.553770 S    
C6    C87   1.457481 S    
Zn1   O1    1.947197 S    
C74   H30   1.081446 S    
C45   H19   1.082287 S    
O19   C5    1.275642 A    
N3    H41   1.045621 S    
C33   C35   1.532819 S    
C59   C61   1.414358 A    
N16   H55   1.043954 S    
C55   C65   1.399487 A    
C67   C69   1.396514 A    
C10   C69   1.430474 S    
Zn7   O13   1.948579 S    
C41   C43   1.402845 A    
C36   N18   1.455911 S    
C16   C18   1.535306 S    
C15   C20   1.547695 S    
N11   O35   1.301068 A    
C22   C25   1.551435 S    
N10   O33   1.301156 A    
C24   H8    1.110010 S    
Zn4   O8    1.937215 S    
Zn7   O3    1.936245 S    
N11   O36   1.301610 A    
O20   C6    1.275643 A    
Zn5   O1    1.953713 S    
Zn3   O1    1.954651 S    
C46   C48   1.402292 A    
C28   N14   1.455815 S    
N15   H54   1.044974 S    
C21   H9    1.108475 S    
C42   C53   1.487884 S    
Zn8   O14   1.948579 S    
Zn5   O15   1.950812 S    
Zn8   O4    1.936244 S    
H28   C84   1.080683 S    
Zn7   O1    1.953924 S    
C21   C23   1.560831 S    
N17   H57   1.044829 S    
C22   C28   1.539331 S    
C49   C51   1.411363 A    
C58   C60   1.399643 A    
N18   H59   1.044821 S    
C78   C89   1.480160 S    
C44   H18   1.082997 S    
C31   H11   1.110080 S    
O7    C5    1.286036 A    
Zn4   O24   1.935870 S    
C61   C63   1.416297 A    
O8    C6    1.286032 A    
C57   C59   1.399640 A    
C60   C62   1.414361 A    
C78   C80   1.420449 A    
N6    H47   1.045485 S    
O14   C12   1.278115 A    
C13   C18   1.535377 S    
N18   H60   1.044880 S    
O12   C10   1.278953 A    
Zn5   O9    1.939303 S    
C46   H20   1.082288 S    
C30   C33   1.537107 S    
C17   C19   1.536774 S    
C5    C88   1.457486 S    
O5    C3    1.283680 A    
O16   C10   1.268355 A    
O23   C1    1.278133 A    
C87   C89   1.416007 A    
C85   H35   1.082245 S    
C80   N12   1.442334 S    
Zn4   O2    1.954648 S    
O6    C4    1.283679 A    
Zn2   O2    1.947200 S    
O17   C11   1.277306 A    
C64   C66   1.418276 A    
Zn3   O7    1.937217 S    
C50   N4    1.440963 S    
C30   N16   1.456313 S    
C73   H29   1.081459 S    
Zn2   O20   1.941094 S    
C68   H26   1.085052 S    
C37   C47   1.405211 A    
N8    O30   1.301119 A    
C37   H13   1.082016 S    
C2    C51   1.455877 S    
O26   C4    1.288587 A    
C16   C19   1.547697 S    
C86   H36   1.082251 S    
C41   C54   1.487887 S    
C9    C70   1.430479 S    
C76   C78   1.404386 A    
C82   H34   1.082526 S    
C37   C39   1.397739 A    
Zn6   O2    1.953711 S    
C58   H24   1.083492 S    
Zn1   O17   1.951782 S    
C31   C36   1.548343 S    
C14   C20   1.547565 S    
C64   N10   1.433483 S    
C76   H32   1.083419 S    
C70   C72   1.412313 A    
C13   C15   1.548189 S    
C65   N5    1.438538 S    
C22   H10   1.108478 S    
C73   C75   1.393904 A    
Zn8   O22   1.939513 S    
C85   C90   1.384915 A    
C47   N1    1.434119 S    
C86   C89   1.384916 A    
Zn1   O19   1.941092 S    
C1    C52   1.455882 S    
C15   C17   1.535306 S    
Zn3   O23   1.935870 S    
C75   H31   1.083414 S    
C67   C72   1.372016 A    
C42   C44   1.402845 A    
C38   C40   1.397741 A    
C52   C54   1.419839 A    
C68   C71   1.372018 A    
C73   C83   1.393061 A    
C81   C83   1.395759 A    
N2    H40   1.045345 S    
N17   H58   1.044880 S    
C34   C36   1.532819 S    
C18   C20   1.536775 S    
O25   C3    1.288584 A    
C50   C53   1.390818 A    
C85   C87   1.397469 A    
N13   H49   1.045182 S    
Zn2   O6    1.937371 S    
C56   H22   1.082288 S    
C63   C65   1.418284 A    
C19   H5    1.110489 S    
O18   C12   1.277308 A    
C63   N9    1.433486 S    
N7    O27   1.301193 A    
Zn4   O12   1.950478 S    
Zn6   O26   1.934129 S    
C69   C71   1.412313 A    
Zn1   O5    1.937371 S    
C23   C28   1.540427 S    
C29   N15   1.456314 S    
Zn8   O2    1.953924 S    
C13   C19   1.547563 S    
C67   H25   1.085058 S    
C39   H15   1.083094 S    
C68   C70   1.396516 A    
O22   C8    1.274932 A    
C26   C28   1.529696 S    
N4    H44   1.045043 S    
C57   H23   1.083495 S    
C66   N6    1.438538 S    
C74   C84   1.393101 A    
C62   N8    1.438765 S    
N14   H52   1.044949 S    
C45   C47   1.402296 A    
N6    H48   1.041963 S    
N7    O28   1.301122 A    
