data_mof_unit_54906.cif
_audit_creation_date              2012-12-11T16:04:15-0500
_audit_creation_method            fapswitch 2.2
_symmetry_space_group_name_H-M    P1
_symmetry_Int_Tables_number       1
_space_group_crystal_system       triclinic
_cell_length_a                    8.467041
_cell_length_b                    16.510192
_cell_length_c                    17.483273
_cell_angle_alpha                 96.488012
_cell_angle_beta                  96.458132
_cell_angle_gamma                 92.454624
_cell_volume                      2409.14674022

loop_
_atom_site_label
_atom_site_type_symbol
_atom_type_description
_atom_site_fract_x
_atom_site_fract_y
_atom_site_fract_z
_atom_type_partial_charge
Ba1   Ba    Ba6+2 0.150890 0.539190 0.463180 1.688458
Ba2   Ba    Ba6+2 0.659280 0.460800 0.536750 1.634273
C1    C     C_3   0.430126 0.822884 0.203483 -0.296481
C2    C     C_R   0.831439 0.764219 0.520784 0.032107
C3    C     C_R   0.888320 0.846770 0.524010 0.226472
C4    C     C_3   0.945642 0.756905 0.302142 0.517337
C5    C     C_R   0.787062 0.905952 0.492901 0.106627
C6    C     C_R   0.628408 0.878524 0.460344 0.207883
C7    C     C_R   0.572274 0.797066 0.463236 -0.016284
C8    C     C_R   0.921713 0.155803 0.481210 -0.140191
C9    C     C_R   0.972068 0.239709 0.489833 0.031207
C10   C     C_R   0.023731 0.097338 0.510861 0.248624
C11   C     C_R   0.120995 0.265095 0.530329 -0.259784
C12   C     C_3   0.411891 0.759454 0.260453 0.700428
C13   C     C_R   0.226213 0.208539 0.556847 -0.036402
C14   C     C_R   0.177627 0.125012 0.546742 -0.158794
C15   C     C_R   0.586238 0.539211 0.280561 -0.276933
C16   C     C_3   0.937362 0.844418 0.282593 0.211904
C17   C     C_R   0.442866 0.492478 0.256056 0.058870
C18   C     C_R   0.390507 0.475184 0.175514 0.325530
C19   C     C_R   0.486288 0.502623 0.120198 -0.073100
C20   C     C_R   0.635501 0.542523 0.146532 -0.169639
C21   C     C_R   0.687521 0.558405 0.225985 0.076145
C22   C     C_R   0.420966 0.507897 0.832653 -0.176035
C23   C     C_3   0.433995 0.722360 0.671064 0.261491
C24   C     C_R   0.355406 0.513690 0.756012 0.044393
C25   C     C_R   0.108445 0.445332 0.780781 0.040068
C26   C     C_R   0.174713 0.437383 0.857132 0.338158
C27   C     C_R   0.329446 0.473700 0.884940 -0.080401
C28   C     C_3   0.787830 0.365133 0.303057 0.320984
C29   C     C_1   0.390217 0.481782 0.967377 0.001840
C30   C     C_1   0.435415 0.490412 0.036644 0.004174
C31   C     C_R   0.193534 0.490047 0.733447 -0.281615
C32   C     C_3   0.779426 0.347606 0.213732 -0.092191
C33   C     C_3   0.864603 0.705957 0.698272 0.249428
C34   C     C_3   0.378355 0.799511 0.715021 -0.223400
C35   C     C_3   0.847271 0.795658 0.726014 -0.403231
C36   C     C_3   0.331163 0.273225 0.343310 0.686159
C37   C     C_3   0.444568 0.206981 0.319793 -0.347961
C38   C     C_3   0.313516 0.685043 0.217078 -0.214708
C39   C     C_3   0.631740 0.294315 0.177405 -0.390392
C40   C     C_3   0.928695 0.309239 0.187622 -0.303788
C41   C     C_3   0.166280 0.232013 0.335277 -0.331995
C42   C     C_3   0.384219 0.871890 0.667968 -0.444288
C43   C     C_3   0.945215 0.089015 0.700527 -0.496075
C44   C     C_3   0.638685 0.567416 0.364467 -0.210539
C45   C     C_3   0.917450 0.241693 0.719457 0.344622
C46   C     C_3   0.105631 0.520751 0.663475 -0.233849
C47   C     C_3   0.895875 0.161006 0.753237 -0.184934
C48   C     C_3   0.435872 0.286205 0.746854 0.354272
C49   C     C_3   0.443953 0.258144 0.827341 0.208203
C50   C     C_R   0.670686 0.742974 0.498962 -0.000812
H1    H     H_    0.772254 0.406784 0.189990 0.065559
H2    H     H_    0.566612 0.233133 0.325848 0.156923
H3    H     H_    0.501790 0.798984 0.157264 0.081106
H4    H     H_    0.530313 0.741154 0.638248 0.004706
H5    H     H_    0.334017 0.692286 0.631231 0.076303
H6    H     H_    0.455859 0.815962 0.770793 0.129531
H7    H     H_    0.255058 0.787880 0.728635 0.137086
H8    H     H_    0.491695 0.880024 0.234529 0.107627
H9    H     H_    0.816601 0.853579 0.253829 0.033159
H10   H     H_    0.846589 0.237408 0.661407 0.062356
H11   H     H_    0.045748 0.253285 0.713867 -0.020019
H12   H     H_    0.878363 0.672315 0.749927 0.052637
H13   H     H_    0.968712 0.164714 0.810672 0.164457
H14   H     H_    0.768804 0.150352 0.761737 0.131399
H15   H     H_    0.312671 0.304101 0.730117 -0.075153
H16   H     H_    0.519985 0.340311 0.749717 0.033505
H17   H     H_    0.423911 0.310482 0.870096 0.046509
H18   H     H_    0.564329 0.236698 0.844590 0.062384
H19   H     H_    0.064358 0.747888 0.331201 0.077116
H20   H     H_    0.806451 0.136252 0.449719 0.097662
H21   H     H_    0.259162 0.081375 0.567515 0.106159
H22   H     H_    0.159682 0.329070 0.536846 0.092275
H23   H     H_    0.755702 0.679063 0.661980 0.086777
H24   H     H_    0.540273 0.533686 0.852549 0.115741
H25   H     H_    0.712575 0.560462 0.105183 0.105334
H26   H     H_    0.859819 0.747691 0.344187 -0.163921
H27   H     H_    0.960457 0.886953 0.337264 0.029217
H28   H     H_    0.672829 0.387065 0.318948 -0.035536
H29   H     H_    0.882040 0.414191 0.322563 0.051911
H30   H     H_    0.293849 0.638860 0.256588 0.119076
H31   H     H_    0.196029 0.703021 0.191807 0.122973
H32   H     H_    0.376041 0.657049 0.169112 0.057719
H33   H     H_    0.636429 0.232224 0.195770 0.138764
H34   H     H_    0.960132 0.822732 0.759434 0.126295
H35   H     H_    0.522544 0.322441 0.193845 0.136867
H36   H     H_    0.624926 0.288637 0.113169 0.126993
H37   H     H_    0.037158 0.343119 0.218271 0.182030
H38   H     H_    0.929883 0.244476 0.198734 0.117943
H39   H     H_    0.930442 0.311315 0.124421 0.126528
H40   H     H_    0.132633 0.200606 0.275813 0.081496
H41   H     H_    0.158525 0.186339 0.376803 0.042398
H42   H     H_    0.087134 0.280978 0.346834 0.118076
H43   H     H_    0.387181 0.262080 0.450500 0.283457
H44   H     H_    0.621993 0.786529 0.313467 0.261128
H45   H     H_    0.751028 0.801221 0.764106 0.104321
H46   H     H_    0.509891 0.892295 0.664906 0.114066
H47   H     H_    0.325590 0.854445 0.608132 0.210638
H48   H     H_    0.323081 0.923472 0.695946 0.141065
H49   H     H_    0.072125 0.097898 0.691364 0.148079
H50   H     H_    0.930058 0.031977 0.727681 0.139461
H51   H     H_    0.868755 0.082482 0.644112 0.163691
H52   H     H_    0.365061 0.145113 0.804335 0.315381
H53   H     H_    0.579323 0.982737 0.422218 0.320383
H54   H     H_    0.026474 0.917657 0.599701 0.308045
H55   H     H_    0.498559 0.671372 0.522618 0.306451
H56   H     H_    0.816594 0.830164 0.676108 0.079070
H57   H     H_    0.149363 0.386917 0.951073 0.300449
H58   H     H_    0.227116 0.419583 0.096601 0.298250
H59   H     H_    0.677654 0.632737 0.370943 0.128242
H60   H     H_    0.550965 0.571738 0.402912 0.189225
H61   H     H_    0.725171 0.525870 0.388961 0.115161
H62   H     H_    0.981637 0.534084 0.672719 0.128498
H63   H     H_    0.156476 0.580473 0.653930 0.101170
H64   H     H_    0.109057 0.476505 0.611103 0.131416
H65   H     H_    0.042253 0.918477 0.224410 0.303170
H66   H     H_    0.312592 0.838153 0.175719 0.137560
H67   H     H_    0.411484 0.180570 0.258452 0.080625
H68   H     H_    0.441794 0.156752 0.357061 0.070242
N1    N     N_2   0.833952 0.992016 0.495609 -0.240272
N2    N     N_2   0.980381 0.011051 0.504478 -0.193095
O1    O     O_2   0.124170 0.696240 0.537320 -0.449048
O2    O     O_2   0.780923 0.452257 0.773153 -0.468683
O3    O     O_3   0.862448 0.303533 0.769934 -0.571537
O4    O     O_3   0.874280 0.596090 0.538840 -0.441787
O5    O     O_3   0.430090 0.459160 0.409230 -0.449809
O6    O     O_2   0.641040 0.538740 0.685130 -0.442257
O7    O     O_3   0.495901 0.671389 0.724283 -0.658391
O8    O     O_2   0.558881 0.206813 0.553953 -0.485179
O9    O     O_3   0.480395 0.222749 0.694376 -0.613648
O10   O     O_3   0.350640 0.647210 0.399890 -0.517957
O11   O     O_2   0.245916 0.789611 0.457794 -0.435299
O12   O     O_3   0.329794 0.331751 0.290417 -0.627287
O13   O     O_3   0.002257 0.696866 0.661035 -0.640870
O14   O     O_3   0.331447 0.795205 0.321703 -0.560182
O15   O     O_2   0.169260 0.461210 0.314850 -0.449847
O16   O     O_3   0.932460 0.606800 0.361650 -0.521368
O17   O     O_2   0.019307 0.553063 0.222750 -0.472055
O18   O     O_3   0.374336 0.308076 0.419762 -0.686831
O19   O     O_3   0.563700 0.736168 0.286674 -0.787719
O20   O     O_3   0.325868 0.196373 0.828956 -0.724106
O21   O     O_3   0.524333 0.929382 0.425418 -0.696073
O22   O     O_3   0.036797 0.868407 0.562978 -0.691188
O23   O     O_3   0.914637 0.701622 0.234181 -0.596072
O24   O     O_3   0.612203 0.668557 0.515669 -0.741960
O25   O     O_3   0.083420 0.396479 0.902895 -0.705571
O26   O     O_3   0.247972 0.430123 0.153691 -0.718250
O27   O     O_3   0.050803 0.860405 0.233192 -0.710221
O28   O     O_2   0.686120 0.303710 0.462660 -0.423673
O29   O     O_3   0.936010 0.403900 0.461090 -0.507784
O30   O     O_3   0.459650 0.352790 0.600040 -0.453979
O31   O     O_3   0.821031 0.294341 0.338103 -0.657392
O32   O     O_3   0.380200 0.540830 0.590710 -0.479629
O33   O     O_3   0.877840 0.393190 0.638290 -0.510832
P1    P     P_3+3 0.954010 0.683680 0.560080 1.073131
P2    P     P_3+3 0.343360 0.437010 0.326580 1.085327
P3    P     P_3+3 0.891177 0.602777 0.260300 0.956203
P4    P     P_3+3 0.856290 0.316310 0.439860 0.981856
P5    P     P_3+3 0.908394 0.398575 0.740411 1.007791
P6    P     P_3+3 0.377268 0.755508 0.410845 1.039853
P7    P     P_3+3 0.466355 0.567158 0.688756 0.957657
P8    P     P_3+3 0.430607 0.246730 0.600112 0.962986

loop_
_geom_bond_atom_site_label_1
_geom_bond_atom_site_label_2
_ccdc_geom_bond_type
O8    P8    D    
Ba2   O28   S    
Ba2   O33   S    
C44   H60   S    
C9    C11   A    
C38   H32   S    
C17   C18   A    
C32   C40   S    
C23   H4    S    
Ba1   O10   S    
C23   O7    S    
C45   H10   S    
C35   H45   S    
O3    P5    S    
C9    P4    S    
C5    C6    A    
C45   C47   S    
O4    P1    S    
C25   C31   A    
C7    C50   A    
C33   H23   S    
H43   O18   S    
C15   C21   A    
C47   H13   S    
C2    C50   A    
C13   P8    S    
C26   C27   A    
C33   C35   S    
C22   C24   A    
C40   H39   S    
C34   H6    S    
C45   H11   S    
C36   C37   S    
C42   H47   S    
C4    H26   S    
C37   H2    S    
C13   C14   A    
C21   P3    S    
C41   H42   S    
Ba1   Ba2   S    
O10   P6    S    
C43   H51   S    
C41   H41   S    
H44   O19   S    
C22   C27   A    
C1    H3    S    
C28   O31   S    
C10   C14   A    
O17   P3    D    
C16   H27   S    
C18   O26   S    
C33   H12   S    
C49   H18   S    
C43   C47   S    
C16   O27   S    
C48   H15   S    
O5    P2    S    
C46   H64   S    
C28   H28   S    
C1    H8    S    
C34   H7    S    
C12   O19   S    
Ba2   O32   S    
C44   H59   S    
C38   H31   S    
H57   O25   S    
C32   C39   S    
C23   H5    S    
C5    N1    S    
H58   O26   S    
C8    C10   A    
C45   O3    S    
O1    P1    D    
Ba2   O30   S    
C4    H19   S    
C39   H35   S    
C19   C30   S    
C4    C16   S    
C47   H14   S    
C28   C32   S    
C14   H21   S    
C17   P2    S    
C38   H30   S    
C35   H34   S    
C15   C44   S    
C35   H56   S    
O28   P4    D    
C33   O13   S    
O14   P6    S    
C3    C5    A    
C4    O23   S    
C6    C7    A    
C3    O22   S    
C25   P5    S    
C12   C38   S    
C24   P7    S    
O13   P1    S    
C40   H38   S    
O29   P4    S    
O31   P4    S    
Ba1   P1    S    
Ba1   O1    S    
C1    H66   S    
O16   P3    S    
C24   C31   A    
C29   C30   T    
O9    P8    S    
O6    P7    D    
C48   C49   S    
Ba1   O4    S    
C7    P6    S    
N1    N2    D    
C1    C12   S    
C43   H49   S    
C46   H63   S    
Ba2   O4    S    
C2    P1    S    
C8    C9    A    
C11   C13   A    
H52   O20   S    
C34   C42   S    
Ba2   P4    S    
Ba1   O15   S    
C46   H62   S    
C49   O20   S    
Ba2   O29   S    
H55   O24   S    
C39   H36   S    
C26   O25   S    
C50   O24   S    
C44   H61   S    
O33   P5    S    
O32   P7    S    
C22   H24   S    
Ba1   O5    S    
C20   H25   S    
C2    C3    A    
O11   P6    D    
H53   O21   S    
C16   H9    S    
H54   O22   S    
C39   H33   S    
C41   H40   S    
O15   P2    D    
C40   H37   S    
C28   H29   S    
Ba1   P2    S    
C36   C41   S    
C27   C29   S    
Ba2   O5    S    
O23   P3    S    
C42   H48   S    
C12   O14   S    
C48   O9    S    
C37   H67   S    
O2    P5    D    
C15   C17   A    
O7    P7    S    
Ba1   O29   S    
C6    O21   S    
C36   O12   S    
Ba1   O32   S    
O30   P8    S    
C43   H50   S    
C23   C34   S    
C42   H46   S    
O12   P2    S    
C10   N2    S    
C18   C19   A    
C32   H1    S    
C25   C26   A    
C31   C46   S    
C36   O18   S    
C20   C21   A    
H65   O27   S    
C49   H17   S    
C19   C20   A    
C48   H16   S    
Ba1   O16   S    
C37   H68   S    
C8    H20   S    
C11   H22   S    
Ba2   O6    S    
