data_mof_unit_26142.cif
_audit_creation_date              2012-12-10T17:34:57-0500
_audit_creation_method            fapswitch 2.2
_symmetry_space_group_name_H-M    P1
_symmetry_Int_Tables_number       1
_space_group_crystal_system       triclinic
_cell_length_a                    12.336055
_cell_length_b                    13.190214
_cell_length_c                    13.874206
_cell_angle_alpha                 105.184935
_cell_angle_beta                  73.869373
_cell_angle_gamma                 116.648847
_cell_volume                      1913.34109111

loop_
_atom_site_label
_atom_site_type_symbol
_atom_type_description
_atom_site_fract_x
_atom_site_fract_y
_atom_site_fract_z
_atom_type_partial_charge
C1    C     C_R   0.144493 0.713608 0.508366 0.795932
C2    C     C_1   0.975066 0.506167 0.791392 -0.155696
C3    C     C_R   0.737031 0.975336 0.366593 -0.194691
C4    C     C_R   0.775062 0.164715 0.464558 -0.048885
C5    C     C_R   0.177823 0.916787 0.571077 -0.304607
C6    C     C_R   0.254722 0.033535 0.589403 0.465795
C7    C     C_R   0.381386 0.069355 0.554207 -0.186786
C8    C     C_R   0.433597 0.990643 0.496767 -0.010038
C9    C     C_R   0.353097 0.875329 0.467790 0.076745
C10   C     C_R   0.563178 0.023127 0.465727 0.097793
C11   C     C_R   0.609400 0.944122 0.398023 0.170082
C12   C     C_R   0.984266 0.504161 0.686325 0.810211
C13   C     C_R   0.527824 0.835878 0.360478 -0.241887
C14   C     C_R   0.401642 0.802493 0.393559 -0.176821
C15   C     C_R   0.648560 0.131611 0.500846 -0.252122
C16   C     C_R   0.819622 0.085578 0.399102 -0.191246
C17   C     C_R   0.226013 0.836780 0.512815 -0.141672
C18   C     C_R   0.641078 0.676542 0.659576 -0.290090
C19   C     C_R   0.251235 0.350738 0.364717 0.087790
C20   C     C_R   0.349567 0.317575 0.335391 -0.246869
C21   C     C_R   0.448894 0.373765 0.386308 -0.180674
C22   C     C_R   0.450958 0.464333 0.467859 0.001362
C23   C     C_R   0.856137 0.286290 0.485364 0.798497
C24   C     C_R   0.347520 0.494885 0.495570 0.289756
C25   C     C_R   0.551000 0.525320 0.523075 -0.034025
C26   C     C_R   0.545224 0.615144 0.604263 0.171305
C27   C     C_R   0.443635 0.643059 0.630300 -0.254820
C28   C     C_R   0.346875 0.583960 0.577620 -0.158512
C29   C     C_R   0.657327 0.501595 0.501777 0.028266
C30   C     C_R   0.742636 0.648912 0.634844 0.076992
C31   C     C_R   0.015885 0.495986 0.313667 0.822643
C32   C     C_1   0.026106 0.494546 0.208529 -0.174859
C33   C     C_2   0.046640 0.492138 0.013444 0.441595
C34   C     C_2   0.961523 0.508402 0.984692 -0.197895
C35   C     C_1   0.967935 0.507497 0.879709 0.087435
C36   C     C_1   0.035716 0.493364 0.119808 -0.135358
Cu1   Cu    Cu3+1 0.899780 0.525060 0.522890 0.938775
Cu2   Cu    Cu3+1 0.100220 0.474940 0.477110 0.936408
H1    H     H_    0.885724 0.522324 0.040252 0.105401
H2    H     H_    0.343161 0.719971 0.357574 0.173835
H3    H     H_    0.817025 0.696020 0.677196 0.122530
H4    H     H_    0.438423 0.711299 0.692686 0.156552
H5    H     H_    0.637362 0.745408 0.721670 0.139952
H6    H     H_    0.669602 0.434977 0.441446 0.122874
H7    H     H_    0.174515 0.306554 0.324783 0.123851
H8    H     H_    0.522431 0.344478 0.360379 0.134399
H9    H     H_    0.348791 0.248051 0.272959 0.145326
H10   H     H_    0.272911 0.611033 0.604603 0.204211
H11   H     H_    0.917543 0.110187 0.370048 0.150593
H12   H     H_    0.561653 0.776533 0.305235 0.144890
H13   H     H_    0.772757 0.915468 0.314649 0.136319
H14   H     H_    0.619303 0.193068 0.556191 0.151571
H15   H     H_    0.080443 0.888305 0.604166 0.150874
H16   H     H_    0.435865 0.160262 0.570852 0.156410
N1    N     N_R   0.748810 0.563010 0.557590 -0.180364
N2    N     N_R   0.250540 0.437620 0.443020 -0.206772
O1    O     O_R   0.025040 0.682470 0.528790 -0.579548
O2    O     O_R   0.194310 0.640150 0.490130 -0.610672
O3    O     O_R   0.903380 0.524130 0.659910 -0.578064
O4    O     O_R   0.072660 0.481800 0.621240 -0.574763
O5    O     O_R   0.805690 0.359850 0.509870 -0.586646
O6    O     O_R   0.974960 0.317530 0.471210 -0.583105
O7    O     O_R   0.927340 0.518200 0.378760 -0.576982
O8    O     O_R   0.096620 0.475870 0.340090 -0.589166
O9    O     O_3   0.142727 0.474528 0.942180 -0.703724
H17   H     H_    0.195335 0.464404 0.978344 0.326684
O10   O     O_3   0.209474 0.114514 0.644237 -0.717602
H18   H     H_    0.118425 0.075904 0.663482 0.321306

loop_
_geom_bond_atom_site_label_1
_geom_bond_atom_site_label_2
_ccdc_geom_bond_type
C2    C35   T    
C4    C16   A    
Cu1   O5    S    
C9    C14   A    
C19   H7    S    
C30   H3    S    
C6    C7    A    
C18   C30   A    
C1    O1    A    
C24   N2    A    
Cu2   N2    S    
C24   C28   A    
C30   N1    A    
C1    C17   S    
C19   C20   A    
C18   C26   A    
C19   N2    A    
C31   O8    A    
C2    C12   S    
C21   C22   A    
C4    C15   A    
C33   C34   D    
C18   H5    S    
C33   O9    S    
C7    C8    A    
C21   H8    S    
C31   C32   S    
C15   H14   S    
C20   C21   A    
C11   C13   A    
C27   H4    S    
C26   C27   A    
Cu1   O3    S    
C1    O2    A    
Cu2   O4    S    
C32   C36   T    
C5    H15   S    
C6    O10   S    
Cu1   O7    S    
Cu1   Cu2   S    
C34   C35   S    
Cu2   O8    S    
C10   C15   A    
C7    H16   S    
C29   H6    S    
C25   C29   A    
C5    C6    A    
C22   C24   A    
C20   H9    S    
C3    C11   A    
C10   C11   A    
C14   H2    S    
O10   H18   S    
C12   O4    A    
C31   O7    A    
C23   O5    A    
C33   C36   S    
C5    C17   A    
C16   H11   S    
C8    C10   A    
O9    H17   S    
C9    C17   A    
C27   C28   A    
C4    C23   S    
C3    H13   S    
C28   H10   S    
C29   N1    A    
C13   C14   A    
C25   C26   A    
Cu2   O2    S    
C12   O3    A    
C34   H1    S    
C23   O6    A    
Cu1   O1    S    
C3    C16   A    
C13   H12   S    
C8    C9    A    
Cu2   O6    S    
C22   C25   A    
Cu1   N1    S    
