data_mof_unit_28035.cif
_audit_creation_date              2013-03-05T15:41:57-0500
_audit_creation_method            fapswitch 2.2
_symmetry_space_group_name_H-M    P1
_symmetry_Int_Tables_number       1
_space_group_crystal_system       triclinic
_cell_length_a                    24.987143
_cell_length_b                    16.923888
_cell_length_c                    16.028195
_cell_angle_alpha                 89.994967
_cell_angle_beta                  49.082251
_cell_angle_gamma                 89.99438
_cell_volume                      5121.79741079

loop_
_atom_site_label
_atom_site_type_symbol
_atom_site_description
_atom_site_fract_x
_atom_site_fract_y
_atom_site_fract_z
_atom_type_partial_charge
C1    C     C_R   0.355915 0.150820 0.751401 0.266920
C2    C     C_R   0.668641 0.907401 0.188138 0.169503
C3    C     C_R   0.644019 0.150878 0.248683 0.267376
C4    C     C_R   0.331403 0.907512 0.811917 0.169025
C5    C     C_R   0.855960 0.650863 0.751231 0.266984
C6    C     C_R   0.168611 0.407501 0.188093 0.169230
C7    C     C_R   0.144068 0.650829 0.248584 0.267047
C8    C     C_R   0.831403 0.407495 0.811915 0.169045
N1    N     N_R   0.389620 0.081040 0.705440 -0.059516
N2    N     N_R   0.610380 0.918960 0.294560 -0.062717
N3    N     N_R   0.610380 0.081040 0.294560 -0.059472
N4    N     N_R   0.389620 0.918960 0.705440 -0.062820
N5    N     N_R   0.889620 0.581040 0.705440 -0.059485
N6    N     N_R   0.110380 0.418960 0.294560 -0.062784
N7    N     N_R   0.110380 0.581040 0.294560 -0.059507
N8    N     N_R   0.889620 0.418960 0.705440 -0.062817
C9    C     C_R   0.614761 0.106548 0.591311 -0.193937
C10   C     C_R   0.411990 0.853532 0.405793 -0.185997
C11   C     C_R   0.385208 0.106472 0.408703 -0.193833
C12   C     C_R   0.588194 0.853653 0.594165 -0.186468
C13   C     C_R   0.114760 0.606576 0.591297 -0.194054
C14   C     C_R   0.911976 0.353536 0.405806 -0.185956
C15   C     C_R   0.885135 0.606161 0.408683 -0.193601
C16   C     C_R   0.088043 0.353549 0.594199 -0.186132
H1    H     H_    0.592359 0.107799 0.676208 0.109198
H2    H     H_    0.439068 0.840848 0.320345 0.118212
H3    H     H_    0.407612 0.107734 0.323805 0.109193
H4    H     H_    0.561044 0.840927 0.679629 0.118146
H5    H     H_    0.092363 0.607837 0.676192 0.109233
H6    H     H_    0.939057 0.340843 0.320359 0.118184
H7    H     H_    0.907586 0.607439 0.323759 0.109202
H8    H     H_    0.060951 0.340849 0.679648 0.118192
N9    N     N_R   0.582320 0.079840 0.556630 -0.049489
N10   N     N_R   0.417680 0.920160 0.443370 -0.051055
N11   N     N_R   0.417680 0.079840 0.443370 -0.049526
N12   N     N_R   0.582320 0.920160 0.556630 -0.050948
N13   N     N_R   0.082320 0.579840 0.556630 -0.049511
N14   N     N_R   0.917680 0.420160 0.443370 -0.051006
N15   N     N_R   0.917680 0.579840 0.443370 -0.049551
N16   N     N_R   0.082320 0.420160 0.556630 -0.051023
C17   C     C_R   0.693179 0.090832 0.409986 0.274987
C18   C     C_R   0.338615 0.849945 0.589335 0.198326
C19   C     C_R   0.306801 0.090719 0.590032 0.274828
C20   C     C_R   0.661834 0.850248 0.410491 0.197636
C21   C     C_R   0.193183 0.590819 0.409968 0.274816
C22   C     C_R   0.838585 0.349965 0.589359 0.198120
C23   C     C_R   0.806767 0.590456 0.589997 0.275128
C24   C     C_R   0.161482 0.350008 0.410628 0.198173
N17   N     N_R   0.627920 0.078930 0.443400 -0.071107
N18   N     N_R   0.372080 0.921070 0.556600 -0.081174
N19   N     N_R   0.372080 0.078930 0.556600 -0.071106
N20   N     N_R   0.627920 0.921070 0.443400 -0.081097
N21   N     N_R   0.127920 0.578930 0.443400 -0.071109
N22   N     N_R   0.872080 0.421070 0.556600 -0.081207
N23   N     N_R   0.872080 0.578930 0.556600 -0.071097
N24   N     N_R   0.127920 0.421070 0.443400 -0.081139
C25   C     C_R   0.554824 0.143523 0.248856 -0.163343
C26   C     C_R   0.422042 0.894912 0.803194 -0.161802
C27   C     C_R   0.445153 0.143537 0.751139 -0.163435
C28   C     C_R   0.578017 0.894855 0.196785 -0.161514
C29   C     C_R   0.054823 0.643524 0.248861 -0.163557
C30   C     C_R   0.922038 0.394893 0.803193 -0.161827
C31   C     C_R   0.945183 0.643619 0.751001 -0.163444
C32   C     C_R   0.077979 0.394923 0.196790 -0.161859
H9    H     H_    0.519072 0.155900 0.234514 0.115575
H10   H     H_    0.451884 0.898048 0.830202 0.109124
H11   H     H_    0.480914 0.155954 0.765447 0.115593
H12   H     H_    0.548220 0.898027 0.169701 0.108911
H13   H     H_    0.019034 0.655923 0.234594 0.115659
H14   H     H_    0.951871 0.398036 0.830216 0.109112
H15   H     H_    0.980964 0.656101 0.765251 0.115605
H16   H     H_    0.048148 0.398078 0.169765 0.109081
N25   N     N_R   0.555090 0.077730 0.294590 -0.049095
N26   N     N_R   0.444910 0.922270 0.705410 -0.046972
N27   N     N_R   0.444910 0.077730 0.705410 -0.049118
N28   N     N_R   0.555090 0.922270 0.294590 -0.046937
N29   N     N_R   0.055090 0.577730 0.294590 -0.049125
N30   N     N_R   0.944910 0.422270 0.705410 -0.046945
N31   N     N_R   0.944910 0.577730 0.705410 -0.049083
N32   N     N_R   0.055090 0.422270 0.294590 -0.046951
C33   C     C_R   0.391814 0.191714 0.777411 0.060092
C34   C     C_R   0.649603 0.881497 0.129524 0.078451
C35   C     C_R   0.608126 0.191732 0.222613 0.060068
C36   C     C_R   0.350482 0.881624 0.870461 0.077527
C37   C     C_R   0.891873 0.691819 0.777153 0.060222
C38   C     C_R   0.149548 0.381634 0.129519 0.077835
C39   C     C_R   0.108162 0.691701 0.222548 0.060041
C40   C     C_R   0.850478 0.381576 0.870453 0.077668
C41   C     C_R   0.683969 0.116069 0.500052 -0.037719
C42   C     C_R   0.362696 0.807752 0.495943 0.009209
C43   C     C_R   0.315988 0.115902 0.499963 -0.038089
C44   C     C_R   0.637776 0.808097 0.503936 0.009768
C45   C     C_R   0.183963 0.616117 0.500023 -0.037811
C46   C     C_R   0.862662 0.307773 0.495969 0.009399
C47   C     C_R   0.815867 0.615284 0.499882 -0.038603
C48   C     C_R   0.137397 0.307815 0.504035 0.009404
Ni1   Ni    Ni4+2 0.382970 1.000000 0.629840 0.229316
Ni2   Ni    Ni4+2 0.617030 0.000000 0.370160 0.229111
Ni3   Ni    Ni4+2 0.882970 0.500000 0.629840 0.229310
Ni4   Ni    Ni4+2 0.117030 0.500000 0.370160 0.229284
Ni5   Ni    Ni4+2 0.514540 1.000000 0.629840 0.200202
Ni6   Ni    Ni4+2 0.485460 0.000000 0.370160 0.200186
Ni7   Ni    Ni4+2 0.014540 0.500000 0.629840 0.200238
Ni8   Ni    Ni4+2 0.985460 0.500000 0.370160 0.200170
C49   C     C_3   0.234421 0.234717 0.562948 -0.134523
C50   C     C_3   0.704547 0.665039 0.447316 -0.138554
C51   C     C_3   0.765691 0.234795 0.436928 -0.134641
C52   C     C_3   0.294304 0.665412 0.554317 -0.139597
C53   C     C_3   0.735231 0.734618 0.561902 -0.133779
C54   C     C_3   0.205397 0.165292 0.446098 -0.139299
C55   C     C_3   0.265808 0.734781 0.436734 -0.134785
C56   C     C_3   0.794415 0.165360 0.554179 -0.139527
C57   C     C_3   0.660286 0.711100 0.609540 -0.171504
C58   C     C_3   0.280072 0.189842 0.399658 -0.165674
C59   C     C_3   0.340213 0.710243 0.390703 -0.170833
C60   C     C_3   0.719826 0.190070 0.600383 -0.165902
C61   C     C_3   0.159886 0.210423 0.609374 -0.171008
C62   C     C_3   0.779692 0.688799 0.399572 -0.164976
C63   C     C_3   0.840152 0.210341 0.390717 -0.170954
C64   C     C_3   0.219780 0.690211 0.600330 -0.165883
H17   H     H_    0.610529 0.720183 0.695951 0.124033
H18   H     H_    0.329577 0.181801 0.312770 0.112071
H19   H     H_    0.390408 0.718381 0.304453 0.124101
H20   H     H_    0.670258 0.182164 0.687251 0.112072
H21   H     H_    0.109795 0.218789 0.695666 0.124082
H22   H     H_    0.828862 0.679993 0.312589 0.112144
H23   H     H_    0.890302 0.218577 0.304448 0.124104
H24   H     H_    0.170168 0.682412 0.687184 0.112046
H25   H     H_    0.247255 0.262666 0.610672 0.141035
H26   H     H_    0.690153 0.629842 0.406482 0.113596
H27   H     H_    0.752972 0.262753 0.389052 0.141163
H28   H     H_    0.306958 0.629947 0.597301 0.114290
H29   H     H_    0.748707 0.762637 0.608744 0.141035
H30   H     H_    0.192317 0.129879 0.403650 0.114045
H31   H     H_    0.253179 0.762707 0.388725 0.141073
H32   H     H_    0.807245 0.129893 0.596930 0.114205
C65   C     C_3   0.677204 0.745340 0.506054 0.201397
C66   C     C_3   0.263217 0.155276 0.502595 0.214164
C67   C     C_3   0.323005 0.745143 0.494105 0.200263
C68   C     C_3   0.736727 0.155428 0.497454 0.214275
C69   C     C_3   0.177019 0.245162 0.505949 0.200536
C70   C     C_3   0.763102 0.654740 0.502552 0.213668
C71   C     C_3   0.822986 0.245153 0.494125 0.200325
C72   C     C_3   0.236725 0.655480 0.497410 0.214307
C73   C     C_3   0.251226 0.269692 0.460034 -0.172946
C74   C     C_3   0.688813 0.629927 0.550616 -0.150103
C75   C     C_3   0.748852 0.269841 0.539832 -0.172750
C76   C     C_3   0.310418 0.629654 0.451025 -0.149325
C77   C     C_3   0.751819 0.769101 0.458940 -0.173618
C78   C     C_3   0.189380 0.129692 0.549393 -0.149540
C79   C     C_3   0.248929 0.769916 0.539630 -0.172684
C80   C     C_3   0.810480 0.129689 0.450885 -0.149255
H33   H     H_    0.276580 0.328138 0.423898 0.111019
H34   H     H_    0.664146 0.571211 0.585630 0.125365
H35   H     H_    0.723585 0.328342 0.575838 0.111052
H36   H     H_    0.334436 0.570526 0.417167 0.124727
H37   H     H_    0.777641 0.827244 0.422032 0.110804
H38   H     H_    0.165210 0.070663 0.583536 0.124865
H39   H     H_    0.223720 0.828458 0.575513 0.111055
H40   H     H_    0.834555 0.070600 0.416906 0.124767
H41   H     H_    0.226446 0.826967 0.970654 0.141359
H42   H     H_    0.680279 0.322472 0.204411 0.158305
H43   H     H_    0.774669 0.828872 0.027718 0.140752
H44   H     H_    0.319561 0.322310 0.795529 0.158276
H45   H     H_    0.726334 0.327140 0.970779 0.141199
H46   H     H_    0.180369 0.822352 0.204320 0.158224
H47   H     H_    0.273870 0.327537 0.028873 0.141204
H48   H     H_    0.819532 0.822351 0.795095 0.158460
C81   C     C_2   0.631036 0.262199 0.154578 -0.190082
C82   C     C_2   0.298709 0.861899 0.988957 -0.142802
C83   C     C_2   0.368922 0.262237 0.845321 -0.190047
C84   C     C_2   0.701361 0.861976 0.010862 -0.143372
C85   C     C_2   0.131074 0.762166 0.154522 -0.190131
C86   C     C_2   0.798695 0.361867 0.988968 -0.142758
C87   C     C_2   0.869040 0.762487 0.844817 -0.189869
C88   C     C_2   0.201311 0.361974 0.010978 -0.143025
C89   C     C_2   0.676779 0.313276 0.141232 -0.072174
C90   C     C_2   0.234897 0.836965 0.028168 -0.037635
C91   C     C_2   0.323170 0.313287 0.858618 -0.072461
C92   C     C_2   0.765588 0.837966 0.970875 -0.038150
C93   C     C_2   0.176840 0.813208 0.141162 -0.072227
C94   C     C_2   0.734838 0.337042 0.028240 -0.037704
C95   C     C_2   0.823290 0.813535 0.858044 -0.073012
C96   C     C_2   0.265238 0.337284 0.971548 -0.037822
H49   H     H_    0.312123 0.865796 0.041002 0.147635
H50   H     H_    0.623986 0.260021 0.094400 0.136149
H51   H     H_    0.687486 0.864944 0.959362 0.147979
H52   H     H_    0.376063 0.260192 0.905398 0.136122
H53   H     H_    0.812140 0.365680 0.040978 0.147737
H54   H     H_    0.123998 0.760020 0.094372 0.136174
H55   H     H_    0.187758 0.365602 0.959096 0.147706
H56   H     H_    0.876309 0.760645 0.904751 0.136064
I1    I     I_    0.256366 0.185924 0.803541 -0.504711
I2    I     I_    0.758780 0.984890 0.101482 -0.483122
I3    I     I_    0.743437 0.186238 0.196864 -0.504998
I4    I     I_    0.240834 0.984293 0.898714 -0.482666
I5    I     I_    0.756448 0.685971 0.803249 -0.504999
I6    I     I_    0.259074 0.484448 0.101378 -0.482769
I7    I     I_    0.243584 0.686006 0.196514 -0.504706
I8    I     I_    0.740911 0.484402 0.898764 -0.482723
C97   C     C_3   0.753350 0.033729 0.331025 -0.352465
C98   C     C_3   0.827162 0.069926 0.243908 -0.793868
H57   H     H_    0.827909 0.133926 0.256586 0.269264
H58   H     H_    0.866100 0.040007 0.245302 0.225341
H59   H     H_    0.845672 0.061133 0.159981 0.292618
H60   H     H_    0.756020 0.990267 0.380329 0.159438
H61   H     H_    0.739886 0.998826 0.289674 0.214288
C99   C     C_3   0.280700 0.821092 0.705382 -0.405403
C100  C     C_3   0.306740 0.756080 0.738028 -0.842025
H62   H     H_    0.317930 0.700998 0.693145 0.243677
H63   H     H_    0.356782 0.772222 0.718497 0.258944
H64   H     H_    0.265467 0.742972 0.827342 0.245237
H65   H     H_    0.257258 0.870191 0.763239 0.205525
H66   H     H_    0.235810 0.797566 0.714580 0.193650
C101  C     C_3   0.246704 0.033489 0.668894 -0.351807
C102  C     C_3   0.172864 0.069602 0.756121 -0.793771
H67   H     H_    0.172034 0.133590 0.743436 0.269161
H68   H     H_    0.133910 0.039588 0.754846 0.225272
H69   H     H_    0.154431 0.060852 0.840005 0.292836
H70   H     H_    0.244036 0.990144 0.619482 0.159194
H71   H     H_    0.260201 0.998399 0.710106 0.214333
C103  C     C_3   0.720365 0.822125 0.294221 -0.405670
C104  C     C_3   0.695392 0.756964 0.260119 -0.840699
H72   H     H_    0.688280 0.700505 0.299880 0.243613
H73   H     H_    0.643760 0.771192 0.283689 0.259305
H74   H     H_    0.735728 0.747048 0.169868 0.244410
H75   H     H_    0.743270 0.871606 0.237017 0.205575
H76   H     H_    0.765440 0.799237 0.284970 0.193354
C105  C     C_3   0.253315 0.533617 0.331145 -0.351958
C106  C     C_3   0.327148 0.569759 0.243987 -0.793690
H77   H     H_    0.327923 0.633772 0.256585 0.269153
H78   H     H_    0.366064 0.539852 0.245445 0.225313
H79   H     H_    0.345667 0.560903 0.160063 0.292692
H80   H     H_    0.255954 0.490262 0.380586 0.159228
H81   H     H_    0.239864 0.498549 0.289866 0.214318
C107  C     C_3   0.780650 0.321151 0.705432 -0.405631
C108  C     C_3   0.806666 0.256159 0.738137 -0.841407
H82   H     H_    0.817372 0.200880 0.693853 0.243596
H83   H     H_    0.856942 0.272138 0.717992 0.258941
H84   H     H_    0.765546 0.243421 0.827603 0.245089
H85   H     H_    0.757239 0.370273 0.763262 0.205468
H86   H     H_    0.735740 0.297640 0.714674 0.193654
C109  C     C_3   0.746717 0.533234 0.669066 -0.351981
C110  C     C_3   0.672887 0.569327 0.756440 -0.793905
H87   H     H_    0.671952 0.633236 0.743453 0.269244
H88   H     H_    0.633808 0.539011 0.755708 0.225249
H89   H     H_    0.654690 0.560927 0.840223 0.293136
H90   H     H_    0.743941 0.489822 0.619834 0.159325
H91   H     H_    0.760338 0.498236 0.710159 0.214318
C111  C     C_3   0.219548 0.321333 0.294528 -0.405499
C112  C     C_3   0.193758 0.256330 0.261500 -0.841610
H92   H     H_    0.183658 0.200833 0.304999 0.243639
H93   H     H_    0.143257 0.272007 0.282197 0.259039
H94   H     H_    0.234773 0.244104 0.171889 0.245021
H95   H     H_    0.242873 0.370540 0.236849 0.205540
H96   H     H_    0.264474 0.297924 0.285318 0.193591

loop_
_geom_bond_atom_site_label_1
_geom_bond_atom_site_label_2
_geom_bond_distance
_ccdc_geom_bond_type
N19   Ni1   1.911691 S    
C17   C41   1.372682 A    
N5    N31   1.382352 A    
N5    Ni3   1.908151 S    
C99   H65   1.087219 S    
C109  H91   1.092705 S    
N4    N26   1.382363 A    
C62   C77   1.539282 S    
C14   C46   1.368928 A    
C97   C98   1.534011 S    
C52   C64   1.545481 S    
C53   C77   1.529589 S    
C104  H72   1.096486 S    
C10   H2    1.079710 S    
C102  H69   1.109314 S    
C24   N24   1.359568 A    
N7    Ni4   1.907974 S    
C72   C76   1.530030 S    
N11   Ni6   1.862139 S    
C65   C77   1.537482 S    
C86   C94   1.342799 D    
C80   H40   1.108751 S    
C42   C67   1.464807 S    
C66   C78   1.530125 S    
C104  H74   1.107555 S    
N15   Ni8   1.862139 S    
C31   N31   1.335725 A    
C107  C108  1.534048 S    
C71   C75   1.537817 S    
C12   C44   1.368869 A    
N10   Ni6   1.862230 S    
C98   H58   1.109892 S    
C83   H52   1.088733 S    
C82   C90   1.342698 D    
N3    Ni2   1.907974 S    
N9    Ni5   1.862230 S    
H45   C94   1.085296 S    
C56   C71   1.536102 S    
C87   C95   1.334348 D    
C102  H68   1.109939 S    
C81   H50   1.088736 S    
C36   C82   1.474333 S    
C16   C48   1.368869 A    
C64   H24   1.109738 S    
C112  H93   1.106501 S    
C9    C41   1.357387 A    
C52   C76   1.547954 S    
C84   H51   1.085792 S    
C1    C33   1.395518 A    
C109  C110  1.534027 S    
C14   N14   1.329178 A    
C23   C47   1.372660 A    
C85   H54   1.088735 S    
C105  H80   1.113114 S    
C100  H64   1.108214 S    
C40   C86   1.474500 S    
C110  H87   1.104560 S    
C30   H14   1.081226 S    
C106  H79   1.109353 S    
C50   H26   1.104997 S    
C107  H86   1.105378 S    
C51   C68   1.532750 S    
N2    Ni2   1.908151 S    
C70   C74   1.530491 S    
H42   C89   1.083220 S    
N14   Ni8   1.862230 S    
C29   C39   1.372158 A    
C27   H11   1.078763 S    
C48   C69   1.464581 S    
N2    N28   1.382355 A    
C26   H10   1.081225 S    
N15   N23   1.372379 A    
C29   N29   1.335434 A    
C99   C100  1.534103 S    
N16   N24   1.372381 A    
C98   H59   1.109339 S    
C64   C72   1.526824 S    
C18   C42   1.390289 A    
C97   H60   1.113081 S    
C56   C80   1.547946 S    
C18   C99   1.505428 S    
C53   C70   1.532853 S    
N6    N32   1.382355 A    
C4    N4    1.346903 A    
C11   H3    1.080573 S    
C54   C58   1.545638 S    
C5    N5    1.354165 A    
C23   C109  1.518050 S    
N12   N20   1.372381 A    
C92   C95   1.450762 S    
C53   C57   1.541212 S    
C5    C37   1.395298 A    
C84   C92   1.343126 D    
C7    N7    1.354288 A    
C50   C65   1.535419 S    
C49   C66   1.532750 S    
C21   N21   1.357303 A    
N14   N22   1.372380 A    
C8    N8    1.346925 A    
C108  H82   1.096327 S    
C31   C37   1.372555 A    
C111  H96   1.105339 S    
C32   N32   1.350626 A    
C49   C61   1.541451 S    
C106  H77   1.104505 S    
H46   C93   1.083250 S    
C21   C105  1.517956 S    
C56   H32   1.104641 S    
C44   C65   1.464008 S    
C101  H71   1.092908 S    
C17   N17   1.357366 A    
N31   Ni7   1.861179 S    
C34   C84   1.475463 S    
C89   C94   1.450721 S    
N21   Ni4   1.911870 S    
N28   Ni6   1.861180 S    
C63   C71   1.532015 S    
C39   C85   1.456353 S    
C7    C39   1.395648 A    
C32   C38   1.373065 A    
N10   N18   1.372380 A    
C98   H57   1.104459 S    
H48   C95   1.083117 S    
C53   H29   1.110492 S    
N13   N21   1.372382 A    
C10   C42   1.368897 A    
N17   Ni2   1.911870 S    
C112  H92   1.096075 S    
C59   H19   1.109911 S    
C102  H67   1.104524 S    
C51   H27   1.110435 S    
N3    N25   1.382366 A    
C25   H9    1.078776 S    
C87   H56   1.088728 S    
N13   Ni7   1.862230 S    
C88   H55   1.085753 S    
C49   H25   1.110446 S    
C12   H4    1.079681 S    
C62   C70   1.527130 S    
C111  C112  1.533921 S    
C6    I6    2.149830 S    
C13   H5    1.080579 S    
C59   C76   1.551218 S    
C28   N28   1.350774 A    
C3    I3    2.125204 S    
C4    I4    2.149636 S    
C55   H31   1.110433 S    
C55   C79   1.529836 S    
N12   Ni5   1.862139 S    
C2    I2    2.150391 S    
C22   C107  1.505548 S    
C107  H85   1.087306 S    
C105  H81   1.092871 S    
C54   C69   1.535960 S    
C61   C69   1.532048 S    
C101  C102  1.534039 S    
C16   H8    1.079691 S    
C105  C106  1.534037 S    
C26   C36   1.372928 A    
C6    N6    1.346931 A    
C43   C66   1.453090 S    
C51   C75   1.529797 S    
C15   C47   1.357227 A    
H47   C96   1.085133 S    
C4    C36   1.373168 A    
C103  H76   1.105305 S    
C41   C68   1.453123 S    
C49   C73   1.529760 S    
C22   N22   1.359662 A    
C38   C88   1.474604 S    
C25   C35   1.372121 A    
C100  H62   1.096035 S    
C97   H61   1.092510 S    
C1    N1    1.354206 A    
C9    N9    1.326942 A    
C106  H78   1.109942 S    
C10   N10   1.329195 A    
N4    Ni1   1.907975 S    
C61   C78   1.551142 S    
C45   C72   1.453097 S    
C28   C34   1.373595 A    
C55   C72   1.532741 S    
C18   N18   1.359700 A    
N26   Ni5   1.861270 S    
C57   H17   1.109935 S    
C58   C66   1.526884 S    
N25   Ni6   1.861270 S    
C77   H37   1.111104 S    
C59   C67   1.532050 S    
C21   C45   1.372710 A    
C109  H90   1.113142 S    
C108  H83   1.106474 S    
N11   N19   1.372379 A    
C74   H34   1.108696 S    
C57   C65   1.532042 S    
N22   Ni3   1.911872 S    
C2    C34   1.373557 A    
C20   C103  1.506053 S    
C46   C71   1.464724 S    
C17   C97   1.517736 S    
C2    N2    1.346960 A    
C24   C111  1.505555 S    
C27   N27   1.335513 A    
C6    C38   1.373279 A    
C56   C60   1.545563 S    
C90   C93   1.450684 S    
C75   H35   1.111112 S    
C26   N26   1.350594 A    
C23   N23   1.357781 A    
C91   C96   1.450666 S    
N29   Ni8   1.861270 S    
C22   C46   1.390285 A    
C63   C80   1.551186 S    
C88   C96   1.342771 D    
C54   H30   1.104665 S    
C68   C80   1.530071 S    
C100  H63   1.106101 S    
N18   Ni1   1.911872 S    
N1    Ni1   1.908151 S    
C24   C48   1.390372 A    
N30   Ni7   1.861270 S    
C25   N25   1.335460 A    
C30   N30   1.350655 A    
C11   C43   1.357377 A    
C27   C33   1.372242 A    
C58   C73   1.539002 S    
C99   H66   1.105371 S    
C54   C78   1.547962 S    
C20   C44   1.390687 A    
C60   C75   1.538981 S    
C5    I5    2.124862 S    
C104  H73   1.107532 S    
N8    Ni3   1.907975 S    
N6    Ni4   1.908151 S    
C69   C73   1.537743 S    
C3    N3    1.354461 A    
C50   C74   1.547966 S    
C76   H36   1.108764 S    
C78   H38   1.108742 S    
C13   C45   1.357430 A    
C51   C63   1.541515 S    
C110  H89   1.109251 S    
C29   H13   1.078819 S    
C83   C91   1.333979 D    
C52   C67   1.536161 S    
C19   C101  1.518045 S    
C9    H1    1.080576 S    
C62   H22   1.109778 S    
C14   H6    1.079701 S    
C101  H70   1.113124 S    
C37   C87   1.456589 S    
N16   Ni7   1.862139 S    
C3    C35   1.395627 A    
C20   N20   1.359155 A    
C67   C79   1.537830 S    
N7    N29   1.382366 A    
C30   C40   1.373005 A    
C103  H75   1.087221 S    
C19   N19   1.357398 A    
C15   N15   1.327014 A    
C35   C81   1.456444 S    
C82   H49   1.085737 S    
N20   Ni2   1.911688 S    
C16   N16   1.329117 A    
C73   H33   1.111111 S    
C110  H88   1.109944 S    
C81   C89   1.333910 D    
N8    N30   1.382363 A    
C33   C83   1.456357 S    
C58   H18   1.109740 S    
C7    I7    2.125056 S    
C103  C104  1.533414 S    
C112  H94   1.108091 S    
C19   C43   1.372678 A    
C52   H28   1.104606 S    
C57   C74   1.550950 S    
C8    I8    2.149688 S    
C86   H53   1.085747 S    
C85   C93   1.333855 D    
C64   C79   1.538939 S    
C12   N12   1.328865 A    
C13   N13   1.326904 A    
C28   H12   1.081235 S    
C47   C70   1.453247 S    
C55   C59   1.541547 S    
H44   C91   1.083219 S    
C108  H84   1.108340 S    
N23   Ni3   1.911691 S    
H43   C92   1.084454 S    
N27   Ni5   1.861179 S    
N24   Ni4   1.911688 S    
C1    I1    2.124940 S    
N32   Ni8   1.861180 S    
C11   N11   1.326921 A    
N1    N27   1.382352 A    
C8    C40   1.373159 A    
H41   C90   1.085397 S    
C60   H20   1.109742 S    
C61   H21   1.109909 S    
N9    N17   1.372382 A    
C31   H15   1.078757 S    
C50   C62   1.546192 S    
C111  H95   1.087205 S    
C32   H16   1.081230 S    
C79   H39   1.111112 S    
C60   C68   1.526850 S    
C15   H7    1.080590 S    
C63   H23   1.109914 S    
