data_mof_unit_43311.cif
_audit_creation_date              2012-12-10T20:30:13-0500
_audit_creation_method            fapswitch 2.2
_symmetry_space_group_name_H-M    P1
_symmetry_Int_Tables_number       1
_space_group_crystal_system       triclinic
_cell_length_a                    9.862992
_cell_length_b                    10.663041
_cell_length_c                    13.119447
_cell_angle_alpha                 90.11352
_cell_angle_beta                  69.263749
_cell_angle_gamma                 90.329702
_cell_volume                      1290.36322408

loop_
_atom_site_label
_atom_site_type_symbol
_atom_type_description
_atom_site_fract_x
_atom_site_fract_y
_atom_site_fract_z
_atom_type_partial_charge
C1    C     C_R   0.500107 0.739876 0.500370 0.872240
C2    C     C_R   0.361883 0.505695 0.825586 -0.163209
C3    C     C_R   0.404943 0.936311 0.466279 0.104586
C4    C     C_R   0.418084 0.502823 0.705305 0.846472
C5    C     C_R   0.495366 0.871734 0.508147 -0.106057
C6    C     C_R   0.571259 0.935557 0.564775 -0.242109
C7    C     C_R   0.569461 0.065441 0.566620 -0.229834
C8    C     C_R   0.488517 0.128836 0.514287 -0.102789
C9    C     C_R   0.395790 0.063698 0.473935 0.105020
C10   C     C_3   0.374735 0.077853 0.367035 -0.509347
C11   C     C_3   0.393610 0.936226 0.354869 -0.125977
C12   C     C_R   0.430843 0.511498 0.986415 0.084964
C13   C     C_R   0.898274 0.580263 0.566131 0.252006
C14   C     C_R   0.954941 0.413788 0.441816 -0.142454
C15   C     C_R   0.098956 0.413851 0.441715 -0.142163
C16   C     C_R   0.497991 0.260295 0.502904 0.868839
C17   C     C_R   0.040736 0.579816 0.566500 0.192355
C18   C     C_3   0.049626 0.719275 0.563399 -0.503036
C19   C     C_3   0.896766 0.720036 0.561896 -0.532166
C20   C     C_R   0.581038 0.498940 0.295393 0.860267
C21   C     C_R   0.778577 0.617857 0.013846 -0.230741
C22   C     C_R   0.631778 0.510335 0.177620 -0.064313
C23   C     C_R   0.455444 0.549902 0.878788 0.065469
C24   C     C_R   0.225452 0.450664 0.888605 0.099958
C25   C     C_R   0.192157 0.434260 0.000482 -0.180067
C26   C     C_R   0.294113 0.460133 0.048162 -0.234164
C27   C     C_3   0.529718 0.894323 0.258189 -0.352226
C28   C     C_3   0.676987 0.943149 0.259758 -0.302172
C29   C     C_3   0.793962 0.939510 0.146543 -0.923087
C30   C     C_3   0.113841 0.404493 0.841624 -0.403156
C31   C     C_3   0.154839 0.275341 0.787729 -0.306895
C32   C     C_3   0.053179 0.235981 0.728615 -0.849467
C33   C     C_R   0.543257 0.528157 0.028732 0.088592
C34   C     C_R   0.669049 0.598706 0.970125 0.183587
C35   C     C_R   0.680877 0.652768 0.870921 -0.268364
C36   C     C_R   0.574420 0.630302 0.826506 -0.191437
C37   C     C_R   0.533869 0.476188 0.128152 -0.259443
C38   C     C_R   0.758268 0.576381 0.119068 -0.222524
H1    H     H_    0.836092 0.602287 0.156626 0.161166
H2    H     H_    0.817630 0.761698 0.636647 0.184752
H3    H     H_    0.772729 0.712045 0.827566 0.141446
H4    H     H_    0.890525 0.756132 0.484210 0.219727
H5    H     H_    0.875404 0.671051 0.969390 0.138840
H6    H     H_    0.445974 0.414190 0.172427 0.141982
H7    H     H_    0.260919 0.442312 0.134482 0.140834
H8    H     H_    0.088616 0.394873 0.050930 0.142286
H9    H     H_    0.585343 0.677481 0.751119 0.158258
H10   H     H_    0.635295 0.885858 0.603471 0.156484
H11   H     H_    0.808639 0.842426 0.114669 0.271594
H12   H     H_    0.634666 0.115785 0.604714 0.167390
H13   H     H_    0.764090 0.001043 0.089666 0.263109
H14   H     H_    0.898429 0.973215 0.151056 0.249705
H15   H     H_    0.669516 0.041020 0.289729 0.227223
H16   H     H_    0.713032 0.883753 0.314657 0.220765
H17   H     H_    0.532302 0.790133 0.256074 0.191974
H18   H     H_    0.514693 0.925646 0.182109 0.211450
H19   H     H_    0.939615 0.230746 0.786754 0.250910
H20   H     H_    0.059802 0.304187 0.663197 0.271115
H21   H     H_    0.085146 0.142240 0.691007 0.243187
H22   H     H_    0.267696 0.275712 0.728503 0.227747
H23   H     H_    0.262609 0.108265 0.378637 0.179669
H24   H     H_    0.148404 0.204494 0.851365 0.207475
H25   H     H_    0.005801 0.395104 0.907461 0.192084
H26   H     H_    0.096607 0.474919 0.785387 0.220738
H27   H     H_    0.459955 0.135536 0.306825 0.192324
H28   H     H_    0.293278 0.888662 0.354484 0.145708
H29   H     H_    0.923200 0.345969 0.392928 0.145677
H30   H     H_    0.175919 0.346127 0.392713 0.144101
H31   H     H_    0.057797 0.758950 0.639449 0.194477
H32   H     H_    0.131251 0.755230 0.486750 0.216328
N1    N     N_R   0.856940 0.500860 0.500710 -0.103795
N2    N     N_R   0.142580 0.500820 0.500710 -0.104033
O1    O     O_R   0.385310 0.683210 0.499990 -0.616573
O2    O     O_R   0.614650 0.683240 0.500000 -0.626550
O3    O     O_R   0.328390 0.499940 0.653610 -0.608440
O4    O     O_R   0.557730 0.499980 0.653620 -0.603605
O5    O     O_R   0.385350 0.316760 0.500000 -0.612457
O6    O     O_R   0.614690 0.316790 0.500010 -0.619311
O7    O     O_R   0.442270 0.500020 0.346380 -0.611208
O8    O     O_R   0.671610 0.500060 0.346390 -0.612043
Zn1   Zn    Zn3+2 0.346870 0.499980 0.499990 0.927615
Zn2   Zn    Zn3+2 0.653130 0.500020 0.500010 0.932713

loop_
_geom_bond_atom_site_label_1
_geom_bond_atom_site_label_2
_ccdc_geom_bond_type
C18   H32   S    
C30   H26   S    
C14   N1    A    
C35   C36   A    
C32   H20   S    
C7    C8    A    
C29   H11   S    
C15   N2    A    
C12   C23   A    
C6    H10   S    
C1    C5    S    
C1    O2    A    
C28   C29   S    
C34   C35   A    
C30   C31   S    
C27   H17   S    
C22   C38   A    
C36   H9    S    
C18   C19   S    
C4    O3    A    
C26   H7    S    
C21   H5    S    
C21   C38   A    
C8    C9    A    
C14   H29   S    
O5    Zn1   S    
C9    C10   S    
N2    Zn1   S    
C11   H28   S    
N1    Zn2   S    
C18   H31   S    
C8    C16   S    
C30   H25   S    
C31   H24   S    
C32   H19   S    
O2    Zn2   S    
O1    Zn1   S    
C33   C34   A    
C13   C19   S    
C24   C25   A    
O8    Zn2   S    
C19   H2    S    
O4    Zn2   S    
O7    Zn1   S    
C20   O8    A    
C27   H18   S    
O3    Zn1   S    
C21   C34   A    
C13   N1    A    
C25   C26   A    
C22   C37   A    
C33   C37   A    
C12   C26   A    
C31   H22   S    
C2    C4    S    
C3    C9    A    
O6    Zn2   S    
C31   C32   S    
C11   C27   S    
C17   C18   S    
C20   C22   S    
C2    C24   A    
C10   H23   S    
C27   C28   S    
C29   H13   S    
C10   H27   S    
C28   H16   S    
C20   O7    A    
C7    H12   S    
C3    C5    A    
C28   H15   S    
C19   H4    S    
C6    C7    A    
C13   C17   A    
C1    O1    A    
C37   H6    S    
C38   H1    S    
C15   H30   S    
C16   O6    A    
C35   H3    S    
C24   C30   S    
C4    O4    A    
C3    C11   S    
C10   C11   S    
C17   N2    A    
C23   C36   A    
C2    C23   A    
C5    C6    A    
C14   C15   A    
C16   O5    A    
C32   H21   S    
C12   C33   A    
C25   H8    S    
C29   H14   S    
