data_mof_unit_12349.cif
_audit_creation_date              2012-12-11T15:12:40-0500
_audit_creation_method            fapswitch 2.2
_symmetry_space_group_name_H-M    P1
_symmetry_Int_Tables_number       1
_space_group_crystal_system       triclinic
_cell_length_a                    22.34825
_cell_length_b                    6.973708
_cell_length_c                    19.312979
_cell_angle_alpha                 89.963044
_cell_angle_beta                  99.298139
_cell_angle_gamma                 90.069176
_cell_volume                      2970.38099315

loop_
_atom_site_label
_atom_site_type_symbol
_atom_type_description
_atom_site_fract_x
_atom_site_fract_y
_atom_site_fract_z
_atom_type_partial_charge
O1    O     O_R   0.448420 0.506120 0.415750 -0.535776
O2    O     O_R   0.551580 0.006120 0.584250 -0.536101
O3    O     O_R   0.436490 0.174470 0.555610 -0.538972
O4    O     O_R   0.563510 0.674470 0.444390 -0.538945
C1    C     C_R   0.421603 0.343824 0.576312 0.711031
C2    C     C_R   0.578380 0.844058 0.423718 0.712899
O5    O     O_R   0.441310 0.176330 0.414520 -0.536470
O6    O     O_R   0.558690 0.676330 0.585480 -0.535854
O7    O     O_R   0.556430 0.007110 0.442150 -0.531235
O8    O     O_R   0.443570 0.507110 0.557850 -0.531685
C3    C     C_R   0.427035 0.344933 0.388149 0.711609
C4    C     C_R   0.572972 0.845005 0.611835 0.711300
O9    O     O_3   0.537770 0.339560 0.509230 -0.365669
O10   O     O_3   0.462230 0.839560 0.490770 -0.367260
V1    V     V_3+5 0.492990 0.064280 0.498290 1.472031
V2    V     V_3+5 0.507010 0.564280 0.501710 1.474138
C5    C     C_R   0.866887 0.978178 0.694692 -0.150234
C6    C     C_R   0.133554 0.484504 0.304973 -0.149243
H1    H     H_    0.954209 0.006180 0.758773 0.109521
H2    H     H_    0.046248 0.512384 0.240914 0.109503
H3    H     H_    0.784035 0.975448 0.579878 0.169470
H4    H     H_    0.216550 0.485406 0.419556 0.176320
H5    H     H_    0.884986 0.006440 0.646893 0.122189
H6    H     H_    0.115638 0.515763 0.352641 0.124059
C7    C     C_R   0.884844 0.941298 0.820942 -0.045025
C8    C     C_R   0.115248 0.441840 0.178991 -0.044957
C9    C     C_R   0.590453 0.818130 0.740661 -0.254574
C10   C     C_R   0.409371 0.314135 0.259459 -0.250023
C11   C     C_R   0.627591 0.816742 0.806414 0.465530
C12   C     C_R   0.372174 0.310999 0.193798 0.463146
C13   C     C_R   0.690026 0.841816 0.811120 -0.211790
C14   C     C_R   0.309815 0.337800 0.188975 -0.213958
C15   C     C_R   0.717020 0.877867 0.751093 0.011664
C16   C     C_R   0.282997 0.377215 0.248851 0.012720
C17   C     C_R   0.678427 0.883414 0.684255 0.052375
C18   C     C_R   0.321694 0.384752 0.315608 0.052202
C19   C     C_R   0.781047 0.908446 0.755342 0.102702
C20   C     C_R   0.219052 0.409197 0.244549 0.102798
C21   C     C_R   0.804637 0.944616 0.692518 0.120135
C22   C     C_R   0.195684 0.449195 0.307201 0.119066
C23   C     C_R   0.766065 0.948319 0.627831 -0.176866
C24   C     C_R   0.234363 0.455094 0.371776 -0.174546
C25   C     C_R   0.704084 0.918041 0.623631 -0.151743
C26   C     C_R   0.296233 0.423048 0.376067 -0.154056
C27   C     C_R   0.822690 0.906293 0.819579 -0.209761
C28   C     C_R   0.177284 0.404907 0.180421 -0.210404
C29   C     C_R   0.906476 0.977707 0.758328 -0.164191
C30   C     C_R   0.093865 0.482165 0.241431 -0.164494
C31   C     C_R   0.614938 0.852007 0.679530 -0.136743
C32   C     C_R   0.385076 0.351514 0.320437 -0.137593
H7    H     H_    0.808472 0.880810 0.869489 0.094438
H8    H     H_    0.191344 0.376583 0.130633 0.094006
H9    H     H_    0.542286 0.791144 0.737268 0.129817
H10   H     H_    0.457448 0.285840 0.262864 0.132310
H11   H     H_    0.715991 0.833805 0.863089 0.130891
H12   H     H_    0.283783 0.328363 0.137073 0.129472
H13   H     H_    0.676310 0.922561 0.572232 0.123926
H14   H     H_    0.324083 0.429248 0.427395 0.123452
C33   C     C_3   0.804440 0.752467 0.255590 -0.334867
C34   C     C_3   0.198966 0.239731 0.750294 -0.335760
C35   C     C_3   0.783097 0.109638 0.247003 -0.413151
C36   C     C_3   0.211611 0.602053 0.745913 -0.416439
C37   C     C_3   0.743188 0.074178 0.306662 -0.031699
C38   C     C_3   0.250283 0.560323 0.685629 -0.035889
H15   H     H_    0.771072 0.685453 0.353946 0.183199
H16   H     H_    0.231502 0.161349 0.652999 0.183460
H17   H     H_    0.846912 0.785071 0.292278 0.181774
H18   H     H_    0.155186 0.253919 0.714007 0.181454
H19   H     H_    0.762423 0.223074 0.210152 0.165685
H20   H     H_    0.231231 0.726226 0.778107 0.154133
H21   H     H_    0.828919 0.166216 0.267636 0.180085
H22   H     H_    0.164490 0.646860 0.725195 0.182887
C39   C     C_1   0.623050 0.850685 0.376931 -0.101049
C40   C     C_1   0.376700 0.349930 0.622887 -0.117438
C41   C     C_3   0.788408 0.922782 0.204107 0.237079
C42   C     C_3   0.211260 0.424238 0.795357 0.249616
C43   C     C_3   0.752355 0.712768 0.297914 -0.369957
C44   C     C_3   0.250897 0.202401 0.707559 -0.371638
C45   C     C_3   0.705947 0.880617 0.289003 0.080772
C46   C     C_3   0.292958 0.381170 0.709656 0.085279
C47   C     C_3   0.675201 0.877199 0.208948 -0.142600
C48   C     C_3   0.324309 0.405430 0.788952 -0.130655
C49   C     C_3   0.725181 0.883504 0.160381 -0.375258
C50   C     C_3   0.275669 0.407151 0.838828 -0.393045
C51   C     C_1   0.660109 0.858435 0.337306 0.031575
C52   C     C_1   0.339305 0.357890 0.662103 0.013931
C53   C     C_1   0.835454 0.938356 0.157581 -0.059541
C54   C     C_1   0.164460 0.439985 0.842188 -0.058167
C55   C     C_1   0.874253 0.943823 0.120071 -0.187175
C56   C     C_1   0.125745 0.444849 0.879838 -0.189669
H23   H     H_    0.727906 0.747875 0.130985 0.194233
H24   H     H_    0.278022 0.275079 0.871532 0.179973
H25   H     H_    0.713708 0.997889 0.120192 0.142676
H26   H     H_    0.284573 0.529918 0.875914 0.140956
H27   H     H_    0.813039 0.620583 0.226240 0.147683
H28   H     H_    0.194575 0.113515 0.784481 0.148770
H29   H     H_    0.729361 0.580529 0.277157 0.202831
H30   H     H_    0.277053 0.078505 0.730698 0.231919
H31   H     H_    0.647204 0.007184 0.196891 0.155068
H32   H     H_    0.347236 0.546245 0.795371 0.172088
O11   O     O_R   0.056480 0.288780 0.942210 -0.535543
O12   O     O_R   0.943520 0.788780 0.057790 -0.535554
O13   O     O_R   0.058700 0.616820 0.085490 -0.537569
O14   O     O_R   0.941300 0.116820 0.914510 -0.537421
C57   C     C_R   0.072863 0.448556 0.111971 0.694061
C58   C     C_R   0.927188 0.948491 0.887992 0.694369
O15   O     O_R   0.063520 0.618570 0.944410 -0.536778
O16   O     O_R   0.936480 0.118570 0.055590 -0.536507
O17   O     O_R   0.948420 0.787670 0.915740 -0.535114
O18   O     O_R   0.051580 0.287670 0.084260 -0.535278
C59   C     C_R   0.079171 0.450538 0.924386 0.724920
C60   C     C_R   0.920853 0.950287 0.075610 0.725115
O19   O     O_3   0.962260 0.453430 0.990800 -0.366742
O20   O     O_3   0.037740 0.953430 0.009200 -0.367185
V3    V     V_3+5 0.007000 0.728750 0.001710 1.429985
V4    V     V_3+5 0.993000 0.228750 0.998290 1.430441
C61   C     C_2   0.784118 0.057440 0.378887 0.772174
O21   O     O_2   0.761478 0.021551 0.431083 -0.559505
O22   O     O_R   0.847028 0.081072 0.386187 -0.678158
H33   H     H_    0.868048 0.065177 0.436454 0.294194
C62   C     C_2   0.208218 0.514493 0.616141 0.780609
O23   O     O_2   0.230326 0.470770 0.564330 -0.565210
O24   O     O_R   0.145053 0.521015 0.610911 -0.675639
H34   H     H_    0.123314 0.486824 0.562268 0.295391
C63   C     C_2   0.699879 0.242638 0.310828 0.683679
O25   O     O_2   0.664057 0.291272 0.259220 -0.572221
O26   O     O_R   0.699607 0.339976 0.374241 -0.648405
H35   H     H_    0.667280 0.442934 0.370563 0.301970
C64   C     C_2   0.287549 0.737087 0.671512 0.692733
O27   O     O_2   0.330919 0.788609 0.714267 -0.571582
O28   O     O_R   0.273847 0.837429 0.608031 -0.651294
H36   H     H_    0.303621 0.944914 0.603704 0.299933
C65   C     C_2   0.630480 0.712573 0.190488 0.779451
O29   O     O_2   0.583003 0.711565 0.214345 -0.567582
O30   O     O_R   0.641748 0.566100 0.144818 -0.659572
H37   H     H_    0.607594 0.468856 0.136062 0.305405
C66   C     C_2   0.373907 0.259706 0.812825 0.754035
O31   O     O_2   0.427083 0.308424 0.818535 -0.571564
O32   O     O_R   0.359443 0.072037 0.829680 -0.657043
H38   H     H_    0.396716 0.990150 0.844845 0.298705
O33   O     O_3   0.604604 0.777358 0.867267 -0.569700
C67   C     C_3   0.561339 0.916794 0.878840 0.084742
H39   H     H_    0.515169 0.856690 0.862021 0.144196
H40   H     H_    0.565110 0.054299 0.850009 0.130628
C68   C     C_3   0.570242 0.962558 0.957232 -0.298528
H41   H     H_    0.568924 0.827885 0.987646 0.218107
H42   H     H_    0.615520 0.029634 0.973218 0.196267
C69   C     C_3   0.521533 0.098810 0.974752 -0.810339
H43   H     H_    0.522914 0.236079 0.945842 0.264112
H44   H     H_    0.529591 0.129379 0.031932 0.230474
H45   H     H_    0.475931 0.032962 0.960565 0.234287
O34   O     O_3   0.395165 0.268136 0.133297 -0.573095
C70   C     C_3   0.437010 0.410155 0.119506 0.077896
H46   H     H_    0.483600 0.350735 0.132825 0.147810
H47   H     H_    0.434909 0.545928 0.149828 0.131813
C71   C     C_3   0.424045 0.460016 0.041416 -0.299872
H48   H     H_    0.423870 0.327128 0.009732 0.218358
H49   H     H_    0.378405 0.526660 0.028940 0.193556
C72   C     C_3   0.471184 0.598616 0.021288 -0.809606
H50   H     H_    0.471159 0.734359 0.051355 0.247974
H51   H     H_    0.460340 0.631822 0.964391 0.241247
H52   H     H_    0.517052 0.533385 0.032152 0.234286

loop_
_geom_bond_atom_site_label_1
_geom_bond_atom_site_label_2
_ccdc_geom_bond_type
C12   C14   A    
C57   O18   A    
O18   V4    S    
C9    C11   A    
C23   C25   A    
O12   C60   A    
O1    C3    A    
C69   H45   S    
O2    C4    A    
C33   C43   S    
C2    O7    A    
O14   C58   A    
O20   V3    S    
O3    V1    S    
O24   H34   S    
C21   C23   A    
C37   C45   S    
C35   C41   S    
O5    C3    A    
C66   O32   S    
C55   C60   S    
C34   C44   S    
C5    H5    S    
C33   H27   S    
C6    H6    S    
C17   C31   A    
C71   H48   S    
C69   H44   S    
C48   C66   S    
C61   O22   S    
C37   C61   S    
C44   C46   S    
C27   H7    S    
C7    C27   A    
C38   C62   S    
C49   H25   S    
C28   H8    S    
C36   H20   S    
C64   O28   S    
C5    C21   A    
C1    C40   S    
C35   C37   S    
C6    C22   A    
C46   C52   S    
O12   V3    S    
C47   C49   S    
O14   V4    S    
C10   C32   A    
C71   H49   S    
C67   H39   S    
C26   H14   S    
C44   H30   S    
C36   C38   S    
C72   H51   S    
C43   H29   S    
C70   H47   S    
C17   C25   A    
C7    C29   A    
C16   C18   A    
C8    C30   A    
O19   V4    S    
C33   H17   S    
C35   H21   S    
C22   C24   A    
O6    V2    S    
C38   C46   S    
C67   C68   S    
C42   C50   S    
C24   C26   A    
C56   C59   S    
C8    C57   S    
C68   H42   S    
C7    C58   S    
C68   H41   S    
C43   C45   S    
H16   C44   S    
H15   C43   S    
O30   H37   S    
C69   H43   S    
H2    C30   S    
C46   C48   S    
C45   C47   S    
C10   H10   S    
O5    V1    S    
C47   H31   S    
C34   C42   S    
C15   C19   A    
O16   C60   A    
C14   C16   A    
O4    V2    S    
O13   V3    S    
C4    C31   S    
C25   H13   S    
C12   O34   S    
C72   H50   S    
O6    C4    A    
C11   O33   S    
C13   C15   A    
C72   H52   S    
C36   H22   S    
O13   C57   A    
O1    V2    S    
C50   H26   S    
C40   C52   T    
C70   C71   S    
O2    V1    S    
O15   V3    S    
C62   O23   D    
C37   C63   S    
H3    C23   S    
C34   H28   S    
C41   C53   S    
C54   C56   T    
C48   C50   S    
C53   C55   T    
C65   O29   D    
O10   V2    S    
C18   C26   A    
O4    C2    A    
C19   C27   A    
O26   H35   S    
C33   C41   S    
C45   C51   S    
C68   C69   S    
C18   C32   A    
C2    C39   S    
C63   O26   S    
C64   O27   D    
C39   C51   T    
C35   H19   S    
C42   C54   S    
C36   C42   S    
C16   C20   A    
O15   C59   A    
C71   C72   S    
C5    C29   A    
O3    C1    A    
C6    C30   A    
O20   V4    S    
O32   H38   S    
C9    H9    S    
C47   C65   S    
O11   C59   A    
C49   H23   S    
C66   O31   D    
O16   V4    S    
O9    V1    S    
O7    V1    S    
C10   C12   A    
C11   C13   A    
C3    C32   S    
O8    V2    S    
C61   O21   D    
C20   C28   A    
C20   C22   A    
C41   C49   S    
C63   O25   D    
C48   H32   S    
C15   C17   A    
H1    C29   S    
C67   H40   S    
C62   O24   S    
O17   V3    S    
C9    C31   A    
C1    O8    A    
C38   C64   S    
C34   H18   S    
C19   C21   A    
O22   H33   S    
O9    V2    S    
H4    C24   S    
C65   O30   S    
O11   V4    S    
O10   V1    S    
O34   C70   S    
C50   H24   S    
C13   H11   S    
C70   H46   S    
O33   C67   S    
C8    C28   A    
C14   H12   S    
O28   H36   S    
O19   V3    S    
C58   O17   A    
