data_mof_unit_6993.cif
_audit_creation_date              2012-12-10T17:13:18-0500
_audit_creation_method            fapswitch 2.2
_symmetry_space_group_name_H-M    P1
_symmetry_Int_Tables_number       1
_space_group_crystal_system       triclinic
_cell_length_a                    18.231883
_cell_length_b                    18.295461
_cell_length_c                    18.249737
_cell_angle_alpha                 119.892275
_cell_angle_beta                  90.12127
_cell_angle_gamma                 120.066785
_cell_volume                      4302.52212057

loop_
_atom_site_label
_atom_site_type_symbol
_atom_type_description
_atom_site_fract_x
_atom_site_fract_y
_atom_site_fract_z
_atom_type_partial_charge
C1    C     C_R   0.640701 0.780577 0.643987 0.797487
C2    C     C_R   0.330597 0.895628 0.240917 -0.172641
C3    C     C_R   0.291575 0.947122 0.246234 0.106043
C4    C     C_R   0.359568 0.220175 0.360015 0.809893
C5    C     C_R   0.345977 0.056527 0.300258 0.102218
C6    C     C_R   0.307558 0.108287 0.303881 -0.057082
C7    C     C_R   0.218423 0.052921 0.252153 -0.185371
C8    C     C_R   0.165345 0.945767 0.198637 -0.146965
C9    C     C_R   0.200493 0.892482 0.196462 -0.053615
C10   C     C_R   0.759533 0.694674 0.366282 -0.075533
C11   C     C_R   0.829276 0.787272 0.378725 -0.065296
C12   C     C_3   0.735548 0.528665 0.827633 -0.139129
C13   C     C_R   0.877425 0.781845 0.319275 -0.109261
C14   C     C_R   0.859930 0.687627 0.249958 -0.139670
C15   C     C_R   0.805650 0.597846 0.249858 -0.019899
C16   C     C_R   0.359249 0.498906 0.639030 0.855745
C17   C     C_R   0.752758 0.600665 0.307535 0.105605
C18   C     C_R   0.694927 0.508859 0.303356 -0.061206
C19   C     C_R   0.688322 0.418584 0.244059 -0.238892
C20   C     C_R   0.742497 0.415954 0.191343 -0.042150
C21   C     C_R   0.802231 0.505763 0.194666 -0.170192
C22   C     C_R   0.842903 0.915829 0.745144 -0.029627
C23   C     C_3   0.663394 0.432451 0.734642 -0.117753
C24   C     C_R   0.930283 0.959655 0.741265 -0.277822
C25   C     C_R   0.969457 0.039656 0.729718 -0.040566
C26   C     C_R   0.926845 0.089246 0.738205 -0.069967
C27   C     C_R   0.842498 0.051667 0.752909 -0.013030
C28   C     C_R   0.640004 0.501738 0.360100 0.853700
C29   C     C_R   0.793639 0.952506 0.734974 0.042484
C30   C     C_R   0.698196 0.894220 0.703478 -0.060300
C31   C     C_R   0.656983 0.944255 0.713315 -0.174426
C32   C     C_R   0.707821 0.050332 0.754189 -0.032806
C33   C     C_R   0.802867 0.106899 0.782077 -0.197980
C34   C     C_3   0.730236 0.403180 0.707659 -0.227987
C35   C     C_R   0.419673 0.692676 0.385446 -0.227564
C36   C     C_R   0.443672 0.787978 0.406223 0.043616
C37   C     C_R   0.386249 0.790312 0.358147 -0.107361
C38   C     C_R   0.308188 0.698615 0.287740 -0.197587
C39   C     C_R   0.281677 0.601885 0.268002 0.105789
C40   C     C_R   0.359106 0.500087 0.358857 0.911142
C41   C     C_R   0.336367 0.599187 0.319537 0.070883
C42   C     C_R   0.306583 0.502837 0.303335 -0.089789
C43   C     C_R   0.226261 0.409446 0.233957 -0.039135
C44   C     C_R   0.177515 0.412955 0.179528 -0.268070
C45   C     C_3   0.764532 0.469470 0.670392 -0.076459
C46   C     C_R   0.202954 0.507202 0.197335 -0.039810
C47   C     C_R   0.447878 0.666562 0.833853 -0.014274
C48   C     C_R   0.484247 0.755626 0.922481 -0.022381
C49   C     C_R   0.429814 0.758887 0.975223 -0.264531
C50   C     C_R   0.339756 0.677153 0.942808 0.025614
C51   C     C_R   0.297989 0.590637 0.850736 0.012188
C52   C     C_R   0.641654 0.499836 0.641511 0.891827
C53   C     C_R   0.352417 0.586401 0.794464 0.025784
C54   C     C_R   0.309061 0.502953 0.700774 -0.125848
C55   C     C_R   0.215715 0.423940 0.664635 -0.075027
C56   C     C_3   0.698688 0.498550 0.697482 -0.051305
C57   C     C_R   0.165519 0.427912 0.721517 -0.154889
C58   C     C_R   0.204242 0.508421 0.812036 -0.069142
C59   C     C_R   0.859769 0.501204 0.139811 0.887797
C60   C     C_R   0.141847 0.501970 0.861904 0.825361
C61   C     C_R   0.140988 0.780017 0.140067 0.880250
C62   C     C_R   0.859713 0.219895 0.852518 0.786713
C63   C     C_R   0.143725 0.502814 0.141313 0.815108
C64   C     C_3   0.769985 0.594809 0.789813 -0.177872
C65   C     C_R   0.858323 0.499781 0.858013 0.852103
C66   C     C_3   0.836023 0.564980 0.762462 -0.055809
C67   C     C_R   0.437882 0.111330 0.347107 -0.267908
C68   C     C_3   0.801666 0.499601 0.799979 -0.046550
C69   C     C_2   0.932360 0.639297 0.776987 0.975655
C70   C     C_2   0.689593 0.697037 0.406712 0.346413
C71   C     C_2   0.848056 0.889632 0.448810 0.467305
C72   C     C_2   0.891158 0.686285 0.174404 0.901414
C73   C     C_2   0.736389 0.318156 0.136269 0.937959
C74   C     C_2   0.809897 0.842209 0.770871 0.970775
C75   C     C_2   0.053177 0.066688 0.706949 0.995921
C76   C     C_2   0.963175 0.170963 0.721833 0.538319
C77   C     C_2   0.659520 0.097087 0.757867 0.494338
C78   C     C_R   0.476163 0.058942 0.339106 0.037982
C79   C     C_2   0.187721 0.306848 0.217354 0.449553
C80   C     C_2   0.528919 0.884263 0.478541 0.452443
C81   C     C_2   0.166768 0.336774 0.567119 0.947626
C82   C     C_2   0.512639 0.654688 0.789204 0.431001
C83   C     C_2   0.580032 0.846849 0.965334 0.433665
C84   C     C_2   0.293776 0.689206 0.009594 0.852631
C85   C     C_2   0.780730 0.433864 0.582178 0.916433
C86   C     C_2   0.572804 0.118543 0.387970 0.443295
C87   C     C_R   0.422128 0.950771 0.284611 -0.124172
H1    H     H_    0.450682 0.908566 0.275725 0.179682
H2    H     H_    0.402253 0.863253 0.374637 0.179944
H3    H     H_    0.269344 0.705290 0.249950 0.146117
H4    H     H_    0.724234 0.552853 0.893129 0.181866
H5    H     H_    0.115787 0.341825 0.125602 0.161245
H6    H     H_    0.458902 0.825792 0.044421 0.154047
H7    H     H_    0.093895 0.367399 0.694579 0.192109
H8    H     H_    0.591508 0.377861 0.722631 0.181767
H9    H     H_    0.714592 0.324683 0.674558 0.174299
H10   H     H_    0.189623 0.093004 0.254067 0.178223
H11   H     H_    0.481001 0.195065 0.388560 0.122793
H12   H     H_    0.291202 0.812418 0.201365 0.133555
H13   H     H_    0.049226 0.660472 0.761003 0.357375
H14   H     H_    0.707533 0.748326 0.478669 0.053126
H15   H     H_    0.813585 0.897569 0.497582 0.021041
H16   H     H_    0.767599 0.568077 0.081067 0.310358
H17   H     H_    0.659186 0.162748 0.068998 0.362097
H18   H     H_    0.725733 0.776542 0.824214 0.346214
H19   H     H_    0.120688 0.093324 0.625789 0.362717
H20   H     H_    0.917732 0.181368 0.696619 0.013620
H21   H     H_    0.691436 0.165552 0.757927 0.082695
H22   H     H_    0.140408 0.236749 0.151742 0.079004
H23   H     H_    0.096074 0.904071 0.159510 0.185380
H24   H     H_    0.572441 0.880687 0.515377 0.036725
H25   H     H_    0.168916 0.239894 0.448336 0.355770
H26   H     H_    0.544463 0.697284 0.760386 0.101739
H27   H     H_    0.608067 0.901780 0.037842 0.082545
H28   H     H_    0.235967 0.640920 0.084793 0.291148
H29   H     H_    0.750787 0.400590 0.458340 0.343840
H30   H     H_    0.613558 0.202462 0.429965 0.068739
H31   H     H_    0.643271 0.350318 0.242848 0.181331
H32   H     H_    0.924150 0.850837 0.322236 0.209250
H33   H     H_    0.584372 0.900004 0.686822 0.203135
H34   H     H_    0.785509 0.673241 0.823315 0.198160
H35   H     H_    0.966924 0.928655 0.743779 0.220849
H36   H     H_    0.467193 0.693168 0.421535 0.149267
O1    O     O_3   0.500000 0.500000 0.500000 -0.515910
O2    O     O_R   0.945270 0.268330 0.884560 -0.626857
O3    O     O_R   0.117250 0.560610 0.177960 -0.659079
O4    O     O_R   0.676930 0.731590 0.616180 -0.664431
O5    O     O_R   0.821970 0.439270 0.882700 -0.634399
O6    O     O_R   0.117250 0.439170 0.056520 -0.608797
O7    O     O_R   0.943420 0.560710 0.882700 -0.621783
O8    O     O_R   0.115410 0.731560 0.054670 -0.592565
O9    O     O_R   0.823040 0.268350 0.883790 -0.650664
O10   O     O_R   0.945270 0.560650 0.176870 -0.614106
O11   O     O_R   0.116170 0.439210 0.884560 -0.574754
O12   O     O_R   0.384570 0.439270 0.616180 -0.556846
O13   O     O_R   0.384570 0.268390 0.445310 -0.622923
O14   O     O_R   0.383800 0.560730 0.615410 -0.658105
O15   O     O_R   0.554710 0.439290 0.323100 -0.609445
O16   O     O_R   0.382720 0.560770 0.443450 -0.650220
O17   O     O_R   0.678010 0.560670 0.617270 -0.594214
O18   O     O_R   0.382720 0.439330 0.322010 -0.595119
O19   O     O_R   0.556550 0.439230 0.617270 -0.635282
O20   O     O_2   0.963899 0.730808 0.814558 -0.578394
O21   O     O_R   0.985455 0.603259 0.747229 -0.746592
O22   O     O_2   0.611570 0.643709 0.358998 -0.584427
O23   O     O_R   0.676930 0.560710 0.445310 -0.642735
O24   O     O_2   0.903715 0.967599 0.453814 -0.508882
O25   O     O_2   0.968759 0.752458 0.189888 -0.606141
O26   O     O_R   0.831757 0.614687 0.086020 -0.793599
O27   O     O_2   0.802312 0.319944 0.120839 -0.629800
O28   O     O_R   0.655000 0.223491 0.104460 -0.781670
O29   O     O_2   0.842607 0.794612 0.759344 -0.604183
O30   O     O_R   0.742553 0.828764 0.810007 -0.776243
O31   O     O_2   0.113854 0.076181 0.748262 -0.594607
O32   O     O_R   0.060977 0.076145 0.635418 -0.737809
O33   O     O_2   0.043761 0.229933 0.739667 -0.533378
O34   O     O_R   0.554710 0.731610 0.615410 -0.657019
O35   O     O_2   0.582313 0.057899 0.758449 -0.537325
O36   O     O_2   0.204175 0.298802 0.276801 -0.575832
O37   O     O_2   0.551620 0.968598 0.497993 -0.538743
O38   O     O_2   0.086901 0.296210 0.534600 -0.570766
O39   O     O_R   0.210114 0.299081 0.512629 -0.788744
O40   O     O_2   0.531822 0.598391 0.786132 -0.575865
O41   O     O_2   0.627712 0.864478 0.921222 -0.540779
O42   O     O_2   0.278998 0.754936 0.038273 -0.625693
O43   O     O_R   0.270095 0.628059 0.041709 -0.799355
O44   O     O_2   0.834217 0.410987 0.569578 -0.554393
O45   O     O_R   0.383800 0.268410 0.323100 -0.622401
O46   O     O_R   0.734280 0.425937 0.514647 -0.830456
O47   O     O_2   0.608081 0.074958 0.382222 -0.516160
O48   O     O_3   0.999970 0.499940 0.999970 -0.518739
O49   O     O_R   0.823040 0.439240 0.054670 -0.605209
O50   O     O_R   0.115410 0.560680 0.883790 -0.623842
O51   O     O_R   0.116170 0.731530 0.176870 -0.634713
Zn1   Zn    Zn3+2 0.457160 0.413230 0.543930 1.057530
Zn2   Zn    Zn3+2 0.456070 0.586770 0.542830 1.010321
Zn3   Zn    Zn3+2 0.456070 0.413260 0.369320 1.064944
Zn4   Zn    Zn3+2 0.630700 0.586740 0.543930 1.022627
Zn5   Zn    Zn3+2 0.042810 0.586720 0.956040 1.058531
Zn6   Zn    Zn3+2 0.043900 0.586680 0.130650 1.036162
Zn7   Zn    Zn3+2 0.043900 0.413170 0.957150 1.043885
Zn8   Zn    Zn3+2 0.869280 0.413210 0.956040 1.038787

loop_
_geom_bond_atom_site_label_1
_geom_bond_atom_site_label_2
_ccdc_geom_bond_type
C78   C87   A    
C71   O24   D    
C83   O41   D    
C22   C29   A    
C60   O11   A    
C73   O27   D    
C27   C29   A    
C81   O39   S    
O48   Zn8   S    
C66   C68   S    
C35   C36   A    
C5    C67   A    
O48   Zn5   S    
C65   O7    A    
C70   H14   S    
C50   C84   S    
C23   C56   S    
C39   C41   A    
O1    Zn1   S    
C53   C54   A    
C27   C33   A    
C69   O21   S    
C12   C68   S    
C12   C23   S    
C26   C27   A    
C29   C30   A    
H16   O26   S    
C9    C61   S    
H17   O28   S    
C36   C37   A    
C34   H9    S    
C21   C59   S    
C72   O26   S    
C79   O36   D    
C30   C31   A    
C12   C64   S    
C11   C71   S    
C80   O37   D    
C66   C69   S    
C82   O40   D    
O50   Zn5   S    
C10   C17   A    
C58   C60   S    
O45   Zn3   S    
C40   O16   A    
O23   Zn4   S    
C18   C19   A    
C41   C42   A    
C47   C82   S    
C84   O42   D    
C12   H4    S    
C67   H11   S    
O9    Zn8   S    
C32   C77   S    
C16   O14   A    
C45   C56   S    
C23   H8    S    
C8    C9    A    
H29   O46   S    
C47   C48   A    
C26   C76   S    
C56   C64   S    
O3    Zn6   S    
C55   C81   S    
O1    Zn4   S    
C44   H5    S    
C77   O35   D    
C47   C53   A    
C78   C86   S    
C40   C42   S    
O13   Zn1   S    
C13   C14   A    
C73   O28   S    
C60   O50   A    
C83   H27   S    
C74   O29   D    
O16   Zn2   S    
C67   C78   A    
C14   C72   S    
C13   H32   S    
C44   C46   A    
C50   C51   A    
C16   C54   S    
C38   C39   A    
C79   H22   S    
O2    Zn7   S    
C85   O44   D    
C65   O5    A    
C62   O9    A    
C7    C8    A    
C28   O15   A    
C24   C25   A    
C19   H31   S    
O14   Zn2   S    
C4    C6    S    
C36   C80   S    
C34   C68   S    
C70   O22   D    
O8    Zn5   S    
C33   C62   S    
H18   O30   S    
C72   O25   D    
C76   O33   D    
C52   O19   A    
C4    O45   A    
C74   O30   S    
C25   C75   S    
O12   Zn1   S    
C45   C85   S    
C43   C44   A    
C37   C38   A    
C3    C9    A    
C8    H23   S    
O17   Zn4   S    
C31   C32   A    
C65   C68   S    
C24   H35   S    
C17   C18   A    
C18   C28   S    
C2    C87   A    
C51   C58   A    
H28   O43   S    
O1    Zn3   S    
C6    C7    A    
C34   C45   S    
C39   C46   A    
C10   C70   S    
C48   C49   A    
C71   H15   S    
C2    H12   S    
C49   C50   A    
C76   H20   S    
C57   H7    S    
C55   C57   A    
H13   O21   S    
O18   Zn3   S    
O48   Zn6   S    
C42   C43   A    
C22   C74   S    
O11   Zn7   S    
C59   O49   A    
O51   Zn6   S    
C15   C17   A    
O49   Zn8   S    
O6    Zn7   S    
C54   C55   A    
C23   C34   S    
C7    H10   S    
C86   O47   D    
O4    Zn4   S    
C81   O38   D    
O48   Zn7   S    
C77   H21   S    
C61   O51   A    
C1    O4    A    
C82   H26   S    
C3    C5    A    
O15   Zn3   S    
C62   O2    A    
O10   Zn6   S    
O19   Zn1   S    
O1    Zn2   S    
C69   O20   D    
H25   O39   S    
C38   H3    S    
C49   H6    S    
C28   O23   A    
C48   C83   S    
C37   H2    S    
C46   C63   S    
C10   C11   A    
C32   C33   A    
C19   C20   A    
C1    O34   A    
C2    C3    A    
C25   C26   A    
O5    Zn8   S    
C11   C13   A    
C75   O31   D    
C57   C58   A    
C5    C6    A    
C52   C56   S    
C80   H24   S    
C35   H36   S    
C1    C30   S    
C52   O17   A    
C59   O10   A    
C20   C73   S    
C86   H30   S    
C22   C24   A    
C63   O6    A    
C35   C41   A    
C85   O46   S    
C31   H33   S    
C63   O3    A    
C84   O43   S    
O7    Zn5   S    
C61   O8    A    
O34   Zn2   S    
C75   O32   S    
C4    O13   A    
C15   C21   A    
C20   C21   A    
C87   H1    S    
H19   O32   S    
C45   C66   S    
C14   C15   A    
C51   C53   A    
C40   O18   A    
C16   O12   A    
C43   C79   S    
C64   H34   S    
C64   C66   S    
