data_mof_unit_42398.cif
_audit_creation_date              2012-12-11T15:32:36-0500
_audit_creation_method            fapswitch 2.2
_symmetry_space_group_name_H-M    P1
_symmetry_Int_Tables_number       1
_space_group_crystal_system       triclinic
_cell_length_a                    6.946704
_cell_length_b                    20.385572
_cell_length_c                    24.476266
_cell_angle_alpha                 89.584919
_cell_angle_beta                  90.490367
_cell_angle_gamma                 88.908092
_cell_volume                      3465.29461935

loop_
_atom_site_label
_atom_site_type_symbol
_atom_type_description
_atom_site_fract_x
_atom_site_fract_y
_atom_site_fract_z
_atom_type_partial_charge
O1    O     O_R   0.507320 0.423560 0.460500 -0.548095
O2    O     O_R   0.170760 0.556250 0.437010 -0.537383
O3    O     O_R   0.004030 0.576440 0.539500 -0.536910
C1    C     C_R   0.338337 0.576432 0.420988 0.722724
O4    O     O_R   0.177370 0.422820 0.454110 -0.531446
O5    O     O_R   0.010680 0.442050 0.556720 -0.529102
C2    C     C_R   0.347406 0.398658 0.443603 0.751904
O6    O     O_R   0.500680 0.557950 0.443280 -0.534865
O7    O     O_3   0.340380 0.506470 0.533650 -0.368238
V1    V     V_3+5 0.064130 0.498800 0.493760 1.442904
O8    O     O_R   0.681160 0.443750 0.562990 -0.544677
C3    C     C_R   0.851664 0.423642 0.578808 0.720769
O9    O     O_R   0.674560 0.577180 0.545890 -0.537562
C4    C     C_R   0.842097 0.601043 0.556772 0.693861
V2    V     V_3+5 0.564560 0.501200 0.506240 1.418499
O10   O     O_3   0.838180 0.493530 0.466350 -0.367110
C5    C     C_R   0.978989 0.838060 0.910874 -0.043258
C6    C     C_R   0.845077 0.661822 0.589140 -0.044706
C7    C     C_R   0.053124 0.721997 0.904919 -0.153559
C8    C     C_R   0.040975 0.779272 0.935373 -0.168049
C9    C     C_R   0.929755 0.839268 0.854951 -0.212602
C10   C     C_R   0.944468 0.781507 0.822481 0.086238
C11   C     C_R   0.006970 0.722599 0.848971 0.132896
C12   C     C_R   0.902205 0.780102 0.764853 0.057454
C13   C     C_R   0.922975 0.719811 0.735091 0.055628
C14   C     C_R   0.985006 0.662986 0.763963 -0.182804
C15   C     C_R   0.025571 0.664540 0.819558 -0.190069
C16   C     C_R   0.840585 0.836956 0.735955 -0.184925
C17   C     C_R   0.799992 0.835414 0.680365 -0.199097
C18   C     C_R   0.818091 0.777323 0.650983 0.137321
C19   C     C_R   0.880411 0.718393 0.677481 0.087578
C20   C     C_R   0.771653 0.777925 0.595058 -0.158529
C21   C     C_R   0.783321 0.720628 0.564631 -0.165479
C22   C     C_R   0.894580 0.660600 0.645043 -0.213813
H1    H     H_    0.073411 0.619541 0.839781 0.137862
H2    H     H_    0.938542 0.613675 0.661934 0.096423
H3    H     H_    0.742754 0.722049 0.521785 0.108319
H4    H     H_    0.752460 0.880443 0.660125 0.126311
H5    H     H_    0.101654 0.677073 0.925091 0.123146
H6    H     H_    0.081421 0.777851 0.978228 0.107560
H7    H     H_    0.885528 0.886165 0.838071 0.097333
H8    H     H_    0.004583 0.616038 0.744738 0.129494
H9    H     H_    0.821490 0.883932 0.755152 0.127607
H10   H     H_    0.723298 0.822870 0.574882 0.118192
C23   C     C_3   0.820975 0.308308 0.767717 0.480900
C24   C     C_3   0.009801 0.278850 0.791867 -0.061235
H11   H     H_    0.232299 0.275524 0.718791 0.130300
C25   C     C_1   0.956456 0.123378 0.876763 -0.165023
C26   C     C_1   0.866636 0.378546 0.624740 -0.204304
C27   C     C_3   0.725393 0.240135 0.771004 -0.322057
C28   C     C_3   0.916601 0.210971 0.794314 0.020323
C29   C     C_3   0.798176 0.225787 0.711967 -0.258447
C30   C     C_3   0.894352 0.294201 0.709861 0.033733
C31   C     C_3   0.987883 0.197358 0.736353 0.507624
C32   C     C_3   0.085629 0.264918 0.733715 -0.361800
C33   C     C_1   0.938251 0.162931 0.839731 0.062483
C34   C     C_1   0.880262 0.340575 0.663077 -0.021262
H12   H     H_    0.711872 0.202712 0.679244 0.130943
H13   H     H_    0.580602 0.227755 0.786358 0.169674
C35   C     C_3   0.592829 0.743709 0.230986 -0.142701
C36   C     C_3   0.443084 0.688204 0.232063 -0.123125
H14   H     H_    0.468253 0.637318 0.217523 0.137405
H15   H     H_    0.742199 0.738926 0.215501 0.114114
H16   H     H_    0.183640 0.726300 0.175826 0.115991
C37   C     C_1   0.347482 0.622022 0.374897 -0.184361
C38   C     C_1   0.476818 0.877421 0.124702 -0.184952
C39   C     C_3   0.537288 0.762521 0.290175 -0.140159
C40   C     C_3   0.387788 0.707596 0.290684 0.159254
C41   C     C_3   0.381257 0.811132 0.267442 -0.125579
C42   C     C_3   0.436549 0.791742 0.208825 0.160836
C43   C     C_3   0.231511 0.755630 0.268519 -0.139393
C44   C     C_3   0.287050 0.736819 0.209330 -0.135933
C45   C     C_1   0.362931 0.660443 0.336820 -0.048422
C46   C     C_1   0.461388 0.838934 0.162725 -0.054487
H17   H     H_    0.082138 0.760419 0.284001 0.112700
H18   H     H_    0.356090 0.862025 0.281964 0.125352
H19   H     H_    0.640703 0.773044 0.323677 0.114322
C47   C     C_R   0.462621 0.161470 0.089845 -0.116216
C48   C     C_R   0.359039 0.337162 0.411954 -0.160973
C49   C     C_R   0.423229 0.279605 0.090928 -0.097015
C50   C     C_R   0.427974 0.220806 0.062502 -0.186771
C51   C     C_R   0.480377 0.160831 0.147642 -0.062463
C52   C     C_R   0.442137 0.220058 0.177640 0.025796
C53   C     C_R   0.437700 0.280524 0.148391 0.052794
C54   C     C_R   0.404147 0.221368 0.235204 0.067459
C55   C     C_R   0.407116 0.281652 0.264589 0.064450
C56   C     C_R   0.432936 0.339943 0.234422 -0.220216
C57   C     C_R   0.442126 0.340392 0.177254 -0.025558
C58   C     C_R   0.343105 0.165063 0.262996 -0.120333
C59   C     C_R   0.317989 0.164512 0.319005 -0.120544
C60   C     C_R   0.346386 0.220938 0.350328 -0.003505
C61   C     C_R   0.380634 0.281486 0.323000 0.095976
C62   C     C_R   0.331313 0.218433 0.408218 -0.079523
C63   C     C_R   0.347045 0.276296 0.438863 0.355799
C64   C     C_R   0.380427 0.339462 0.355023 -0.274417
H20   H     H_    0.394039 0.387554 0.337164 0.122484
H21   H     H_    0.271471 0.119076 0.337185 0.159444
H22   H     H_    0.401314 0.324174 0.067325 0.154302
H23   H     H_    0.412210 0.221901 0.018402 0.121427
H24   H     H_    0.443623 0.386710 0.254230 0.147400
H25   H     H_    0.305967 0.120918 0.241558 0.138561
O11   O     O_R   0.323550 0.942140 0.056770 -0.531400
O12   O     O_R   0.647080 0.077200 0.045890 -0.535677
O13   O     O_R   0.813610 0.057920 0.943260 -0.538702
C65   C     C_R   0.476998 0.101208 0.056621 0.763452
O14   O     O_R   0.653470 0.943760 0.063000 -0.536008
O15   O     O_R   0.820050 0.923540 0.960490 -0.540081
C66   C     C_R   0.485973 0.923181 0.078734 0.769860
O16   O     O_R   0.317110 0.076520 0.039540 -0.530664
O17   O     O_3   0.483830 0.993580 0.966380 -0.374480
V3    V     V_3+5 0.760140 0.001190 0.006240 1.461382
O18   O     O_R   0.149510 0.922740 0.954070 -0.541670
C67   C     C_R   0.981951 0.898866 0.943237 0.685428
O19   O     O_R   0.143120 0.056170 0.936970 -0.536357
C68   C     C_R   0.972575 0.076689 0.921491 0.716156
V4    V     V_3+5 0.259690 0.998700 0.993700 1.462438
O20   O     O_3   0.986130 0.006420 0.033620 -0.361881
C69   C     C_2   0.125798 0.306454 0.837888 0.753045
O21   O     O_2   0.084888 0.360499 0.856200 -0.531247
O22   O     O_R   0.279842 0.269647 0.859890 -0.682251
H26   H     H_    0.347873 0.293197 0.890631 0.290900
O23   O     O_3   0.753626 0.370728 0.784988 -0.553060
C70   C     C_3   0.552291 0.378866 0.778105 0.115262
H27   H     H_    0.503488 0.414631 0.809346 0.174642
H28   H     H_    0.471574 0.333574 0.786085 0.113089
C71   C     C_3   0.500585 0.406363 0.721280 -0.354801
H29   H     H_    0.605578 0.444265 0.709376 0.217230
H30   H     H_    0.506291 0.365958 0.691125 0.185826
C72   C     C_3   0.298525 0.437221 0.719858 -0.781587
H31   H     H_    0.190893 0.401473 0.733900 0.252016
H32   H     H_    0.261314 0.452774 0.677426 0.229653
H33   H     H_    0.292058 0.480998 0.746586 0.233584
O24   O     O_3   0.065992 0.135042 0.723409 -0.569832
C73   C     C_3   0.187220 0.139685 0.677795 0.076646
H34   H     H_    0.317266 0.168170 0.688445 0.125086
H35   H     H_    0.110082 0.163387 0.642528 0.129184
C74   C     C_3   0.252087 0.070486 0.661724 -0.283792
H36   H     H_    0.322292 0.045628 0.697450 0.206936
H37   H     H_    0.124364 0.041817 0.649509 0.197272
C75   C     C_3   0.393980 0.071699 0.614587 -0.835648
H38   H     H_    0.325226 0.095022 0.578103 0.240057
H39   H     H_    0.438330 0.020737 0.604137 0.236548
H40   H     H_    0.524346 0.099233 0.626284 0.231819
C76   C     C_2   0.466927 0.404706 0.149395 0.754730
O25   O     O_2   0.378295 0.453224 0.165360 -0.557316
O26   O     O_R   0.597421 0.410503 0.106511 -0.661234
H41   H     H_    0.602739 0.456890 0.091453 0.303367
O27   O     O_3   0.340801 0.273202 0.495473 -0.568927
C77   C     C_3   0.529011 0.279245 0.517695 0.059124
H42   H     H_    0.514280 0.300432 0.559191 0.144724
H43   H     H_    0.621390 0.313161 0.494136 0.118308
C78   C     C_3   0.631285 0.212236 0.522675 -0.330418
H44   H     H_    0.539343 0.178214 0.545858 0.213970
H45   H     H_    0.656732 0.191857 0.481383 0.221737
C79   C     C_3   0.825252 0.217473 0.551697 -0.772217
H46   H     H_    0.923140 0.248836 0.527698 0.272840
H47   H     H_    0.891698 0.167830 0.556649 0.246511
H48   H     H_    0.805941 0.238877 0.592678 0.213373
C80   C     C_2   0.565476 0.101518 0.174874 0.720453
O28   O     O_2   0.694693 0.107400 0.208649 -0.543027
O29   O     O_R   0.497132 0.039300 0.162515 -0.678842
H49   H     H_    0.565803 0.003232 0.184249 0.288835
C81   C     C_2   0.300501 0.155794 0.437976 0.769053
O30   O     O_2   0.405565 0.108120 0.429746 -0.570282
O31   O     O_R   0.153237 0.151941 0.476258 -0.649691
H50   H     H_    0.143423 0.106511 0.492974 0.287743

loop_
_geom_bond_atom_site_label_1
_geom_bond_atom_site_label_2
_ccdc_geom_bond_type
C13   C19   A    
C43   H17   S    
C56   C57   A    
O31   H50   S    
C79   H47   S    
C4    C6    S    
O2    C1    A    
C64   H20   S    
C39   H19   S    
C75   H40   S    
C1    O6    A    
C73   C74   S    
O19   C68   A    
C5    C67   S    
C70   H27   S    
C23   C24   S    
O22   H26   S    
C74   H37   S    
C14   C15   A    
C62   C63   A    
O14   C66   A    
C47   C65   S    
C27   H13   S    
H11   C32   S    
C16   C17   A    
C81   O31   S    
C75   H39   S    
C56   H24   S    
C77   H43   S    
O5    C3    A    
C1    C37   S    
C8    H6    S    
C70   H28   S    
C62   C81   S    
V2    O10   S    
C38   C46   T    
C5    C8    A    
C26   C34   T    
V4    O20   S    
C24   C69   S    
C41   H18   S    
O12   V3    S    
C28   C33   S    
C41   C43   S    
C69   O21   D    
O15   C67   A    
O16   V4    S    
O17   V3    S    
O8    V2    S    
C7    C8    A    
C35   C39   S    
C17   H4    S    
C42   C46   S    
C27   C29   S    
C80   O29   S    
O11   C66   A    
O1    V2    S    
C11   C15   A    
O7    V1    S    
C59   H21   S    
C49   C53   A    
C72   H33   S    
C58   H25   S    
H16   C44   S    
C23   C30   S    
O9    C4    A    
C79   H48   S    
C41   C42   S    
O18   C67   A    
C29   C31   S    
C3    C26   S    
O14   V3    S    
C30   C32   S    
C63   O27   S    
C29   H12   S    
C74   C75   S    
C42   C44   S    
O26   H41   S    
C52   C53   A    
C39   C40   S    
C53   C57   A    
C12   C13   A    
C48   C63   A    
C76   O26   S    
C37   C45   T    
C58   C59   A    
C60   C61   A    
O4    C2    A    
C54   C58   A    
C55   C56   A    
C49   C50   A    
C70   C71   S    
C73   H35   S    
C50   H23   S    
C71   C72   S    
C15   H1    S    
C13   C14   A    
C54   C55   A    
C31   O24   S    
C24   C28   S    
C61   C64   A    
C21   H3    S    
C35   C36   S    
C39   C41   S    
C24   C32   S    
C7    C11   A    
C48   C64   A    
C17   C18   A    
C60   C62   A    
O13   C68   A    
C47   C51   A    
C80   O28   D    
C78   C79   S    
C35   C42   S    
C27   C28   S    
C20   H10   S    
C19   C22   A    
O12   C65   A    
C75   H38   S    
C6    C22   A    
O3    C4    A    
C7    H5    S    
C25   C68   S    
C9    H7    S    
C36   C44   S    
C52   C54   A    
C78   H45   S    
O6    V2    S    
C35   H15   S    
O24   C73   S    
C10   C12   A    
C77   C78   S    
O2    V1    S    
O17   V4    S    
O18   V4    S    
C29   C30   S    
C14   H8    S    
C2    C48   S    
C72   H31   S    
C25   C33   T    
C65   O16   A    
C31   C32   S    
C71   H30   S    
C49   H22   S    
O1    C2    A    
O15   V3    S    
C12   C16   A    
C38   C66   S    
C76   O25   D    
C30   C34   S    
O5    V1    S    
O13   V3    S    
O19   V4    S    
O8    C3    A    
C40   C43   S    
C73   H34   S    
C23   O23   S    
C74   H36   S    
C16   H9    S    
V3    O20   S    
C28   C31   S    
C20   C21   A    
O9    V2    S    
C40   C45   S    
O4    V1    S    
O3    V1    S    
C55   C61   A    
C77   H42   S    
C18   C20   A    
C51   C80   S    
C36   C40   S    
C59   C60   A    
C18   C19   A    
O29   H49   S    
C23   C27   S    
C71   H29   S    
C22   H2    S    
O27   C77   S    
C47   C50   A    
O7    V2    S    
C36   H14   S    
C6    C21   A    
C69   O22   S    
C81   O30   D    
O11   V4    S    
C43   C44   S    
C78   H44   S    
C51   C52   A    
C79   H46   S    
C10   C11   A    
V1    O10   S    
O23   C70   S    
C9    C10   A    
C57   C76   S    
C72   H32   S    
C5    C9    A    
