data_mof_unit_29921.cif
_audit_creation_date              2012-10-26T17:13:06-0400
_audit_creation_method            fapswitch 2.2
_symmetry_space_group_name_H-M    P1
_symmetry_Int_Tables_number       1
_space_group_crystal_system       triclinic
_cell_length_a                    16.590947
_cell_length_b                    16.807164
_cell_length_c                    16.939876
_cell_angle_alpha                 68.624059
_cell_angle_beta                  67.428975
_cell_angle_gamma                 68.357808
_cell_volume                      3915.19800545

loop_
_atom_site_label
_atom_site_type_symbol
_atom_type_description
_atom_site_fract_x
_atom_site_fract_y
_atom_site_fract_z
_atom_type_partial_charge
C1    C     C_R   0.324875 0.942849 0.451492 0.019623
C2    C     C_R   0.329545 0.451178 0.946666 0.020120
C3    C     C_R   0.514474 0.404427 0.045099 0.011367
C4    C     C_R   0.994087 0.462531 0.590488 0.011949
C5    C     C_R   0.001467 0.538841 0.411151 0.012407
C6    C     C_2   0.274943 0.904426 0.272168 0.293003
C7    C     C_2   0.760364 0.946411 0.755774 0.269440
C8    C     C_2   0.032902 0.237054 0.236547 0.293530
C9    C     C_2   0.983049 0.759553 0.760597 0.313172
C10   C     C_2   0.278834 0.275233 0.905535 0.285249
C11   C     C_2   0.722352 0.724476 0.098721 0.323001
C12   C     C_R   0.977849 0.696324 0.569064 0.010234
C13   C     C_R   0.020223 0.304449 0.431963 0.005299
C14   C     C_R   0.452638 0.979085 0.454845 -0.001854
C15   C     C_R   0.537433 0.014662 0.550096 -0.002902
C16   C     C_R   0.008479 0.447807 0.447078 -0.003066
C17   C     C_R   0.987435 0.553473 0.554465 -0.002939
C18   C     C_R   0.450612 0.450120 0.996621 -0.000141
C19   C     C_R   0.552562 0.542140 0.014360 -0.000628
C20   C     C_R   0.008512 0.833619 0.570666 0.572313
C21   C     C_R   0.670883 0.041374 0.556100 0.016174
C22   C     C_R   0.992165 0.166191 0.429156 0.581510
C23   C     C_R   0.827660 0.561906 0.034898 0.587652
C24   C     C_R   0.172682 0.436865 0.968151 0.588564
C25   C     C_R   0.569333 0.010978 0.832930 0.589216
C26   C     C_R   0.436500 0.968723 0.171589 0.607655
C27   C     C_R   0.430210 0.169590 0.984089 0.582018
C28   C     C_R   0.570101 0.829460 0.016654 0.574507
C29   C     C_R   0.991306 0.429501 0.166422 0.583581
C30   C     C_R   0.009122 0.570339 0.833502 0.584511
C31   C     C_R   0.172025 0.967801 0.436077 0.568058
C32   C     C_R   0.016724 0.435036 0.304371 0.008943
C33   C     C_R   0.828378 0.022517 0.567010 0.578212
C34   C     C_R   0.410389 0.960158 0.407955 -0.028486
C35   C     C_R   0.585729 0.020257 0.600344 -0.032255
C36   C     C_R   0.013686 0.395904 0.394641 -0.023889
C37   C     C_R   0.983412 0.605100 0.606573 -0.021107
C38   C     C_R   0.400381 0.403973 0.986831 -0.035741
C39   C     C_R   0.600509 0.589486 0.025467 -0.031471
C40   C     C_R   0.273088 0.943957 0.401716 -0.001122
C41   C     C_R   0.730015 0.025287 0.607191 -0.003479
C42   C     C_R   0.007794 0.386122 0.255690 -0.014328
C43   C     C_R   0.980974 0.565879 0.696633 0.012959
C44   C     C_R   0.992718 0.613860 0.744373 -0.013763
C45   C     C_R   0.387082 0.264578 0.985103 -0.026529
C46   C     C_R   0.613344 0.732010 0.021060 -0.022606
C47   C     C_R   0.605749 0.002984 0.741463 0.007437
C48   C     C_R   0.404850 0.948308 0.270265 0.019287
C49   C     C_R   0.726558 0.594124 0.060050 0.036795
C50   C     C_R   0.273676 0.402734 0.949082 0.035245
C51   C     C_R   0.991377 0.744102 0.615410 -0.017300
C52   C     C_R   0.009562 0.255805 0.384586 -0.016936
C53   C     C_R   0.462507 0.981576 0.734454 0.262264
C54   C     C_R   0.420674 0.310363 0.017428 0.007567
C55   C     C_R   0.547897 0.956403 0.285802 0.273919
C56   C     C_R   0.955809 0.736122 0.487428 0.243151
C57   C     C_R   0.041390 0.265012 0.514056 0.240901
C58   C     C_R   0.683448 0.451931 0.107378 0.249790
C59   C     C_R   0.323455 0.541448 0.898764 0.250440
C60   C     C_R   0.293915 0.924529 0.544414 0.255571
C61   C     C_R   0.695956 0.070238 0.461936 0.259729
C62   C     C_R   0.474090 0.267610 0.077280 0.240014
C63   C     C_R   0.546570 0.718180 0.918208 0.289869
C64   C     C_R   0.033460 0.520309 0.266071 0.243740
C65   C     C_R   0.582295 0.682462 0.990675 0.012061
C66   C     C_R   0.963258 0.481058 0.735329 0.243198
C67   C     C_R   0.317142 0.935284 0.314462 -0.043707
C68   C     C_R   0.697602 0.998035 0.700187 -0.026479
C69   C     C_R   0.011855 0.294908 0.294328 -0.021276
C70   C     C_R   0.992224 0.704182 0.704820 -0.036224
C71   C     C_R   0.313208 0.313264 0.948986 -0.050031
C72   C     C_R   0.686512 0.684368 0.058666 -0.051027
C73   C     C_R   0.657918 0.046822 0.414920 0.058712
C74   C     C_R   0.327781 0.955364 0.587696 0.053456
C75   C     C_R   0.984455 0.425388 0.681351 0.047319
C76   C     C_R   0.550377 0.001556 0.694243 0.032777
C77   C     C_R   0.011202 0.576046 0.320288 0.049902
C78   C     C_R   0.494730 0.673332 0.908095 0.061666
C79   C     C_R   0.524874 0.313262 0.087182 0.046675
C80   C     C_R   0.582649 0.991803 0.325631 0.059641
C81   C     C_R   0.410572 0.991688 0.681411 0.031422
C82   C     C_R   0.382246 0.584966 0.899296 0.037437
C83   C     C_R   0.629791 0.405448 0.102546 0.042933
C84   C     C_R   0.020481 0.317465 0.571004 0.046105
C85   C     C_R   0.975489 0.683856 0.430654 0.048036
C86   C     C_R   0.699601 0.047214 0.325134 -0.095780
C87   C     C_R   0.454771 0.955618 0.319429 0.037228
C88   C     C_R   0.281793 0.961240 0.674343 -0.079952
C89   C     C_R   0.993797 0.333814 0.716566 -0.091456
C90   C     C_R   0.001554 0.667690 0.285197 -0.080050
C91   C     C_R   0.447099 0.710896 0.844450 -0.071337
C92   C     C_R   0.586508 0.269664 0.137877 -0.100767
C93   C     C_R   0.664675 0.015959 0.282325 -0.102088
C94   C     C_R   0.320947 0.983256 0.719388 -0.099843
C95   C     C_R   0.388177 0.669766 0.843236 -0.093191
C96   C     C_R   0.638519 0.314638 0.144794 -0.092010
C97   C     C_R   0.015686 0.279806 0.661114 -0.093861
C98   C     C_R   0.671379 0.543941 0.064886 0.022818
C99   C     C_R   0.979855 0.721633 0.340660 -0.084026
C100  C     C_R   0.536525 0.999131 0.412515 0.016409
C101  C     C_R   0.451700 0.997974 0.591153 0.010173
C102  C     C_R   0.006138 0.409495 0.536558 0.010936
C103  C     C_R   0.989510 0.591845 0.465081 0.011422
C104  C     C_R   0.440578 0.540957 0.953874 0.011293
C105  C     C_R   0.565774 0.450609 0.053920 0.013758
C106  C     C_R   0.577341 0.020279 0.459183 0.016435
C107  C     C_R   0.409304 0.980556 0.543611 0.015751
C108  C     C_R   0.493318 0.586470 0.961230 0.005948
Cl1   Cl    Cl    0.422109 0.914643 0.843875 -0.600213
Cl2   Cl    Cl    0.607837 0.783966 0.823405 -0.612948
Cl3   Cl    Cl    0.120317 0.539659 0.165307 -0.581766
Cl4   Cl    Cl    0.877045 0.462277 0.836680 -0.580219
Cl5   Cl    Cl    0.629156 0.878859 0.226454 -0.546530
Cl6   Cl    Cl    0.869168 0.836459 0.474581 -0.595518
Cl7   Cl    Cl    0.128482 0.165042 0.527593 -0.605230
Cl8   Cl    Cl    0.754046 0.398862 0.178439 -0.497505
Cl9   Cl    Cl    0.255245 0.594389 0.825418 -0.493411
Cl10  Cl    Cl    0.235739 0.840930 0.607550 -0.493370
Cl11  Cl    Cl    0.752833 0.155028 0.403914 -0.509473
Cl12  Cl    Cl    0.457492 0.167963 0.157282 -0.639818
Cu1   Cu    Cu3+1 0.995180 0.995180 0.424630 1.105922
Cu2   Cu    Cu3+1 0.004820 0.004820 0.575370 1.156248
Cu3   Cu    Cu3+1 0.995180 0.424630 0.995180 1.137900
Cu4   Cu    Cu3+1 0.004820 0.575370 0.004820 1.147242
Cu5   Cu    Cu3+1 0.424630 0.995180 0.995180 1.086718
Cu6   Cu    Cu3+1 0.575370 0.004820 0.004820 1.113236
H1    H     H_    0.282547 0.987806 0.786374 0.173412
H2    H     H_    0.453164 0.773017 0.796202 0.211118
H3    H     H_    0.007518 0.698156 0.215486 0.167962
H4    H     H_    0.987826 0.303395 0.786284 0.162856
H5    H     H_    0.221788 0.950167 0.242620 0.124058
H6    H     H_    0.775383 0.874719 0.775495 0.101295
H7    H     H_    0.102961 0.206618 0.205564 0.071486
H8    H     H_    0.916606 0.789081 0.799459 0.080119
H9    H     H_    0.252973 0.217460 0.941401 0.129672
H10   H     H_    0.743431 0.784865 0.062674 0.151778
H11   H     H_    0.700732 0.012918 0.214505 0.159992
H12   H     H_    0.970479 0.792370 0.312241 0.163521
H13   H     H_    0.025190 0.209059 0.689555 0.162324
H14   H     H_    0.686229 0.276891 0.182933 0.197064
H15   H     H_    0.349346 0.704427 0.796150 0.204572
H16   H     H_    0.215639 0.948829 0.707518 0.177859
H17   H     H_    0.762328 0.066225 0.289369 0.174059
H18   H     H_    0.597282 0.199603 0.170525 0.169355
O1    O     O_R   0.124540 0.978640 0.385460 -0.559175
O2    O     O_R   0.124540 0.385460 0.978640 -0.536446
O3    O     O_R   0.021360 0.875460 0.614540 -0.455759
O4    O     O_R   0.978640 0.124540 0.385460 -0.451921
O5    O     O_R   0.013780 0.867370 0.487190 -0.478395
O6    O     O_R   0.986220 0.132630 0.512810 -0.474335
O7    O     O_R   0.867370 0.487190 0.013780 -0.436570
O8    O     O_R   0.132630 0.512810 0.986220 -0.433993
O9    O     O_R   0.487190 0.013780 0.867370 -0.454560
O10   O     O_R   0.512810 0.986220 0.132630 -0.431387
O11   O     O_R   0.512810 0.132630 0.986220 -0.466433
O12   O     O_R   0.875460 0.021360 0.614540 -0.482847
O13   O     O_R   0.487190 0.867370 0.013780 -0.442383
O14   O     O_R   0.986220 0.512810 0.132630 -0.467733
O15   O     O_R   0.013780 0.487190 0.867370 -0.467889
O16   O     O_R   0.132630 0.986220 0.512810 -0.432159
O17   O     O_R   0.867370 0.013780 0.487190 -0.433064
O18   O     O_2   0.301848 0.827543 0.268048 -0.455966
O19   O     O_2   0.791571 0.983481 0.782758 -0.467056
O20   O     O_2   0.972165 0.223175 0.223793 -0.402087
O21   O     O_2   0.050186 0.769664 0.765332 -0.375364
O22   O     O_2   0.275307 0.311636 0.829591 -0.460295
O23   O     O_R   0.978640 0.385460 0.124540 -0.456013
O24   O     O_2   0.733433 0.686482 0.171934 -0.417345
O25   O     O_R   0.021360 0.614540 0.875460 -0.467148
O26   O     O_R   0.385460 0.124540 0.978640 -0.544491
O27   O     O_R   0.614540 0.875460 0.021360 -0.532017
O28   O     O_R   0.614540 0.021360 0.875460 -0.478369
O29   O     O_R   0.385460 0.978640 0.124540 -0.525231
O30   O     O_R   0.875460 0.614540 0.021360 -0.537182

loop_
_geom_bond_atom_site_label_1
_geom_bond_atom_site_label_2
_ccdc_geom_bond_type
C101  C107  A    
C22   O6    A    
C55   C80   A    
C29   C42   S    
C45   C71   A    
C84   C102  A    
C64   C77   A    
C90   C99   A    
C63   C78   A    
C58   C98   A    
C59   C82   A    
C50   C71   A    
C3    C79   A    
C63   C65   A    
C56   C85   A    
C33   O12   A    
Cu3   Cu4   S    
C57   Cl7   S    
C23   O30   A    
C81   C101  A    
C94   H1    S    
C31   C40   S    
C28   C46   S    
C8    C69   S    
C84   C97   A    
C32   C36   A    
C15   C106  A    
C78   C108  A    
C47   C76   A    
C20   C51   S    
Cu5   O13   S    
C23   C49   S    
C61   Cl11  S    
C66   C75   A    
C92   C96   A    
C20   O5    A    
C3    C18   A    
C53   C81   A    
C15   C35   A    
C12   C37   A    
C5    C16   A    
Cu6   O27   S    
C2    C50   A    
C1    C40   A    
C49   C98   A    
C90   H3    S    
Cu4   O25   S    
C6    O18   D    
C4    C75   A    
C49   C72   A    
Cu4   O14   S    
C86   H17   S    
C99   H12   S    
C44   C70   A    
C52   C69   A    
C51   C70   A    
C48   C87   A    
C24   O8    A    
C25   C47   S    
C46   C72   A    
C31   O16   A    
C85   C103  A    
C26   C48   S    
Cu3   O23   S    
C9    H8    S    
C27   C45   S    
C7    C68   S    
Cu5   O29   S    
C59   Cl9   S    
C80   C100  A    
C58   Cl8   S    
C5    C103  A    
C39   C65   A    
C30   C44   S    
Cu6   O11   S    
Cu2   O12   S    
C88   H16   S    
Cu5   O9    S    
C1    C34   A    
C41   C68   A    
C88   C94   A    
C24   C50   S    
C30   O15   A    
C77   C90   A    
Cu3   O7    S    
C35   C76   A    
Cu1   O4    S    
C91   H2    S    
C25   O9    A    
C62   C79   A    
Cu4   O30   S    
Cu6   O28   S    
C9    C70   S    
C32   C64   A    
C13   C36   A    
C8    O20   D    
C1    C60   A    
C11   C72   S    
C64   Cl3   S    
C17   C37   A    
C54   C62   A    
C26   O29   A    
C61   C73   A    
C7    O19   D    
C40   C67   A    
C42   C69   A    
C3    C105  A    
C89   H4    S    
C83   C105  A    
C82   C104  A    
C4    C102  A    
C17   C103  A    
C37   C43   A    
C33   O17   A    
C43   C44   A    
C30   O25   A    
C14   C34   A    
C85   C99   A    
C86   C93   A    
C13   C52   A    
C2    C38   A    
C28   O27   A    
C38   C54   A    
Cu3   O2    S    
C10   O22   D    
Cu1   O17   S    
Cu1   Cu2   S    
C57   C84   A    
C18   C104  A    
Cu2   O3    S    
C15   C101  A    
C60   Cl10  S    
Cu5   O26   S    
C27   O26   A    
C7    H6    S    
C12   C56   A    
C66   Cl4   S    
C19   C39   A    
C46   C65   A    
C55   C87   A    
C21   C41   A    
C4    C17   A    
C74   C107  A    
C25   O28   A    
C16   C102  A    
C6    C67   S    
Cu6   O10   S    
C22   O4    A    
C45   C54   A    
C95   H15   S    
Cu5   Cu6   S    
C20   O3    A    
Cu1   O1    S    
C26   O10   A    
C53   C76   A    
C5    C77   A    
C19   C105  A    
C47   C68   A    
C104  C108  A    
C12   C51   A    
C79   C92   A    
C53   Cl1   S    
C21   C61   A    
C23   O7    A    
C14   C107  A    
C32   C42   A    
C82   C95   A    
C8    H7    S    
C2    C59   A    
C62   Cl12  S    
C6    H5    S    
C39   C98   A    
C96   H14   S    
C14   C100  A    
C29   O14   A    
C21   C35   A    
C78   C91   A    
C55   Cl5   S    
C100  C106  A    
C33   C41   S    
C29   O23   A    
C63   Cl2   S    
C9    O21   D    
C18   C38   A    
C10   H9    S    
C24   O2    A    
C11   H10   S    
C19   C108  A    
C81   C94   A    
C73   C106  A    
C11   O24   D    
Cu3   O15   S    
C43   C66   A    
C83   C96   A    
C60   C74   A    
C28   O13   A    
Cu1   O5    S    
C22   C52   S    
C34   C87   A    
C48   C67   A    
Cu4   O8    S    
C92   H18   S    
C73   C86   A    
Cu2   O6    S    
C93   H11   S    
C75   C89   A    
C10   C71   S    
C91   C95   A    
C31   O1    A    
C56   Cl6   S    
C13   C57   A    
C89   C97   A    
Cu2   O16   S    
C74   C88   A    
C80   C93   A    
C58   C83   A    
C97   H13   S    
C16   C36   A    
C27   O11   A    
