data_mof_unit_57091.cif
_audit_creation_date              2012-10-26T19:39:37-0400
_audit_creation_method            fapswitch 2.2
_symmetry_space_group_name_H-M    P1
_symmetry_Int_Tables_number       1
_space_group_crystal_system       triclinic
_cell_length_a                    10.85382
_cell_length_b                    8.755731
_cell_length_c                    7.476302
_cell_angle_alpha                 103.240452
_cell_angle_beta                  92.203953
_cell_angle_gamma                 92.36553
_cell_volume                      690.181269808

loop_
_atom_site_label
_atom_site_type_symbol
_atom_type_description
_atom_site_fract_x
_atom_site_fract_y
_atom_site_fract_z
_atom_type_partial_charge
C1    C     C_R   0.484319 0.200605 0.454288 0.558377
C2    C     C_2   0.456622 0.033485 0.432097 -0.038826
C3    C     C_3   0.095483 0.693479 0.570206 -0.233783
C4    C     C_3   0.101445 0.770706 0.777156 -0.292491
C5    C     C_3   0.992660 0.723794 0.880073 -0.424040
C6    C     C_3   0.374777 0.937675 0.268635 -0.237940
C7    C     C_3   0.292289 0.026507 0.159098 -0.309117
C8    C     C_3   0.344965 0.028247 0.972556 -0.396710
C9    C     C_3   0.264154 0.399569 0.969454 -0.017046
C10   C     C_2   0.503598 0.967840 0.565164 -0.152983
C11   C     C_R   0.265896 0.503377 0.506491 0.527888
C12   C     C_R   0.500853 0.799940 0.545928 0.526366
C13   C     C_R   0.733408 0.490127 0.491913 0.546666
C14   C     C_2   0.933434 0.407552 0.577914 -0.161276
C15   C     C_2   0.862361 0.465909 0.464310 -0.121223
C16   C     C_2   0.065120 0.399403 0.547365 -0.159816
C17   C     C_2   0.135615 0.524583 0.528825 0.010753
Cu1   Cu    Cu3+1 0.513740 0.517380 0.684380 0.980793
Cu2   Cu    Cu3+1 0.486260 0.482620 0.315620 0.951664
H1    H     H_    0.895471 0.364244 0.690363 0.134863
H2    H     H_    0.102199 0.900014 0.792914 0.136563
H3    H     H_    0.160614 0.763227 0.505263 0.098322
H4    H     H_    0.004394 0.707650 0.506604 0.132496
H5    H     H_    0.435358 0.094685 0.990072 0.223656
H6    H     H_    0.359176 0.907056 0.895096 0.147570
H7    H     H_    0.279451 0.079550 0.888346 0.143660
H8    H     H_    0.199914 0.963977 0.131666 0.123066
H9    H     H_    0.275161 0.146369 0.238332 0.182372
H10   H     H_    0.434356 0.861783 0.171876 0.178355
H11   H     H_    0.310488 0.859171 0.323120 0.133633
H12   H     H_    0.899578 0.489857 0.339770 0.100037
H13   H     H_    0.256581 0.528473 0.022671 0.124646
H14   H     H_    0.228256 0.331236 0.065164 0.115432
H15   H     H_    0.202218 0.363502 0.844970 0.096384
H16   H     H_    0.105951 0.287062 0.541122 0.094821
H17   H     H_    0.553054 0.038478 0.687401 0.119867
H18   H     H_    0.596412 0.619810 0.049588 0.194353
H19   H     H_    0.903749 0.732306 0.805328 0.174910
H20   H     H_    0.001625 0.603151 0.900358 0.152348
H21   H     H_    0.992666 0.804219 0.018492 0.118574
H22   H     H_    0.188051 0.741885 0.842805 0.169864
N1    N     N_2   0.465540 0.456420 0.038510 0.043578
N2    N     N_2   0.534460 0.543580 0.961490 -0.201247
O1    O     O_R   0.508930 0.286130 0.619780 -0.458033
O2    O     O_R   0.485720 0.256780 0.308360 -0.497285
O3    O     O_R   0.333540 0.514670 0.655670 -0.475962
O4    O     O_R   0.310330 0.485320 0.344250 -0.543049
O5    O     O_R   0.514280 0.743220 0.691640 -0.518056
O6    O     O_R   0.491070 0.713870 0.380220 -0.533968
O7    O     O_R   0.689670 0.514680 0.655750 -0.504096
O8    O     O_R   0.666460 0.485330 0.344330 -0.516197
O9    O     O_3   0.384549 0.357999 0.921706 -0.448732

loop_
_geom_bond_atom_site_label_1
_geom_bond_atom_site_label_2
_ccdc_geom_bond_type
H18   N2    S    
Cu2   O2    S    
C15   H12   S    
C6    C7    S    
C4    H2    S    
Cu1   O1    S    
C8    H7    S    
Cu2   O6    S    
C1    O1    A    
C3    H4    S    
Cu2   N1    S    
C12   O5    A    
C13   C15   S    
C12   O6    A    
C7    C8    S    
C13   O8    A    
C5    H19   S    
C9    H14   S    
C8    H6    S    
C1    O2    A    
C2    C6    S    
C9    O9    S    
C10   C12   S    
Cu1   O3    S    
C8    H5    S    
C3    C17   S    
C14   C16   S    
C5    H20   S    
C16   H16   S    
C9    H15   S    
Cu2   O4    S    
C16   C17   D    
N1    N2    D    
C3    C4    S    
C2    C10   D    
Cu2   O8    S    
C6    H10   S    
C7    H8    S    
Cu1   O7    S    
C14   H1    S    
C1    C2    S    
C4    H22   S    
C5    H21   S    
C14   C15   D    
Cu1   Cu2   S    
C3    H3    S    
C10   H17   S    
C9    H13   S    
C6    H11   S    
Cu1   N2    S    
C11   O4    A    
C11   C17   S    
C7    H9    S    
C13   O7    A    
N1    O9    S    
C4    C5    S    
C11   O3    A    
Cu1   O5    S    
