data_mof_unit_47400.cif
_audit_creation_date              2012-12-10T20:20:40-0500
_audit_creation_method            fapswitch 2.2
_symmetry_space_group_name_H-M    P1
_symmetry_Int_Tables_number       1
_space_group_crystal_system       triclinic
_cell_length_a                    18.967568
_cell_length_b                    18.452753
_cell_length_c                    10.669787
_cell_angle_alpha                 89.790986
_cell_angle_beta                  89.860628
_cell_angle_gamma                 89.472655
_cell_volume                      3734.27273048

loop_
_atom_site_label
_atom_site_type_symbol
_atom_type_description
_atom_site_fract_x
_atom_site_fract_y
_atom_site_fract_z
_atom_type_partial_charge
C1    C     C_R   0.365290 0.500342 0.497240 0.905907
C2    C     C_R   0.634787 0.499673 0.497800 0.867578
C3    C     C_R   0.825412 0.551417 0.499363 0.508700
C4    C     C_R   0.196396 0.540672 0.329652 0.500955
C5    C     C_R   0.753608 0.548826 0.530801 -0.326202
C6    C     C_R   0.267339 0.542666 0.366401 -0.319171
C7    C     C_R   0.709745 0.498894 0.472701 -0.069045
C8    C     C_R   0.290974 0.501034 0.468054 -0.084397
C9    C     C_R   0.964847 0.564221 0.360031 -0.134653
C10   C     C_R   0.037965 0.562608 0.358993 -0.129478
C11   C     C_R   0.074204 0.496322 0.370696 0.159014
C12   C     C_R   0.927410 0.500027 0.378807 0.146101
C13   C     C_R   0.036419 0.431417 0.375099 -0.197630
C14   C     C_R   0.963321 0.433283 0.380579 -0.191554
C15   C     C_R   0.535391 0.726047 0.408701 0.064345
C16   C     C_R   0.465245 0.726077 0.592364 0.006715
C17   C     C_R   0.536540 0.802112 0.407999 -0.311986
C18   C     C_R   0.465750 0.802117 0.595872 -0.290950
C19   C     C_R   0.501286 0.841250 0.502271 0.143003
C20   C     C_R   0.437901 0.962329 0.480939 0.025934
C21   C     C_R   0.564257 0.961289 0.523227 0.026170
C22   C     C_R   0.503298 0.500156 0.259857 0.910639
C23   C     C_R   0.503146 0.499937 0.740147 0.970972
C24   C     C_R   0.437970 0.039001 0.481326 0.108046
C25   C     C_R   0.564085 0.037969 0.521088 0.109855
C26   C     C_R   0.501018 0.077203 0.500550 0.150750
C27   C     C_R   0.501139 0.922598 0.502282 -0.015735
C28   C     C_R   0.514095 0.196884 0.611915 0.362645
C29   C     C_R   0.487032 0.197398 0.388542 0.357598
C30   C     C_R   0.511458 0.273787 0.608916 -0.170109
C31   C     C_R   0.488621 0.274245 0.391256 -0.162473
C32   C     C_R   0.500853 0.158667 0.500236 0.000332
C33   C     C_R   0.495623 0.563599 0.063174 0.020306
C34   C     C_R   0.494233 0.562749 0.936344 -0.042507
C35   C     C_R   0.515575 0.501660 0.128633 -0.168885
C36   C     C_R   0.514972 0.501083 0.871423 -0.112987
C37   C     C_R   0.551096 0.444576 0.066271 0.068329
C38   C     C_R   0.551642 0.444641 0.933978 0.037404
C39   C     C_3   0.428715 0.608440 0.929353 0.240220
C40   C     C_3   0.430976 0.610378 0.072597 0.241423
C41   C     C_R   0.736519 0.451039 0.382863 -0.183243
C42   C     C_R   0.245110 0.455705 0.532596 -0.201971
C43   C     C_R   0.807111 0.453315 0.350116 -0.265232
C44   C     C_R   0.174734 0.453875 0.498529 -0.239652
C45   C     C_R   0.851987 0.502705 0.408302 0.015536
C46   C     C_R   0.150010 0.495710 0.397053 0.015271
H1    H     H_    0.562663 0.696208 0.335905 0.150307
H2    H     H_    0.437069 0.696243 0.663636 0.126763
H3    H     H_    0.564004 0.830211 0.333476 0.144679
H4    H     H_    0.438637 0.830150 0.671096 0.136960
H5    H     H_    0.518210 0.304596 0.693474 0.168852
H6    H     H_    0.480971 0.305331 0.306584 0.151697
H7    H     H_    0.438649 0.661090 0.881360 0.096029
H8    H     H_    0.386957 0.582926 0.122927 0.064433
H9    H     H_    0.702408 0.412992 0.335975 0.163707
H10   H     H_    0.263618 0.422690 0.610224 0.159303
H11   H     H_    0.826876 0.416295 0.279421 0.155314
H12   H     H_    0.139232 0.420498 0.552965 0.159274
H13   H     H_    0.732088 0.583890 0.602733 0.140513
H14   H     H_    0.305077 0.573812 0.312986 0.128198
H15   H     H_    0.937653 0.615935 0.353821 0.139343
H16   H     H_    0.065817 0.613495 0.357599 0.141101
H17   H     H_    0.063568 0.379669 0.382349 0.138276
H18   H     H_    0.935217 0.382999 0.393941 0.139310
N1    N     N_R   0.500000 0.689440 0.500000 -0.096405
N2    N     N_R   0.500000 0.310560 0.500000 -0.111352
O1    O     O_R   0.398180 0.560840 0.499970 -0.619242
O2    O     O_R   0.601820 0.560840 0.500030 -0.626530
O3    O     O_R   0.398180 0.439210 0.499910 -0.603657
O4    O     O_R   0.601820 0.439210 0.500090 -0.610297
O5    O     O_R   0.499990 0.560820 0.316770 -0.612204
O6    O     O_R   0.500010 0.560820 0.683230 -0.628839
O7    O     O_R   0.499990 0.439200 0.316710 -0.608764
O8    O     O_R   0.500010 0.439200 0.683290 -0.610632
Zn1   Zn    Zn3+2 0.500000 0.581210 0.500000 0.952239
Zn2   Zn    Zn3+2 0.500000 0.418790 0.500000 0.957771
N3    N     N_3   0.584446 0.387683 0.137306 -0.445257
H19   H     H_    0.561466 0.338292 0.113802 0.177941
H20   H     H_    0.638120 0.386138 0.114913 0.171076
N4    N     N_3   0.586804 0.388799 0.862617 -0.465434
H21   H     H_    0.629094 0.412843 0.815772 0.180866
H22   H     H_    0.608178 0.347981 0.918951 0.160724
N5    N     N_3   0.372872 0.925969 0.456308 -0.477850
H23   H     H_    0.380533 0.890523 0.381257 0.197309
H24   H     H_    0.358682 0.895961 0.535422 0.187196
N6    N     N_3   0.629170 0.923830 0.549822 -0.476092
H25   H     H_    0.621160 0.889012 0.625956 0.199186
H26   H     H_    0.643655 0.893036 0.471854 0.187499
N7    N     N_3   0.373309 0.078726 0.464581 -0.447451
H27   H     H_    0.338469 0.063611 0.535902 0.192841
H28   H     H_    0.351301 0.063737 0.378931 0.207262
N8    N     N_3   0.628590 0.076638 0.538042 -0.445566
H29   H     H_    0.663907 0.060563 0.467861 0.191867
H30   H     H_    0.650029 0.061710 0.624595 0.209390
O9    O     O_3   0.524067 0.156702 0.721642 -0.602348
C47   C     C_3   0.568449 0.191430 0.808643 0.089791
H31   H     H_    0.537237 0.231207 0.864391 0.150140
H32   H     H_    0.613612 0.218884 0.761806 0.138175
C48   C     C_3   0.598821 0.135212 0.898583 -0.805740
H33   H     H_    0.632690 0.096068 0.846843 0.244238
H34   H     H_    0.631101 0.162421 0.970915 0.205671
H35   H     H_    0.555721 0.105247 0.945582 0.262968
O10   O     O_3   0.477939 0.157994 0.278564 -0.604264
C49   C     C_3   0.428971 0.191165 0.196179 0.096326
H36   H     H_    0.455494 0.233866 0.139928 0.138537
H37   H     H_    0.382898 0.214802 0.247357 0.139566
C50   C     C_3   0.401200 0.134612 0.105913 -0.797796
H38   H     H_    0.373019 0.091575 0.158257 0.243233
H39   H     H_    0.364107 0.160524 0.038603 0.208785
H40   H     H_    0.445423 0.109582 0.052884 0.260598
O11   O     O_3   0.371886 0.568150 0.881073 -0.615589
C51   C     C_3   0.309862 0.611043 0.881174 0.077643
H41   H     H_    0.319251 0.667299 0.846841 0.116215
H42   H     H_    0.287333 0.612875 0.977260 0.151112
C52   C     C_3   0.255760 0.576930 0.795383 -0.775114
H43   H     H_    0.246274 0.519864 0.823739 0.261694
H44   H     H_    0.205290 0.607754 0.800728 0.202492
H45   H     H_    0.275214 0.578388 0.697335 0.247231
O12   O     O_3   0.448971 0.679721 0.117586 -0.600237
C53   C     C_3   0.387157 0.720224 0.143341 0.090606
H46   H     H_    0.366847 0.705353 0.237770 0.147574
H47   H     H_    0.345209 0.711736 0.072340 0.097735
C54   C     C_3   0.404208 0.800540 0.141388 -0.828313
H48   H     H_    0.423885 0.816396 0.047161 0.250388
H49   H     H_    0.355973 0.832727 0.163017 0.199781
H50   H     H_    0.445058 0.812711 0.211970 0.263162
O13   O     O_3   0.871863 0.594229 0.566341 -0.612807
C55   C     C_3   0.849324 0.667489 0.566407 0.076772
H51   H     H_    0.807776 0.676115 0.638584 0.151535
H52   H     H_    0.829130 0.685016 0.472829 0.124400
C56   C     C_3   0.911476 0.715259 0.599436 -0.824155
H53   H     H_    0.954090 0.708691 0.528714 0.244454
H54   H     H_    0.894343 0.772956 0.601113 0.204537
H55   H     H_    0.932297 0.700127 0.693248 0.263991
O14   O     O_3   0.172575 0.575100 0.221369 -0.612745
C57   C     C_3   0.193304 0.648462 0.217930 0.070352
H56   H     H_    0.249023 0.652601 0.187517 0.117814
H57   H     H_    0.186316 0.675292 0.310714 0.127736
C58   C     C_3   0.148320 0.689054 0.122521 -0.837640
H58   H     H_    0.091887 0.686861 0.150142 0.253711
H59   H     H_    0.164767 0.746602 0.117706 0.201973
H60   H     H_    0.154919 0.664300 0.028430 0.258274

loop_
_geom_bond_atom_site_label_1
_geom_bond_atom_site_label_2
_ccdc_geom_bond_type
C31   N2    A    
C30   H5    S    
C26   C32   S    
C1    C8    S    
C50   H39   S    
C44   H12   S    
O9    C47   S    
C15   H1    S    
C31   H6    S    
C56   H55   S    
C55   H51   S    
C16   H2    S    
C49   H37   S    
C54   H48   S    
C4    C46   A    
N3    H19   S    
O2    Zn1   S    
C22   C35   S    
O8    Zn2   S    
C28   O9    S    
C9    H15   S    
C35   C37   A    
C8    C42   A    
C29   C32   A    
C2    O2    A    
C57   C58   S    
C33   C35   A    
C58   H60   S    
C3    O13   S    
C54   H49   S    
C52   H43   S    
C15   N1    A    
C47   C48   S    
C29   O10   S    
O3    Zn2   S    
C18   C19   A    
C20   C24   A    
C41   H9    S    
C42   H10   S    
C2    C7    S    
C44   C46   A    
C52   H44   S    
C47   H32   S    
C50   H38   S    
N7    H28   S    
C19   C27   S    
C9    C10   A    
C34   C36   A    
C53   C54   S    
C39   O11   S    
C21   C27   A    
N2    Zn2   S    
C13   C14   A    
C24   N7    S    
C41   C43   A    
C10   H16   S    
C42   C44   A    
O6    Zn1   S    
C51   H42   S    
C49   H36   S    
C53   H47   S    
N3    H20   S    
C33   C40   S    
C5    H13   S    
C34   C39   S    
C6    H14   S    
O14   C57   S    
N4    H22   S    
C17   H3    S    
C39   C40   S    
C5    C7    A    
N6    H25   S    
C12   C45   S    
C54   H50   S    
C6    C8    A    
C56   H54   S    
C25   C26   A    
C37   N3    S    
C3    C45   A    
C1    O3    A    
C37   C38   A    
C48   H33   S    
C13   H17   S    
C28   C32   A    
C58   H58   S    
C52   H45   S    
C14   H18   S    
C47   H31   S    
C40   O12   S    
N8    H30   S    
C33   C34   A    
C58   H59   S    
C43   C45   A    
C49   C50   S    
C30   N2    A    
C4    O14   S    
C4    C6    A    
N5    H24   S    
C12   C14   A    
C40   H8    S    
O4    Zn2   S    
C50   H40   S    
N5    H23   S    
O1    Zn1   S    
C23   O8    A    
C17   C19   A    
O13   C55   S    
C55   C56   S    
C22   O5    A    
C53   H46   S    
C18   H4    S    
C57   H57   S    
C15   C17   A    
C21   C25   A    
C21   N6    S    
C25   N8    S    
O11   C51   S    
C48   H34   S    
C23   O6    A    
C24   C26   A    
N4    H21   S    
C3    C5    A    
C55   H52   S    
O12   C53   S    
C20   C27   A    
C51   H41   S    
N1    Zn1   S    
C28   C30   A    
C29   C31   A    
O5    Zn1   S    
C11   C13   A    
C39   H7    S    
C38   N4    S    
C36   C38   A    
N8    H29   S    
C1    O1    A    
N6    H26   S    
C7    C41   A    
C9    C12   A    
C10   C11   A    
C43   H11   S    
C48   H35   S    
O7    Zn2   S    
C16   C18   A    
C23   C36   S    
C20   N5    S    
O10   C49   S    
C57   H56   S    
C11   C46   S    
C16   N1    A    
C22   O7    A    
N7    H27   S    
C2    O4    A    
C51   C52   S    
C56   H53   S    
