data_mof_unit_5282.cif
_audit_creation_date              2012-12-10T19:27:36-0500
_audit_creation_method            fapswitch 2.2
_symmetry_space_group_name_H-M    P1
_symmetry_Int_Tables_number       1
_space_group_crystal_system       triclinic
_cell_length_a                    23.37539
_cell_length_b                    10.485153
_cell_length_c                    9.797488
_cell_angle_alpha                 89.433845
_cell_angle_beta                  89.871209
_cell_angle_gamma                 89.899654
_cell_volume                      2401.18393343

loop_
_atom_site_label
_atom_site_type_symbol
_atom_type_description
_atom_site_fract_x
_atom_site_fract_y
_atom_site_fract_z
_atom_type_partial_charge
C1    C     C_R   0.500364 0.257784 0.500571 0.946210
C2    C     C_R   0.700383 0.619644 0.455710 -0.169184
C3    C     C_R   0.240061 0.376792 0.553698 -0.054178
C4    C     C_R   0.760812 0.622503 0.456915 -0.049262
C5    C     C_R   0.209105 0.486528 0.512440 0.090070
C6    C     C_R   0.790938 0.515055 0.507470 0.083784
C7    C     C_3   0.504554 0.039134 0.630225 -0.206460
C8    C     C_3   0.495426 0.960777 0.369582 -0.207176
C9    C     C_3   0.549184 0.955959 0.555066 -0.218479
C10   C     C_3   0.450804 0.043957 0.444702 -0.241700
C11   C     C_3   0.499735 0.877107 0.498352 -0.168008
C12   C     C_R   0.499715 0.742198 0.499397 0.947839
C13   C     C_3   0.500249 0.122836 0.501470 -0.163195
C14   C     C_3   0.455665 0.958217 0.572499 0.452393
C15   C     C_3   0.544312 0.041720 0.427268 0.459368
C16   C     C_R   0.389852 0.499214 0.500227 0.936728
C17   C     C_R   0.610145 0.501555 0.499835 0.936147
C18   C     C_3   0.478681 0.396245 0.048901 -0.103923
C19   C     C_3   0.521314 0.603761 0.951101 -0.102763
C20   C     C_3   0.529786 0.406803 0.953025 0.412769
C21   C     C_3   0.470209 0.593199 0.046986 0.408391
C22   C     C_3   0.448260 0.489154 0.951315 -0.151483
C23   C     C_R   0.237125 0.596434 0.464751 0.381377
C24   C     C_3   0.551737 0.510847 0.048685 -0.166372
C25   C     C_R   0.880218 0.542716 0.623546 0.690847
C26   C     C_R   0.119798 0.454833 0.397890 0.636140
C27   C     C_R   0.879777 0.478560 0.389993 0.628490
C28   C     C_R   0.120317 0.523046 0.630077 0.690516
C29   C     C_R   0.939948 0.472447 0.387190 -0.112994
C30   C     C_R   0.060120 0.527447 0.633474 -0.125902
C31   C     C_R   0.969907 0.502187 0.508743 -0.047919
C32   C     C_R   0.030137 0.496647 0.512274 -0.048450
C33   C     C_R   0.939750 0.537550 0.627164 -0.084826
C34   C     C_R   0.762112 0.405722 0.553585 0.379878
C35   C     C_R   0.060277 0.460390 0.394149 -0.075574
C36   C     C_R   0.971360 0.437555 0.269181 0.434333
C37   C     C_R   0.028707 0.561619 0.751714 0.436001
C38   C     C_R   0.030733 0.431453 0.274388 -0.121089
C39   C     C_R   0.969300 0.566360 0.746961 -0.120043
C40   C     C_2   0.453886 0.276378 0.107765 0.548419
C41   C     C_2   0.546111 0.723623 0.892226 0.526438
C42   C     C_2   0.335692 0.272852 0.605046 0.484962
C43   C     C_2   0.666133 0.734509 0.416036 0.420841
C44   C     C_2   0.209837 0.255478 0.588435 0.611232
C45   C     C_R   0.296520 0.598617 0.456733 0.356113
C46   C     C_2   0.792316 0.733908 0.398536 0.622129
C47   C     C_R   0.702705 0.401356 0.549206 0.353112
C48   C     C_R   0.327933 0.492132 0.501382 -0.237529
C49   C     C_R   0.672088 0.507271 0.499697 -0.240914
C50   C     C_R   0.300446 0.381416 0.552526 -0.186248
Cl1   Cl    Cl    0.940317 0.400801 0.110170 -0.420964
Cl2   Cl    Cl    0.602651 0.100820 0.328082 -0.454856
Cl3   Cl    Cl    0.059796 0.598212 0.910714 -0.414411
Cl4   Cl    Cl    0.571356 0.279347 0.886659 -0.488684
Cl5   Cl    Cl    0.428596 0.720554 0.113460 -0.484375
Cl6   Cl    Cl    0.196845 0.731438 0.413639 -0.412773
Cl7   Cl    Cl    0.801416 0.272240 0.613109 -0.387617
Cl8   Cl    Cl    0.331570 0.737391 0.395627 -0.394874
Cl9   Cl    Cl    0.666728 0.261508 0.604012 -0.375762
Cl10  Cl    Cl    0.397101 0.899456 0.671139 -0.459089
H1    H     H_    0.404938 0.480055 0.906252 0.208670
H2    H     H_    0.521525 0.811441 0.893559 0.087541
H3    H     H_    0.377195 0.253248 0.560443 0.036214
H4    H     H_    0.624525 0.724380 0.368858 0.076103
H5    H     H_    0.230847 0.164552 0.572328 0.125922
H6    H     H_    0.773489 0.790276 0.316756 0.117955
H7    H     H_    0.595060 0.519925 0.093745 0.196747
H8    H     H_    0.053840 0.404341 0.183106 0.244165
H9    H     H_    0.946185 0.592758 0.838474 0.240339
H10   H     H_    0.589128 0.916225 0.599484 0.240383
H11   H     H_    0.410735 0.083142 0.400309 0.211754
H12   H     H_    0.507557 0.073722 0.736638 0.226355
H13   H     H_    0.492424 0.926172 0.263175 0.223397
H14   H     H_    0.478516 0.188617 0.106661 0.083924
N1    N     N_R   0.851945 0.513408 0.506554 -0.333589
N2    N     N_R   0.148112 0.486395 0.514104 -0.334256
N3    N     N_3   0.499960 0.500030 0.863290 -0.142432
N4    N     N_3   0.500040 0.499970 0.136710 -0.142496
O1    O     O_R   0.500000 0.313960 0.616610 -0.590912
O2    O     O_2   0.149518 0.419234 0.286177 -0.482839
O3    O     O_2   0.848708 0.449660 0.278829 -0.446858
O4    O     O_2   0.151445 0.554917 0.740183 -0.417102
O5    O     O_2   0.406592 0.277701 0.160642 -0.527662
O6    O     O_2   0.593358 0.722241 0.839103 -0.523946
O7    O     O_2   0.320045 0.208241 0.702481 -0.494319
O8    O     O_2   0.682950 0.841957 0.440880 -0.491455
O9    O     O_2   0.161457 0.254839 0.635501 -0.526438
O10   O     O_2   0.839214 0.764922 0.441418 -0.525364
O11   O     O_R   0.500000 0.686040 0.383390 -0.597746
O12   O     O_R   0.500030 0.313950 0.383350 -0.613150
O13   O     O_R   0.499970 0.686050 0.616650 -0.610862
O14   O     O_R   0.416140 0.499970 0.616650 -0.623340
O15   O     O_R   0.583860 0.500030 0.383350 -0.637001
O16   O     O_R   0.416170 0.499960 0.383400 -0.539539
O17   O     O_R   0.583830 0.500040 0.616600 -0.535351
O18   O     O_2   0.850456 0.576534 0.735843 -0.469870
Zn1   Zn    Zn3+2 0.499980 0.500010 0.655740 1.061157
Zn2   Zn    Zn3+2 0.500020 0.499990 0.344260 1.048449

loop_
_geom_bond_atom_site_label_1
_geom_bond_atom_site_label_2
_ccdc_geom_bond_type
C1    O12   A    
C23   C45   A    
C27   C29   A    
C12   O13   A    
C16   C48   S    
C23   Cl6   S    
C47   C49   A    
C4    C46   S    
C29   C36   A    
C33   C39   A    
C20   N3    S    
C19   C21   S    
C46   H6    S    
C11   C14   S    
O16   Zn2   S    
C19   N3    S    
C18   C40   S    
C43   H4    S    
C24   H7    S    
C7    C14   S    
C20   C24   S    
C21   N4    S    
N4    Zn2   S    
C34   Cl7   S    
C26   N2    A    
C31   C33   A    
N3    Zn1   S    
C17   O17   A    
C44   O9    D    
C37   Cl3   S    
C10   H11   S    
C48   C50   A    
C21   C22   S    
C40   O5    D    
C44   H5    S    
C41   H2    S    
C27   N1    A    
C3    C50   A    
O14   Zn1   S    
C46   O10   D    
C45   Cl8   S    
C3    C44   S    
C28   O4    S    
C32   C35   A    
C12   O11   A    
C27   O3    S    
C35   C38   A    
C9    H10   S    
C20   Cl4   S    
C10   C14   S    
C17   C49   S    
C7    H12   S    
C21   Cl5   S    
C41   O6    D    
C26   O2    S    
C6    C34   A    
C30   C37   A    
C25   N1    A    
C2    C4    A    
C2    C49   A    
C31   C32   A    
C5    C23   A    
C2    C43   S    
C18   N4    S    
C39   H9    S    
C42   O7    D    
C15   Cl2   S    
O13   Zn1   S    
C9    C11   S    
C36   Cl1   S    
C42   C50   S    
C4    C6    A    
C38   H8    S    
C16   O14   A    
C8    C15   S    
C13   C15   S    
C1    O1    A    
C17   O15   A    
C28   N2    A    
C45   C48   A    
C24   N4    S    
C7    C9    S    
C18   C22   S    
C43   O8    D    
O1    Zn1   S    
C8    C10   S    
C22   N3    S    
C3    C5    A    
C10   C13   S    
C11   C12   S    
O17   Zn1   S    
C14   Cl10  S    
C16   O16   A    
O11   Zn2   S    
C5    N2    S    
C28   C30   A    
C19   C24   S    
C9    C15   S    
C29   C31   A    
C22   H1    S    
C30   C32   A    
C8    C11   S    
O15   Zn2   S    
C36   C38   A    
C8    H13   S    
C40   H14   S    
C18   C20   S    
C47   Cl9   S    
C26   C35   A    
C7    C13   S    
C1    C13   S    
C25   O18   S    
C37   C39   A    
C34   C47   A    
C42   H3    S    
O12   Zn2   S    
C19   C41   S    
C25   C33   A    
C6    N1    S    
