data_mof_unit_24400.cif
_audit_creation_date              2012-12-10T17:24:16-0500
_audit_creation_method            fapswitch 2.2
_symmetry_space_group_name_H-M    P1
_symmetry_Int_Tables_number       1
_space_group_crystal_system       triclinic
_cell_length_a                    19.442829
_cell_length_b                    10.86368
_cell_length_c                    9.544432
_cell_angle_alpha                 91.006889
_cell_angle_beta                  89.969825
_cell_angle_gamma                 93.318216
_cell_volume                      2012.29047293

loop_
_atom_site_label
_atom_site_type_symbol
_atom_type_description
_atom_site_fract_x
_atom_site_fract_y
_atom_site_fract_z
_atom_type_partial_charge
C1    C     C_R   0.505509 0.263293 0.499384 0.805060
C2    C     C_R   0.852961 0.523344 0.493107 0.048497
C3    C     C_R   0.559437 0.131107 0.742240 -0.169263
C4    C     C_R   0.366836 0.503397 0.500305 0.792990
C5    C     C_R   0.559797 0.076810 0.874020 0.198207
C6    C     C_R   0.526942 0.960284 0.889437 -0.194435
C7    C     C_R   0.501261 0.894046 0.772388 -0.210001
C8    C     C_R   0.507898 0.942859 0.635836 0.099977
C9    C     C_R   0.527265 0.069212 0.625601 0.053152
C10   C     C_R   0.512363 0.130101 0.500019 -0.103758
C11   C     C_R   0.494460 0.061530 0.378872 -0.216322
C12   C     C_R   0.289750 0.513317 0.501673 -0.116991
C13   C     C_R   0.488865 0.934288 0.382283 -0.231778
C14   C     C_R   0.495424 0.872939 0.509150 -0.105314
C15   C     C_R   0.592034 0.666121 0.147291 -0.174593
C16   C     C_R   0.497143 0.737973 0.502375 0.779059
C17   C     C_R   0.638456 0.746630 0.076522 0.140075
C18   C     C_R   0.638485 0.743006 0.931371 -0.267229
C19   C     C_R   0.592447 0.663776 0.858121 -0.185271
C20   C     C_R   0.544991 0.581774 0.926489 0.194207
C21   C     C_R   0.544854 0.582346 0.076219 0.162308
C22   C     C_R   0.459769 0.418106 0.072445 -0.083540
C23   C     C_R   0.928777 0.523916 0.496318 0.404375
C24   C     C_R   0.459226 0.418870 0.924280 -0.074067
C25   C     C_R   0.632396 0.501314 0.499819 0.774690
C26   C     C_R   0.251786 0.515129 0.631636 0.128847
C27   C     C_R   0.179897 0.521371 0.629224 -0.194380
C28   C     C_R   0.143792 0.524032 0.503869 -0.010136
C29   C     C_R   0.179673 0.525472 0.378022 -0.189503
C30   C     C_R   0.251482 0.522311 0.373495 0.127637
C31   C     C_3   0.283480 0.509299 0.776969 -0.370041
C32   C     C_3   0.315786 0.634607 0.825465 -0.781761
C33   C     C_3   0.590991 0.146338 0.999177 -0.415876
C34   C     C_R   0.068108 0.523241 0.502803 0.428686
C35   C     C_3   0.667732 0.179555 0.978500 -0.835206
C36   C     C_3   0.689997 0.836517 0.149675 -0.404678
C37   C     C_3   0.679795 0.855581 0.307333 -0.862995
C38   C     C_3   0.281945 0.524187 0.226819 -0.366303
C39   C     C_3   0.287802 0.393028 0.170067 -0.820613
C40   C     C_3   0.848899 0.589533 0.233504 -0.410676
C41   C     C_3   0.883390 0.719028 0.249448 -0.804772
C42   C     C_R   0.817047 0.496520 0.617796 -0.200470
C43   C     C_R   0.745382 0.489370 0.620671 -0.198332
C44   C     C_R   0.708048 0.507351 0.498251 -0.060312
C45   C     C_R   0.743301 0.534999 0.373568 -0.232722
C46   C     C_R   0.815390 0.546571 0.369352 0.178542
Cu1   Cu    Cu3+1 0.500000 0.499990 0.640660 0.913596
Cu2   Cu    Cu3+1 0.500000 0.500010 0.359340 0.920430
H1    H     H_    0.585182 0.221328 0.731732 0.166351
H2    H     H_    0.426224 0.351842 0.867429 0.133998
H3    H     H_    0.151039 0.528972 0.280831 0.155477
H4    H     H_    0.844586 0.479166 0.713445 0.156815
H5    H     H_    0.719256 0.468332 0.718394 0.155940
H6    H     H_    0.714345 0.551420 0.279452 0.157226
H7    H     H_    0.484164 0.106229 0.281107 0.155173
H8    H     H_    0.343634 0.624160 0.925743 0.230595
H9    H     H_    0.352497 0.674474 0.747253 0.260730
H10   H     H_    0.274774 0.700267 0.842890 0.234777
H11   H     H_    0.243557 0.481826 0.855760 0.183183
H12   H     H_    0.521926 0.919384 0.991931 0.141920
H13   H     H_    0.319870 0.434986 0.783084 0.206505
H14   H     H_    0.695113 0.097023 0.945342 0.246498
H15   H     H_    0.675575 0.251580 0.898016 0.242675
H16   H     H_    0.690423 0.216402 0.078549 0.248585
H17   H     H_    0.563663 0.232218 0.017039 0.211445
H18   H     H_    0.584686 0.090388 0.095283 0.204364
H19   H     H_    0.627085 0.884705 0.329297 0.263056
H20   H     H_    0.689057 0.770328 0.364830 0.246767
H21   H     H_    0.717228 0.929301 0.346459 0.250756
H22   H     H_    0.742685 0.805520 0.130688 0.210751
H23   H     H_    0.473511 0.807762 0.793578 0.179117
H24   H     H_    0.686996 0.928033 0.100969 0.217761
H25   H     H_    0.310961 0.395685 0.063885 0.223861
H26   H     H_    0.319858 0.339494 0.240223 0.255610
H27   H     H_    0.235821 0.345319 0.161847 0.246942
H28   H     H_    0.247790 0.571391 0.154067 0.183127
H29   H     H_    0.330917 0.580789 0.219696 0.222033
H30   H     H_    0.845748 0.784388 0.289185 0.251115
H31   H     H_    0.927702 0.720191 0.322615 0.262165
H32   H     H_    0.902638 0.750835 0.145897 0.242495
H33   H     H_    0.886004 0.523379 0.194474 0.227651
H34   H     H_    0.478145 0.883864 0.285028 0.164599
H35   H     H_    0.809754 0.592951 0.148930 0.192067
H36   H     H_    0.428253 0.349265 0.126763 0.139524
H37   H     H_    0.595511 0.670157 0.257279 0.220917
H38   H     H_    0.673881 0.803951 0.873607 0.158411
H39   H     H_    0.596077 0.672004 0.747782 0.216523
H40   H     H_    0.151319 0.521761 0.726772 0.152692
N1    N     N_R   0.032467 0.482582 0.387337 -0.243693
N2    N     N_R   0.964175 0.482244 0.384601 -0.245211
N3    N     N_R   0.964282 0.562667 0.613013 -0.243191
N4    N     N_R   0.032726 0.562358 0.616233 -0.241664
N5    N     N_R   0.500660 0.501210 0.147910 -0.188645
N6    N     N_R   0.500680 0.501290 0.852040 -0.191342
O1    O     O_R   0.499990 0.319640 0.618810 -0.588066
O2    O     O_R   0.500000 0.319660 0.381240 -0.580170
O3    O     O_R   0.400140 0.499970 0.618820 -0.570320
O4    O     O_R   0.400150 0.500000 0.381250 -0.570688
O5    O     O_R   0.500000 0.680340 0.618760 -0.613100
O6    O     O_R   0.500010 0.680360 0.381190 -0.601260
O7    O     O_R   0.599850 0.500000 0.618750 -0.603667
O8    O     O_R   0.599860 0.500030 0.381180 -0.598185

loop_
_geom_bond_atom_site_label_1
_geom_bond_atom_site_label_2
_ccdc_geom_bond_type
Cu1   O7    S    
C4    O4    A    
C31   H13   S    
C19   C20   A    
C32   H10   S    
C41   H32   S    
C3    H1    S    
C33   H17   S    
C7    C8    A    
C38   H28   S    
C45   C46   A    
C2    C46   A    
C40   C46   S    
C26   C27   A    
C18   H38   S    
C28   C29   A    
C37   H21   S    
C7    H23   S    
C38   C39   S    
C25   O8    A    
C37   H20   S    
Cu1   O5    S    
C30   C38   S    
C18   C19   A    
C39   H26   S    
C31   H11   S    
C43   H5    S    
C31   C32   S    
C8    C9    A    
C5    C33   S    
C35   H16   S    
C17   C36   S    
C39   H27   S    
C4    C12   S    
C9    C10   A    
C15   H37   S    
C28   C34   S    
C26   C31   S    
C13   C14   A    
C40   H35   S    
C32   H9    S    
C25   C44   S    
C36   H22   S    
C33   H18   S    
C24   H2    S    
Cu2   O6    S    
Cu2   N5    S    
C6    H12   S    
N3    N4    A    
C16   O6    A    
C13   H34   S    
C12   C26   A    
C22   H36   S    
C43   C44   A    
C29   C30   A    
C3    C9    A    
C24   N6    A    
Cu1   Cu2   S    
C1    O1    A    
Cu2   O8    S    
C2    C23   S    
C17   C18   A    
C23   N2    A    
C40   C41   S    
C45   H6    S    
C22   N5    A    
C22   C24   A    
C42   C43   A    
C41   H30   S    
C11   H7    S    
C44   C45   A    
C29   H3    S    
C15   C17   A    
C20   N6    A    
C36   C37   S    
C8    C14   A    
Cu2   O2    S    
C12   C30   A    
C14   C16   S    
C40   H33   S    
C1    C10   S    
C3    C5    A    
C41   H31   S    
C16   O5    A    
C6    C7    A    
C38   H29   S    
Cu2   O4    S    
C19   H39   S    
Cu1   O3    S    
C34   N1    A    
C11   C13   A    
C25   O7    A    
C5    C6    A    
C21   N5    A    
C2    C42   A    
C1    O2    A    
C37   H19   S    
C33   C35   S    
Cu1   N6    S    
C35   H14   S    
C23   N3    A    
C39   H25   S    
C27   H40   S    
C34   N4    A    
C10   C11   A    
C15   C21   A    
C20   C21   A    
C27   C28   A    
Cu1   O1    S    
C35   H15   S    
N1    N2    A    
C4    O3    A    
C32   H8    S    
C36   H24   S    
C42   H4    S    
