data_mof_unit_43317.cif
_audit_creation_date              2012-12-10T20:52:40-0500
_audit_creation_method            fapswitch 2.2
_symmetry_space_group_name_H-M    P1
_symmetry_Int_Tables_number       1
_space_group_crystal_system       triclinic
_cell_length_a                    8.588379
_cell_length_b                    15.846598
_cell_length_c                    15.087643
_cell_angle_alpha                 90.540248
_cell_angle_beta                  98.710045
_cell_angle_gamma                 89.310301
_cell_volume                      2029.48873915

loop_
_atom_site_label
_atom_site_type_symbol
_atom_type_description
_atom_site_fract_x
_atom_site_fract_y
_atom_site_fract_z
_atom_type_partial_charge
C1    C     C_R   0.502156 0.338957 0.499755 0.899756
C2    C     C_R   0.799533 0.499956 0.523318 0.970343
C3    C     C_2   0.035697 0.500031 0.463893 -0.372542
C4    C     C_2   0.964302 0.499974 0.536107 -0.372554
C5    C     C_R   0.386954 0.958753 0.541575 0.573330
C6    C     C_R   0.613455 0.041245 0.458705 0.573357
C7    C     C_R   0.493916 0.913020 0.498256 -0.132854
C8    C     C_R   0.506455 0.086984 0.501994 -0.133231
C9    C     C_R   0.607843 0.953484 0.456379 -0.193394
C10   C     C_R   0.392563 0.046521 0.543916 -0.192957
C11   C     C_1   0.490757 0.824060 0.500246 0.070495
C12   C     C_R   0.497847 0.661043 0.500247 0.899673
C13   C     C_1   0.509477 0.175942 0.499869 0.070639
C14   C     C_1   0.507169 0.250707 0.499305 -0.166395
C15   C     C_1   0.492946 0.749294 0.500725 -0.166629
C16   C     C_R   0.378484 0.462284 0.941086 0.573943
C17   C     C_R   0.621515 0.537714 0.058913 0.574009
C18   C     C_R   0.279248 0.095124 0.589888 0.200552
C19   C     C_R   0.332541 0.142244 0.667684 -0.146480
C20   C     C_R   0.225892 0.189605 0.709773 -0.116765
C21   C     C_R   0.065660 0.190111 0.674593 -0.125235
C22   C     C_R   0.011885 0.143404 0.597175 -0.140128
C23   C     C_R   0.503884 0.498863 0.905385 -0.191560
C24   C     C_R   0.118275 0.096177 0.554722 -0.077741
C25   C     C_R   0.721172 0.904873 0.410451 0.201115
C26   C     C_R   0.668092 0.858409 0.332174 -0.145665
C27   C     C_R   0.774722 0.810988 0.290130 -0.116697
C28   C     C_R   0.934705 0.809749 0.325859 -0.125159
C29   C     C_R   0.988246 0.855782 0.403779 -0.140222
C30   C     C_R   0.881875 0.903083 0.446175 -0.079511
C31   C     C_R   0.235026 0.426063 0.068236 0.177167
C32   C     C_R   0.145577 0.473944 0.121725 -0.128857
C33   C     C_R   0.018194 0.437827 0.154560 -0.079667
C34   C     C_R   0.496115 0.501135 0.094614 -0.191598
C35   C     C_R   0.976480 0.354472 0.132582 -0.126807
C36   C     C_R   0.063239 0.306725 0.078510 -0.162036
C37   C     C_R   0.192342 0.342120 0.046685 -0.074432
C38   C     C_R   0.764969 0.573938 0.931762 0.177180
C39   C     C_R   0.854422 0.526058 0.878275 -0.128843
C40   C     C_R   0.981801 0.562177 0.845438 -0.079672
C41   C     C_R   0.023505 0.645535 0.867411 -0.126840
C42   C     C_R   0.936742 0.693281 0.921481 -0.162054
C43   C     C_R   0.807644 0.657883 0.953309 -0.074416
C44   C     C_R   0.627582 0.536337 0.965373 -0.177071
C45   C     C_R   0.372416 0.463662 0.034626 -0.177041
C46   C     C_1   0.501311 0.499482 0.807153 0.176155
C47   C     C_1   0.498688 0.500517 0.192846 0.176272
C48   C     C_R   0.200466 0.500045 0.476682 0.970270
F1    F     F_    0.280234 0.917838 0.583163 -0.680820
F2    F     F_    0.720225 0.082145 0.417141 -0.680350
F3    F     F_    0.260066 0.425836 0.884138 -0.705276
F4    F     F_    0.739932 0.574164 0.115860 -0.705163
H1    H     H_    0.973637 0.500053 0.395420 0.182883
H2    H     H_    0.017097 0.772939 0.293330 0.142597
H3    H     H_    0.112008 0.854344 0.431510 0.178828
H4    H     H_    0.923928 0.937137 0.507481 0.158659
H5    H     H_    0.174626 0.539112 0.138175 0.140091
H6    H     H_    0.951979 0.474394 0.197254 0.186164
H7    H     H_    0.877220 0.326830 0.157659 0.145674
H8    H     H_    0.031076 0.242058 0.061706 0.143321
H9    H     H_    0.259719 0.303889 0.005894 0.150821
H10   H     H_    0.825380 0.460889 0.861829 0.140073
H11   H     H_    0.048020 0.525611 0.802746 0.186152
H12   H     H_    0.026363 0.499952 0.604580 0.182865
H13   H     H_    0.122761 0.673179 0.842332 0.145660
H14   H     H_    0.968897 0.757950 0.938281 0.143305
H15   H     H_    0.740262 0.696114 0.994099 0.150796
H16   H     H_    0.456486 0.142423 0.695415 0.132056
H17   H     H_    0.267472 0.225998 0.769582 0.160603
H18   H     H_    0.983249 0.226866 0.707163 0.142615
H19   H     H_    0.887916 0.144258 0.569876 0.178240
H20   H     H_    0.076004 0.061602 0.493792 0.158924
H21   H     H_    0.544328 0.858783 0.304041 0.131969
H22   H     H_    0.733318 0.775109 0.229936 0.160178
N1    N     N_1   0.499960 0.500020 0.270540 -0.097149
N2    N     N_1   0.500040 0.499980 0.729460 -0.097179
O1    O     O_R   0.500000 0.378020 0.573650 -0.614793
O2    O     O_R   0.500000 0.621980 0.426350 -0.614688
O3    O     O_R   0.500070 0.378020 0.426320 -0.603612
O4    O     O_R   0.499930 0.621980 0.573680 -0.603636
O5    O     O_R   0.271720 0.500000 0.556430 -0.606765
O6    O     O_R   0.728280 0.500000 0.443570 -0.606742
O7    O     O_R   0.271790 0.500000 0.409110 -0.626932
O8    O     O_R   0.728210 0.500000 0.590890 -0.626925
Zn1   Zn    Zn3+2 0.499950 0.500000 0.598370 0.984128
Zn2   Zn    Zn3+2 0.500050 0.500000 0.401630 0.984230

loop_
_geom_bond_atom_site_label_1
_geom_bond_atom_site_label_2
_ccdc_geom_bond_type
C33   H6    S    
C1    O1    A    
C41   C42   A    
C2    O8    A    
C35   C36   A    
C16   F3    S    
C6    C9    A    
C46   N2    T    
C9    C25   S    
C7    C11   S    
C26   C27   A    
C29   C30   A    
C40   H11   S    
C18   C24   A    
C36   C37   A    
C38   C39   A    
C3    C48   S    
C26   H21   S    
C48   O5    A    
C35   H7    S    
C18   C19   A    
C11   C15   T    
C19   C20   A    
C12   O2    A    
C27   H22   S    
C42   C43   A    
O2    Zn2   S    
O1    Zn1   S    
C23   C46   S    
C21   C22   A    
C5    F1    S    
C32   H5    S    
C17   F4    S    
O8    Zn1   S    
C39   C40   A    
C5    C7    A    
C28   H2    S    
C41   H13   S    
C29   H3    S    
C25   C26   A    
O6    Zn2   S    
C30   H4    S    
C23   C44   A    
C31   C37   A    
C2    C4    S    
C38   C44   S    
O4    Zn1   S    
N1    Zn2   S    
C37   H9    S    
C31   C32   A    
C12   C15   S    
C19   H16   S    
C34   C45   A    
C6    F2    S    
C43   H15   S    
C40   C41   A    
C16   C23   A    
C1    O3    A    
C22   C24   A    
C20   H17   S    
C2    O6    A    
C17   C34   A    
C3    C4    D    
C22   H19   S    
C24   H20   S    
C25   C30   A    
C7    C9    A    
C39   H10   S    
C28   C29   A    
C36   H8    S    
C16   C45   A    
C6    C8    A    
C34   C47   S    
C4    H12   S    
C48   O7    A    
C21   H18   S    
C32   C33   A    
C17   C44   A    
C47   N1    T    
C38   C43   A    
C3    H1    S    
C10   C18   S    
C12   O4    A    
C33   C35   A    
C8    C13   S    
C5    C10   A    
O7    Zn2   S    
C20   C21   A    
C8    C10   A    
C31   C45   S    
C27   C28   A    
C42   H14   S    
C1    C14   S    
C13   C14   T    
N2    Zn1   S    
O3    Zn2   S    
O5    Zn1   S    
