data_mof_unit_49811.cif
_audit_creation_date              2012-12-10T18:13:49-0500
_audit_creation_method            fapswitch 2.2
_symmetry_space_group_name_H-M    P1
_symmetry_Int_Tables_number       1
_space_group_crystal_system       triclinic
_cell_length_a                    10.715027
_cell_length_b                    9.576942
_cell_length_c                    23.458204
_cell_angle_alpha                 87.802503
_cell_angle_beta                  87.097224
_cell_angle_gamma                 89.636073
_cell_volume                      2402.33487351

loop_
_atom_site_label
_atom_site_type_symbol
_atom_type_description
_atom_site_fract_x
_atom_site_fract_y
_atom_site_fract_z
_atom_type_partial_charge
C1    C     C_R   0.260157 0.500253 0.501002 0.766305
C2    C     C_R   0.246169 0.536396 0.975449 0.122191
C3    C     C_R   0.251123 0.539592 0.035359 -0.145653
C4    C     C_R   0.360594 0.507241 0.063271 -0.064683
C5    C     C_R   0.468694 0.468730 0.031388 -0.017832
C6    C     C_R   0.578000 0.432265 0.059752 0.001877
C7    C     C_R   0.686320 0.393967 0.028021 -0.171832
C8    C     C_R   0.687109 0.393895 0.968795 -0.177596
C9    C     C_R   0.364398 0.513193 0.122980 0.538490
C10   C     C_R   0.576665 0.435924 0.119443 0.527266
C11   C     C_R   0.561732 0.576343 0.233765 -0.087352
C12   C     C_R   0.497710 0.501831 0.391381 0.769311
C13   C     C_R   0.569066 0.582114 0.292716 -0.273113
C14   C     C_R   0.487226 0.503218 0.329358 -0.022746
C15   C     C_R   0.399425 0.416184 0.306274 -0.239117
C16   C     C_R   0.393476 0.408486 0.247246 -0.102608
C17   C     C_R   0.474743 0.488551 0.210640 0.348273
C18   C     C_R   0.483086 0.608269 0.761885 -0.105227
C19   C     C_R   0.489505 0.614752 0.702352 -0.193562
C20   C     C_R   0.495295 0.491243 0.671779 -0.065995
C21   C     C_R   0.495303 0.361336 0.701876 -0.192246
C22   C     C_R   0.489069 0.355224 0.761397 -0.102173
C23   C     C_R   0.739573 0.499758 0.500824 0.725399
C24   C     C_R   0.482592 0.478575 0.791540 0.361882
C25   C     C_3   0.069626 0.649597 0.511343 -0.366741
C26   C     C_3   0.067109 0.401184 0.550334 -0.338721
C27   C     C_3   0.926894 0.649026 0.511476 -0.378360
C28   C     C_3   0.922950 0.400567 0.550196 -0.387734
C29   C     C_3   0.078810 0.450908 0.443695 -0.381033
C30   C     C_3   0.121986 0.500550 0.501630 0.133112
C31   C     C_3   0.877893 0.499823 0.501548 0.166952
C32   C     C_3   0.934810 0.450428 0.443661 -0.381672
C33   C     C_3   0.598594 0.078712 0.536855 -0.263910
C34   C     C_3   0.604926 0.913978 0.532757 -0.221894
C35   C     C_3   0.379422 0.081528 0.524655 0.548516
C36   C     C_3   0.384093 0.914908 0.529965 0.526288
C37   C     C_3   0.523330 0.092554 0.441949 -0.012499
C38   C     C_3   0.504907 0.927864 0.440999 0.037070
C39   C     C_R   0.499014 0.497557 0.608927 0.816850
C40   C     C_R   0.580946 0.434199 0.880458 0.530796
C41   C     C_R   0.366889 0.506265 0.881643 0.527095
C42   C     C_R   0.358391 0.503973 0.942412 -0.078388
C43   C     C_R   0.468380 0.467832 0.971203 -0.034471
C44   C     C_R   0.579365 0.431288 0.940006 0.002010
Cu1   Cu    Cu3+1 0.499860 0.642410 0.500030 0.954224
Cu2   Cu    Cu3+1 0.499860 0.357590 0.500030 0.944231
H1    H     H_    0.489381 0.716299 0.680385 0.201766
H2    H     H_    0.499664 0.264382 0.679538 0.187806
H3    H     H_    0.488810 0.254698 0.784179 0.145159
H4    H     H_    0.106536 0.723829 0.476922 0.162578
H5    H     H_    0.102767 0.292876 0.544798 0.198553
H6    H     H_    0.099465 0.687671 0.552781 0.191480
H7    H     H_    0.096905 0.435370 0.592359 0.176414
H8    H     H_    0.887310 0.687182 0.552876 0.166310
H9    H     H_    0.882776 0.434214 0.592185 0.163441
H10   H     H_    0.897740 0.723015 0.477171 0.164605
H11   H     H_    0.890392 0.292121 0.544410 0.166153
H12   H     H_    0.117043 0.521153 0.408207 0.156752
H13   H     H_    0.115071 0.343806 0.435810 0.159579
H14   H     H_    0.903435 0.520373 0.408137 0.151615
H15   H     H_    0.902191 0.343089 0.435802 0.156907
H16   H     H_    0.580775 0.105544 0.582279 0.206753
H17   H     H_    0.604718 0.865769 0.576615 0.197901
H18   H     H_    0.169171 0.567201 0.061210 0.202408
H19   H     H_    0.691913 0.122940 0.524550 0.142416
H20   H     H_    0.696074 0.884299 0.512885 0.146045
H21   H     H_    0.449009 0.138849 0.415573 0.136335
H22   H     H_    0.408588 0.916889 0.425555 0.014004
H23   H     H_    0.303631 0.112395 0.495920 -0.023217
H24   H     H_    0.300384 0.874781 0.509967 0.020284
H25   H     H_    0.771319 0.365321 0.048774 0.186349
H26   H     H_    0.772899 0.365172 0.945631 0.190857
H27   H     H_    0.625487 0.638068 0.205936 0.149296
H28   H     H_    0.641559 0.644189 0.309194 0.146265
H29   H     H_    0.336635 0.352873 0.334018 0.132846
H30   H     H_    0.326852 0.339059 0.229954 0.148841
H31   H     H_    0.478629 0.703961 0.785068 0.145275
N1    N     N_R   0.476461 0.472259 0.852776 -0.461780
N2    N     N_R   0.471515 0.478274 0.149771 -0.465250
N3    N     N_3   0.500250 0.143650 0.501250 -0.213805
N4    N     N_3   0.500250 0.856350 0.501250 -0.192652
O1    O     O_R   0.317570 0.620260 0.500030 -0.585266
O2    O     O_R   0.317570 0.379740 0.500030 -0.565126
O3    O     O_R   0.499840 0.620290 0.417900 -0.579197
O4    O     O_R   0.499840 0.379710 0.417900 -0.583428
O5    O     O_R   0.682190 0.620260 0.500010 -0.588347
O6    O     O_R   0.682190 0.379740 0.500010 -0.622243
O7    O     O_R   0.499920 0.620230 0.582140 -0.537109
O8    O     O_R   0.499920 0.379770 0.582140 -0.536048
O9    O     O_2   0.686793 0.401082 0.850156 -0.539837
O10   O     O_2   0.268016 0.542657 0.850992 -0.556439
O11   O     O_2   0.262433 0.555559 0.153924 -0.549225
O12   O     O_2   0.679595 0.397029 0.147025 -0.546616
C45   C     C_3   0.122306 0.566168 0.947379 -0.312864
C46   C     C_3   0.006294 0.585997 0.987219 -0.883990
H32   H     H_    0.990628 0.492320 0.016040 0.256423
H33   H     H_    0.015498 0.680806 0.012479 0.262052
H34   H     H_    0.922926 0.600377 0.961294 0.262952
H35   H     H_    0.132388 0.662754 0.919795 0.246737
H36   H     H_    0.101428 0.476683 0.920666 0.246276
F1    F     F_    0.346899 0.135868 0.577309 -0.618227
F2    F     F_    0.373457 0.869953 0.586915 -0.627972
C47   C     C_3   0.652800 0.144870 0.413089 -0.295523
C48   C     C_3   0.653684 0.189063 0.349024 -0.837490
H37   H     H_    0.719550 0.122174 0.324016 0.240026
H38   H     H_    0.559720 0.182406 0.331543 0.251318
H39   H     H_    0.687333 0.298177 0.341869 0.247424
H40   H     H_    0.685918 0.235388 0.432818 0.250398
H41   H     H_    0.729533 0.071241 0.421151 0.171015
C49   C     C_3   0.581285 0.866718 0.388139 -0.191367
C50   C     C_3   0.713770 0.807062 0.394088 -0.779486
H42   H     H_    0.764178 0.853502 0.428068 0.214301
H43   H     H_    0.713549 0.692451 0.400633 0.249795
H44   H     H_    0.770005 0.828719 0.353653 0.198213
H45   H     H_    0.523003 0.802774 0.362046 0.175279
H46   H     H_    0.588357 0.946579 0.353665 0.164321

loop_
_geom_bond_atom_site_label_1
_geom_bond_atom_site_label_2
_ccdc_geom_bond_type
C15   H29   S    
C46   H32   S    
C41   C42   A    
Cu1   O1    S    
C34   H20   S    
C48   H38   S    
C46   H34   S    
C33   H19   S    
C7    C8    A    
Cu2   O8    S    
Cu1   Cu2   S    
C29   C30   S    
C12   O4    A    
C18   C24   A    
C32   H15   S    
C29   C32   S    
C7    H25   S    
C5    C6    A    
C19   H1    S    
C15   C16   A    
C35   N3    S    
C17   N2    S    
C12   O3    A    
C36   F2    S    
C18   C19   A    
C9    N2    A    
C25   H4    S    
C1    C30   S    
C49   C50   S    
C19   C20   A    
C16   C17   A    
C23   O5    A    
C47   H40   S    
C34   N4    S    
C38   C49   S    
Cu2   O4    S    
C5    C43   A    
C23   O6    A    
C21   C22   A    
C39   O7    A    
C9    O11   S    
C48   H37   S    
C28   H9    S    
C36   H24   S    
C37   N3    S    
C27   H8    S    
C8    H26   S    
C27   C31   S    
C29   H13   S    
C2    C45   S    
Cu1   O7    S    
C11   H27   S    
C41   N1    A    
C37   C47   S    
C20   C39   S    
C27   H10   S    
C33   H16   S    
C10   O12   S    
C1    O1    A    
C28   H11   S    
C35   C36   S    
C23   C31   S    
C43   C44   A    
C37   C38   S    
C31   C32   S    
C45   H36   S    
C36   N4    S    
C33   C34   S    
C50   H43   S    
C20   C21   A    
C22   H3    S    
C24   N1    S    
C41   O10   S    
C12   C14   S    
C26   C30   S    
C38   N4    S    
C22   C24   A    
Cu1   O3    S    
C1    O2    A    
C42   C43   A    
C32   H14   S    
C3    C4    A    
C26   H7    S    
C49   H46   S    
Cu2   O6    S    
C25   C30   S    
C11   C17   A    
C50   H42   S    
C16   H30   S    
C28   C31   S    
Cu1   N4    S    
C8    C44   A    
C38   H22   S    
C4    C5    A    
C35   F1    S    
C6    C10   A    
C10   N2    A    
C46   H33   S    
C33   N3    S    
C6    C7    A    
C25   C27   S    
C26   C28   S    
C47   H41   S    
C21   H2    S    
C2    C3    A    
C25   H6    S    
C26   H5    S    
Cu2   N3    S    
C11   C13   A    
C45   H35   S    
C2    C42   A    
C18   H31   S    
C37   H21   S    
C34   H17   S    
Cu1   O5    S    
C50   H44   S    
C40   N1    A    
C3    H18   S    
C45   C46   S    
Cu2   O2    S    
C40   C44   A    
C29   H12   S    
C35   H23   S    
C47   C48   S    
C14   C15   A    
C40   O9    S    
C4    C9    A    
C13   C14   A    
C49   H45   S    
C39   O8    A    
C48   H39   S    
C13   H28   S    
