data_mof_unit_68415.cif
_audit_creation_date              2012-12-10T16:55:43-0500
_audit_creation_method            fapswitch 2.2
_symmetry_space_group_name_H-M    P1
_symmetry_Int_Tables_number       1
_space_group_crystal_system       triclinic
_cell_length_a                    7.932769
_cell_length_b                    8.632463
_cell_length_c                    10.589494
_cell_angle_alpha                 92.775993
_cell_angle_beta                  85.287489
_cell_angle_gamma                 93.311526
_cell_volume                      720.807504839

loop_
_atom_site_label
_atom_site_type_symbol
_atom_type_description
_atom_site_fract_x
_atom_site_fract_y
_atom_site_fract_z
_atom_type_partial_charge
C1    C     C_R   0.544771 0.793523 0.497360 0.878984
C2    C     C_3   0.501977 0.509441 0.876811 -0.244066
C3    C     C_3   0.376241 0.396047 0.039141 0.080374
C4    C     C_3   0.626181 0.601799 0.961405 0.057150
C5    C     C_2   0.568225 0.956044 0.486133 0.191792
C6    C     C_2   0.435063 0.045407 0.520348 0.229735
C7    C     C_3   0.414119 0.896723 0.050894 -0.247406
C8    C     C_3   0.696682 0.177063 0.835150 -0.361822
C9    C     C_3   0.183489 0.605286 0.942473 -0.897338
C10   C     C_3   0.817878 0.395433 0.062960 -0.901471
C11   C     C_3   0.242402 0.270945 0.078211 -0.899687
C12   C     C_R   0.455732 0.206685 0.503483 0.874956
C13   C     C_3   0.760180 0.727529 0.923404 -0.918592
C14   C     C_3   0.020655 0.392953 0.347900 -0.531307
C15   C     C_3   0.979772 0.607245 0.652207 -0.518714
C16   C     C_3   0.860170 0.998624 0.485477 -0.142414
C17   C     C_3   0.271714 0.013088 0.705723 -0.316511
C18   C     C_R   0.501862 0.507323 0.741791 0.922462
C19   C     C_R   0.498096 0.491288 0.258275 0.967526
C20   C     C_3   0.350263 0.545851 0.972092 0.068861
C21   C     C_3   0.651187 0.450962 0.028931 0.071106
C22   C     C_3   0.474209 0.636673 0.055800 0.526822
C23   C     C_3   0.527597 0.360307 0.944069 0.529285
C24   C     C_3   0.498996 0.487791 0.123084 -0.221558
H1    H     H_    0.456988 0.878734 0.948935 0.159117
H2    H     H_    0.901019 0.372961 0.976066 0.230308
H3    H     H_    0.879534 0.486904 0.122632 0.266414
H4    H     H_    0.794921 0.286463 0.114514 0.249833
H5    H     H_    0.214520 0.193099 0.995167 0.253347
H6    H     H_    0.286517 0.202757 0.154004 0.228435
H7    H     H_    0.125207 0.325333 0.112962 0.250611
H8    H     H_    0.786664 0.804934 0.007013 0.272918
H9    H     H_    0.877815 0.673694 0.888949 0.252354
H10   H     H_    0.716993 0.796750 0.847799 0.213996
H11   H     H_    0.921286 0.316792 0.305679 0.200747
H12   H     H_    0.479214 0.005902 0.085280 0.218408
H13   H     H_    0.059719 0.488085 0.283340 0.206223
H14   H     H_    0.124667 0.317897 0.361732 0.219068
H15   H     H_    0.079596 0.682676 0.694483 0.191214
H16   H     H_    0.875940 0.682575 0.638565 0.213414
H17   H     H_    0.941016 0.512349 0.716972 0.184126
H18   H     H_    0.938959 0.908108 0.436680 0.208428
H19   H     H_    0.832462 0.970003 0.586723 0.089618
H20   H     H_    0.936999 0.109942 0.483976 0.192029
H21   H     H_    0.277575 0.139222 0.732961 0.210852
H22   H     H_    0.374105 0.953987 0.746815 0.158217
H23   H     H_    0.275660 0.912032 0.060206 0.174096
H24   H     H_    0.148801 0.963095 0.747298 0.166401
H25   H     H_    0.765712 0.129926 0.910486 0.186355
H26   H     H_    0.769112 0.277712 0.791889 0.194322
H27   H     H_    0.686203 0.084374 0.759927 0.167597
H28   H     H_    0.107208 0.633378 0.032133 0.254851
H29   H     H_    0.206251 0.711680 0.887730 0.224594
H30   H     H_    0.116712 0.514611 0.885303 0.255427
N1    N     N_2   0.950320 0.457950 0.465730 -0.011362
N2    N     N_2   0.049680 0.542050 0.534270 0.001892
O1    O     O_R   0.389250 0.738570 0.508410 -0.560576
O2    O     O_3   0.531912 0.210971 0.883113 -0.647339
O3    O     O_3   0.715112 0.013674 0.418320 -0.619223
O4    O     O_3   0.278876 0.987463 0.572909 -0.614292
O5    O     O_R   0.610750 0.261430 0.491590 -0.589393
O6    O     O_R   0.678390 0.711620 0.486450 -0.634567
O7    O     O_R   0.321610 0.288380 0.513550 -0.629923
O8    O     O_R   0.355460 0.513510 0.697030 -0.621598
O9    O     O_R   0.644540 0.486490 0.302970 -0.611015
O10   O     O_R   0.644600 0.486560 0.675070 -0.646654
O11   O     O_R   0.355400 0.513440 0.324930 -0.622723
O12   O     O_3   0.451004 0.776762 0.128206 -0.602644
Zn1   Zn    Zn3+2 0.306940 0.517990 0.514670 0.966801
Zn2   Zn    Zn3+2 0.693060 0.482010 0.485330 0.951131

loop_
_geom_bond_atom_site_label_1
_geom_bond_atom_site_label_2
_ccdc_geom_bond_type
C10   H3    S    
O5    Zn2   S    
C23   O2    S    
C2    C4    S    
N1    N2    D    
C13   H9    S    
C4    C21   S    
C1    O1    A    
C2    C18   S    
C4    C22   S    
C7    H12   S    
C16   H20   S    
C13   H8    S    
C3    C23   S    
C7    H1    S    
C17   H24   S    
C6    O4    S    
C15   H15   S    
C1    O6    A    
C10   H2    S    
C8    H27   S    
C14   N1    S    
C7    O12   S    
C11   H7    S    
C13   H10   S    
O1    Zn1   S    
O8    Zn1   S    
C15   N2    S    
C14   H13   S    
C19   O11   A    
C12   O5    A    
C16   H19   S    
C18   O8    A    
C3    C24   S    
O10   Zn2   S    
C9    H28   S    
C11   H6    S    
C1    C5    S    
C15   H17   S    
C17   H21   S    
C19   O9    A    
C8    H26   S    
C21   C23   S    
C10   C21   S    
C6    C12   S    
C5    C6    D    
C22   C24   S    
C15   H16   S    
N1    Zn2   S    
C9    H29   S    
C11   H5    S    
C5    O3    S    
C17   O4    S    
C2    C20   S    
C14   H14   S    
C16   H18   S    
C3    C20   S    
C3    C11   S    
C17   H22   S    
O6    Zn2   S    
N2    Zn1   S    
C21   C24   S    
C10   H4    S    
C2    C23   S    
C12   O7    A    
C18   O10   A    
C9    H30   S    
C9    C20   S    
C8    O2    S    
O9    Zn2   S    
C22   O12   S    
C19   C24   S    
C8    H25   S    
C14   H11   S    
O7    Zn1   S    
C4    C13   S    
C20   C22   S    
O11   Zn1   S    
C16   O3    S    
C7    H23   S    
