data_mof_unit_27201.cif
_audit_creation_date              2012-12-11T14:08:14-0500
_audit_creation_method            fapswitch 2.2
_symmetry_space_group_name_H-M    P1
_symmetry_Int_Tables_number       1
_space_group_crystal_system       triclinic
_cell_length_a                    11.636912
_cell_length_b                    11.543873
_cell_length_c                    19.154624
_cell_angle_alpha                 88.599852
_cell_angle_beta                  89.564315
_cell_angle_gamma                 60.566951
_cell_volume                      2240.3258103

loop_
_atom_site_label
_atom_site_type_symbol
_atom_type_description
_atom_site_fract_x
_atom_site_fract_y
_atom_site_fract_z
_atom_type_partial_charge
C1    C     C_R   0.238408 0.643212 0.607677 0.640354
C2    C     C_3   0.634277 0.605461 0.818835 0.018564
C3    C     C_3   0.713145 0.683953 0.814556 -0.104383
C4    C     C_3   0.671513 0.647273 0.680725 -0.029914
C5    C     C_3   0.816502 0.620262 0.691509 -0.268429
C6    C     C_3   0.649219 0.553329 0.738960 0.349101
C7    C     C_2   0.664130 0.138491 0.663706 0.041978
C8    C     C_2   0.715867 0.119791 0.824458 0.004703
C9    C     C_2   0.796806 0.050929 0.773213 -0.095358
C10   C     C_2   0.775892 0.102834 0.699017 0.082047
C11   C     C_2   0.188273 0.661833 0.680899 0.239985
C12   C     C_R   0.651807 0.617923 0.603345 0.584507
C13   C     C_2   0.125006 0.689260 0.836289 0.023193
C14   C     C_2   0.205266 0.574300 0.807364 0.274980
C15   C     C_2   0.197252 0.563875 0.728291 0.192323
C16   C     C_2   0.661758 0.671523 0.331194 0.012668
C17   C     C_2   0.649641 0.646954 0.151814 0.018666
C18   C     C_2   0.719007 0.629103 0.211526 -0.025337
C19   C     C_2   0.684484 0.592718 0.277252 -0.062176
C20   C     C_2   0.660816 0.161852 0.331193 0.071316
C21   C     C_2   0.643952 0.159910 0.170661 -0.066380
C22   C     C_2   0.623624 0.086241 0.219165 -0.078263
C23   C     C_R   0.625721 0.225371 0.599008 0.609614
C24   C     C_2   0.586934 0.127012 0.290827 0.164239
C25   C     C_2   0.137653 0.689379 0.346558 -0.025855
C26   C     C_2   0.139141 0.674161 0.181555 -0.089270
C27   C     C_2   0.100312 0.769626 0.229149 0.071263
C28   C     C_2   0.172361 0.739681 0.291271 0.193658
C29   C     C_R   0.721026 0.062643 0.892654 0.497132
C30   C     C_R   0.745222 0.705396 0.885205 0.514256
C31   C     C_R   0.109062 0.711377 0.908803 0.594276
C32   C     C_R   0.675832 0.105116 0.101662 0.578969
C33   C     C_R   0.695782 0.685542 0.090569 0.601511
C34   C     C_R   0.221407 0.651032 0.405979 0.545641
C35   C     C_R   0.088091 0.711804 0.112021 0.585639
C36   C     C_R   0.642607 0.624450 0.397531 0.574766
C37   C     C_R   0.614609 0.232800 0.396540 0.546012
C38   C     C_3   0.627384 0.820696 0.773761 -0.246652
C39   C     C_3   0.591178 0.799472 0.698197 0.096562
C40   C     C_3   0.844336 0.616794 0.772101 -0.083117
Cr1   Cr    Cr6+3 0.393010 0.398050 0.501480 1.217140
Cr2   Cr    Cr6+3 0.398820 0.707980 0.501630 1.250906
Cr3   Cr    Cr6+3 0.708140 0.393940 0.496850 1.169292
Cr4   Cr    Cr6+3 0.937950 0.938450 0.008940 1.111348
Cr5   Cr    Cr6+3 0.626180 0.937030 0.994750 1.094000
Cr6   Cr    Cr6+3 0.937790 0.625760 0.001410 1.141220
H1    H     H_    0.687767 0.870847 0.769298 0.098468
H2    H     H_    0.891937 0.541297 0.660169 0.258375
H3    H     H_    0.878250 0.955692 0.787292 0.156565
H4    H     H_    0.635790 0.214506 0.813879 0.270184
H5    H     H_    0.034011 0.751512 0.809497 0.034563
H6    H     H_    0.540515 0.891975 0.803150 0.240638
H7    H     H_    0.687016 0.497786 0.283247 0.225361
H8    H     H_    0.652510 0.769701 0.325349 0.169794
H9    H     H_    0.627678 0.993693 0.204688 0.200124
H10   H     H_    0.637712 0.254330 0.181511 0.181780
H11   H     H_    0.210040 0.570854 0.194182 0.093267
H12   H     H_    0.629256 0.848376 0.661858 0.145319
H13   H     H_    0.883492 0.686181 0.776917 0.036059
H14   H     H_    0.828105 0.700962 0.665943 0.081418
O1    O     O_R   0.507110 0.256280 0.580300 -0.417304
O2    O     O_R   0.524640 0.695370 0.425100 -0.444370
O3    O     O_R   0.735890 0.504390 0.415980 -0.489715
O4    O     O_R   0.690560 0.277820 0.422350 -0.498465
O5    O     O_3   0.499990 0.499990 0.499980 -0.341144
O6    O     O_R   0.089190 0.825870 0.932320 -0.493595
O7    O     O_R   0.819070 0.053960 0.931440 -0.493460
O8    O     O_R   0.607070 0.076440 0.916460 -0.475419
O9    O     O_R   0.647110 0.806550 0.917690 -0.492297
O10   O     O_R   0.837080 0.593860 0.915300 -0.426728
O11   O     O_R   0.064770 0.636080 0.932550 -0.465113
O12   O     O_R   0.280830 0.527190 0.577940 -0.453345
O13   O     O_R   0.068250 0.829200 0.092940 -0.472850
O14   O     O_R   0.799650 0.057040 0.080330 -0.459957
O15   O     O_R   0.586130 0.079760 0.077080 -0.518785
O16   O     O_R   0.627700 0.809630 0.066580 -0.469615
O17   O     O_R   0.816140 0.597180 0.075920 -0.488159
O18   O     O_R   0.045360 0.639170 0.081440 -0.482992
O19   O     O_3   0.833980 0.833750 0.001700 -0.358292
O20   O     O_R   0.261360 0.738990 0.584270 -0.398670
O21   O     O_R   0.532590 0.694780 0.574370 -0.428441
O22   O     O_R   0.744470 0.503750 0.577000 -0.446414
O23   O     O_R   0.698520 0.277230 0.571620 -0.440124
O24   O     O_R   0.498530 0.256920 0.419280 -0.438168
O25   O     O_R   0.272880 0.527780 0.428680 -0.522739
O26   O     O_R   0.252780 0.739630 0.423250 -0.442442
S1    S     S_3+6 0.792022 0.385988 0.729595 0.049309
O27   O     O_2   0.805329 0.290166 0.786991 -0.267812
O28   O     O_2   0.750874 0.348725 0.667594 -0.234105
O29   O     O_3   0.945968 0.349976 0.706194 -0.501081
H15   H     H_    0.007979 0.274938 0.736432 0.397999
C41   C     C_2   0.952057 0.489870 0.806988 0.698431
O30   O     O_2   0.049657 0.490247 0.823106 -0.454207
O31   O     O_R   0.933203 0.391510 0.839899 -0.596056
H16   H     H_    0.014072 0.320693 0.865797 0.367791
C42   C     C_2   0.886627 0.100860 0.660349 0.794863
O32   O     O_2   0.965368 0.120629 0.691662 -0.397172
O33   O     O_R   0.906107 0.069328 0.589242 -0.628327
H17   H     H_    0.974737 0.087997 0.566789 0.362714
C43   C     C_2   0.565856 0.100104 0.689328 0.582624
O34   O     O_2   0.502703 0.078243 0.646640 -0.404398
O35   O     O_R   0.530985 0.106953 0.759042 -0.689931
H18   H     H_    0.444909 0.108915 0.767768 0.416447
S2    S     S_3+6 0.309385 0.436455 0.866141 0.106682
O36   O     O_2   0.412642 0.324948 0.826354 -0.186301
O37   O     O_2   0.372202 0.483218 0.918497 -0.304777
O38   O     O_3   0.227172 0.374922 0.912577 -0.444441
H19   H     H_    0.295463 0.300558 0.941162 0.356752
S3    S     S_3+6 0.225973 0.410497 0.697131 0.088923
O39   O     O_2   0.140023 0.429341 0.634881 -0.301242
O40   O     O_2   0.365081 0.346908 0.676383 -0.172574
O41   O     O_3   0.214537 0.306142 0.754882 -0.451506
H20   H     H_    0.209236 0.241124 0.724869 0.383909
S4    S     S_3+6 0.100000 0.832515 0.697275 0.009175
O42   O     O_2   0.110088 0.883303 0.767079 -0.294590
O43   O     O_2   0.130163 0.915269 0.647202 -0.166696
O44   O     O_3   0.951288 0.852660 0.677199 -0.613338
H21   H     H_    0.941187 0.787299 0.706020 0.287618
C44   C     C_2   0.842430 0.636348 0.214312 0.614232
O45   O     O_2   0.844845 0.735650 0.193103 -0.494255
O46   O     O_R   0.955919 0.526184 0.241123 -0.636895
H22   H     H_    0.036749 0.537012 0.238613 0.331459
C45   C     C_2   0.555604 0.596874 0.139993 0.602758
O47   O     O_2   0.551567 0.514671 0.179780 -0.491183
O48   O     O_R   0.475532 0.639608 0.080246 -0.610345
H23   H     H_    0.416748 0.597965 0.076916 0.362295
S5    S     S_3+6 0.447595 0.114356 0.319890 0.061250
O49   O     O_2   0.477709 0.039909 0.388821 -0.197080
O50   O     O_2   0.330400 0.250871 0.327809 -0.254618
O51   O     O_3   0.409143 0.031914 0.261656 -0.506623
H24   H     H_    0.363685 0.096827 0.222909 0.355142
C46   C     C_2   0.789948 0.145689 0.309147 0.595654
O52   O     O_2   0.890200 0.058629 0.337368 -0.436740
O53   O     O_R   0.794204 0.245392 0.268354 -0.720278
H25   H     H_    0.883859 0.239728 0.269255 0.365091
C47   C     C_2   0.008264 0.910918 0.215916 0.706539
O54   O     O_2   0.893517 0.945212 0.204800 -0.480673
O55   O     O_R   0.054886 0.001429 0.209235 -0.603837
H26   H     H_    0.988204 0.088184 0.185897 0.340205
S6    S     S_3+6 0.417233 0.890289 0.676482 0.123511
O56   O     O_2   0.394125 0.949286 0.603616 -0.189900
O57   O     O_2   0.368557 0.794813 0.678933 -0.119250
O58   O     O_3   0.326376 0.010798 0.731995 -0.532274
H27   H     H_    0.235174 0.026772 0.726493 0.410597
S7    S     S_3+6 0.315696 0.756011 0.283232 0.073699
O59   O     O_2   0.307098 0.863818 0.329149 -0.164711
O60   O     O_2   0.431583 0.624646 0.303895 -0.307187
O61   O     O_3   0.329529 0.797639 0.200183 -0.482059
H28   H     H_    0.382898 0.842804 0.202538 0.380440
C48   C     C_2   0.008633 0.691165 0.352969 0.538956
O62   O     O_2   0.907346 0.789627 0.333535 -0.426772
O63   O     O_R   0.999194 0.585077 0.383800 -0.625009
H29   H     H_    0.087430 0.502275 0.391738 0.347533
C49   C     C_2   0.670815 0.485600 0.871618 0.705417
O64   O     O_2   0.736770 0.464251 0.924285 -0.412878
O65   O     O_R   0.603741 0.414547 0.866769 -0.623761
H30   H     H_    0.624451 0.348370 0.907060 0.364949
C50   C     C_2   0.498671 0.707619 0.853223 0.557038
O66   O     O_2   0.482439 0.701740 0.916443 -0.429212
O67   O     O_R   0.395626 0.811007 0.816361 -0.597677
H31   H     H_    0.316715 0.868005 0.846657 0.378295
S8    S     S_3+6 0.514510 0.524130 0.719098 0.091464
O68   O     O_2   0.487427 0.533017 0.642955 -0.263961
O69   O     O_2   0.543797 0.387914 0.740532 -0.233211
O70   O     O_3   0.384228 0.627478 0.762591 -0.511082
H32   H     H_    0.402698 0.586179 0.809394 0.380272

loop_
_geom_bond_atom_site_label_1
_geom_bond_atom_site_label_2
_ccdc_geom_bond_type
C7    C10   D    
S1    O27   D    
Cr2   O20   S    
O70   H32   S    
C31   O6    A    
Cr3   O23   S    
C15   S3    S    
Cr4   O6    S    
C1    C11   S    
S6    O58   S    
Cr1   O1    S    
C30   O9    A    
C32   O15   A    
S2    O37   D    
S4    O42   D    
Cr3   O3    S    
C45   O47   D    
C25   C28   D    
C26   C27   D    
C23   O23   A    
Cr5   O16   S    
C27   C47   S    
O65   H30   S    
S6    O57   D    
S3    O40   D    
C32   O14   A    
Cr6   O19   S    
C45   O48   S    
C38   H6    S    
O58   H27   S    
S8    O70   S    
C18   C19   S    
C34   O26   A    
C11   S4    S    
O41   H20   S    
C30   O10   A    
C29   O7    A    
C11   C15   D    
C17   C45   S    
C20   C24   D    
C3    C38   S    
C46   O52   D    
C42   O33   S    
Cr2   O5    S    
O38   H19   S    
C37   O24   A    
Cr2   O26   S    
C13   C14   D    
C4    C12   S    
C36   O3    A    
C9    C10   S    
Cr2   O2    S    
C49   O65   S    
Cr3   O5    S    
C25   C34   S    
C19   H7    S    
C31   O11   A    
C2    C49   S    
C40   H13   S    
C13   H5    S    
C21   C22   D    
C50   O67   S    
C2    C6    S    
Cr2   O21   S    
C17   C33   S    
C20   C46   S    
C36   O2    A    
C41   O31   S    
S2    O36   D    
S7    O60   D    
Cr3   O4    S    
S7    O59   D    
S8    O69   D    
C44   O46   S    
C38   C39   S    
C5    H2    S    
C1    O12   A    
Cr6   O11   S    
C7    C43   S    
Cr5   O9    S    
C6    S8    S    
C9    H3    S    
S6    O56   D    
C4    C6    S    
S3    O41   S    
Cr6   O18   S    
C8    C9    D    
Cr1   O5    S    
Cr1   O24   S    
C6    S1    S    
C25   C48   S    
C34   O25   A    
C3    C30   S    
S5    O50   D    
C24   S5    S    
C29   O8    A    
C33   O16   A    
C14   S2    S    
C4    C39   S    
C10   C42   S    
C2    C50   S    
C42   O32   D    
Cr5   O8    S    
C43   O35   S    
C17   C18   D    
C28   S7    S    
C12   O22   A    
O31   H16   S    
Cr5   O19   S    
C40   C41   S    
Cr4   O14   S    
C49   O64   D    
O46   H22   S    
C22   H9    S    
Cr1   O12   S    
C47   O55   S    
C3    C40   S    
S1    O28   D    
C50   O66   D    
C48   O63   S    
C5    C40   S    
C8    C29   S    
S5    O49   D    
C8    H4    S    
S7    O61   S    
S8    O68   D    
C23   O1    A    
Cr4   O13   S    
C1    O20   A    
C39   S6    S    
C35   O13   A    
C5    H14   S    
C14   C15   S    
C13   C31   S    
Cr4   O19   S    
C47   O54   D    
C21   H10   S    
S4    O43   D    
C44   O45   D    
O53   H25   S    
Cr6   O17   S    
Cr1   O25   S    
C35   O18   A    
C38   H1    S    
Cr5   O15   S    
O67   H31   S    
C2    C3    S    
S5    O51   S    
O44   H21   S    
C16   C36   S    
C20   C37   S    
C39   H12   S    
C33   O17   A    
O29   H15   S    
O48   H23   S    
C16   C19   D    
C7    C23   S    
C41   O30   D    
C12   O21   A    
O51   H24   S    
C22   C24   S    
O61   H28   S    
O35   H18   S    
C26   H11   S    
C16   H8    S    
Cr6   O10   S    
S4    O44   S    
O55   H26   S    
C21   C32   S    
C26   C35   S    
C4    C5    S    
O63   H29   S    
C46   O53   S    
O33   H17   S    
S1    O29   S    
C27   C28   S    
Cr3   O22   S    
C48   O62   D    
Cr4   O7    S    
C43   O34   D    
C37   O4    A    
S3    O39   D    
C18   C44   S    
S2    O38   S    
