data_mof_unit_54947.cif
_audit_creation_date              2013-03-05T16:47:21-0500
_audit_creation_method            fapswitch 2.2
_symmetry_space_group_name_H-M    P1
_symmetry_Int_Tables_number       1
_space_group_crystal_system       triclinic
_cell_length_a                    10.837
_cell_length_b                    10.926132
_cell_length_c                    9.675812
_cell_angle_alpha                 90.121008
_cell_angle_beta                  90.110565
_cell_angle_gamma                 90.253117
_cell_volume                      1145.66307219

loop_
_atom_site_label
_atom_site_type_symbol
_atom_site_description
_atom_site_fract_x
_atom_site_fract_y
_atom_site_fract_z
_atom_type_partial_charge
O1    O     O_R   0.500020 0.321960 0.617040 -0.580504
O2    O     O_R   0.499980 0.321920 0.382900 -0.541826
C1    C     C_R   0.501734 0.265286 0.499954 0.856260
O3    O     O_R   0.319660 0.500030 0.617070 -0.590950
O4    O     O_R   0.319620 0.499990 0.382930 -0.572864
C2    C     C_R   0.262306 0.503211 0.499672 0.783968
Cu1   Cu    Cu3+1 0.500020 0.500020 0.638630 0.945831
Cu2   Cu    Cu3+1 0.499980 0.499980 0.361370 0.976096
O5    O     O_R   0.500020 0.678080 0.617100 -0.582863
O6    O     O_R   0.499980 0.678040 0.382960 -0.579520
O7    O     O_R   0.680380 0.500010 0.617070 -0.569447
O8    O     O_R   0.680340 0.499970 0.382930 -0.568680
C3    C     C_R   0.498141 0.734732 0.500191 0.848389
C4    C     C_R   0.737700 0.496883 0.500324 0.806434
H1    H     H_    0.281241 0.762553 0.949047 0.128568
C5    C     C_R   0.243568 0.775507 0.167079 -0.118160
H2    H     H_    0.294049 0.860423 0.180073 0.122882
C6    C     C_R   0.185945 0.720915 0.280675 -0.097954
H3    H     H_    0.192815 0.764063 0.381309 0.105454
C7    C     C_R   0.120542 0.610476 0.264318 0.131885
C8    C     C_R   0.112697 0.556193 0.132881 -0.167689
H4    H     H_    0.063595 0.470561 0.118810 0.133616
C9    C     C_R   0.170496 0.611105 0.019603 -0.148136
H5    H     H_    0.165280 0.568389 0.918721 0.133335
C10   C     C_R   0.236113 0.720498 0.036740 -0.102188
C11   C     C_R   0.933372 0.543436 0.386696 -0.228513
H6    H     H_    0.881721 0.580054 0.300110 0.154119
C12   C     C_R   0.871673 0.494458 0.500996 -0.075214
C13   C     C_R   0.938807 0.449514 0.615360 0.020146
C14   C     C_R   0.066624 0.456776 0.613353 -0.244363
H7    H     H_    0.118203 0.420325 0.700097 0.150244
C15   C     C_R   0.128345 0.505760 0.499015 -0.079725
C16   C     C_R   0.061190 0.550982 0.384747 -0.001461
C17   C     C_R   0.883056 0.449349 0.865965 -0.233322
H8    H     H_    0.930509 0.536078 0.878402 0.149050
C18   C     C_R   0.823340 0.396753 0.979370 -0.206284
H9    H     H_    0.825976 0.442493 0.078695 0.161049
C19   C     C_R   0.759979 0.285722 0.964294 0.452389
C20   C     C_R   0.755862 0.227475 0.835410 -0.160462
H10   H     H_    0.706477 0.141785 0.823118 0.150120
C21   C     C_R   0.815314 0.279964 0.721738 -0.183260
H11   H     H_    0.810857 0.234508 0.622239 0.137635
C22   C     C_R   0.879100 0.391456 0.736361 0.136733
C23   C     C_2   0.500815 0.932879 0.386578 -0.161927
C24   C     C_2   0.490811 0.866720 0.502457 -0.333260
H12   H     H_    0.512255 0.888107 0.287102 0.173638
H13   H     H_    0.473946 0.908113 0.602336 0.148524
C25   C     C_2   0.493941 0.066712 0.386708 -0.107139
C26   C     C_2   0.508989 0.133342 0.501913 -0.322709
H14   H     H_    0.478019 0.111078 0.287955 0.199342
H15   H     H_    0.529724 0.092393 0.600995 0.143209
C27   C     C_2   0.426636 0.431353 0.921740 -0.061878
N1    N     N_2   0.498640 0.498660 0.846910 -0.281106
H16   H     H_    0.360339 0.372340 0.869934 0.144572
H17   H     H_    0.564295 0.552134 0.894214 0.196996
C28   C     C_2   0.428941 0.428969 0.077575 0.022435
N2    N     N_2   0.498610 0.498630 0.153040 -0.265787
H18   H     H_    0.367165 0.365334 0.128849 0.143773
H19   H     H_    0.555090 0.561551 0.106247 0.186288
Cl1   Cl    Cl    0.686106 0.219534 0.107028 -0.675788

loop_
_geom_bond_atom_site_label_1
_geom_bond_atom_site_label_2
_geom_bond_distance
_ccdc_geom_bond_type
O4    Cu2   1.966063 S    
C2    C15   1.452133 S    
C9    H5    1.082340 S    
C13   C14   1.387246 A    
Cu2   N2    2.015810 S    
C21   H11   1.083257 S    
C11   C16   1.387415 A    
C11   C12   1.399549 A    
Cu2   O8    1.965261 S    
C15   C16   1.413716 A    
C26   H15   1.082424 S    
C25   H14   1.086196 S    
O2    C1    1.291903 A    
C1    C26   1.444293 S    
Cu1   Cu2   2.682715 S    
C20   C21   1.398520 A    
C5    C6    1.398557 A    
C8    H4    1.082528 S    
C7    C8    1.404394 A    
C14   C15   1.399977 A    
C21   C22   1.404721 A    
C11   H6    1.084837 S    
O4    C2    1.290614 A    
C25   C26   1.339389 D    
O3    Cu1   1.965262 S    
C19   Cl1   1.753457 S    
C7    C16   1.482050 S    
C13   C22   1.481290 S    
C18   C19   1.398570 A    
C12   C13   1.413256 A    
O8    C4    1.294366 A    
C6    H3    1.083232 S    
C17   C18   1.398272 A    
C8    C9    1.398482 A    
C14   H7    1.084940 S    
O7    C4    1.290653 A    
N2    H19   1.025147 S    
H1    C10   1.082379 S    
C28   N2    1.293426 D    
Cu1   N1    2.015447 S    
N1    H17   1.025196 S    
C27   C28   1.508275 S    
C20   H10   1.082590 S    
C9    C10   1.397478 A    
C19   C20   1.399408 A    
C27   N1    1.293563 D    
C3    C24   1.444775 S    
C6    C7    1.405227 A    
O3    C2    1.294402 A    
C17   H8    1.082539 S    
C24   H13   1.082341 S    
C5    C10   1.397931 A    
Cu1   O5    1.957066 S    
O5    C3    1.290792 A    
C18   H9    1.082565 S    
Cu1   O7    1.966062 S    
C23   H12   1.086328 S    
C4    C12   1.452225 S    
O1    Cu1   1.956252 S    
C28   H18   1.084599 S    
C17   C22   1.403831 A    
Cu2   O6    1.956252 S    
O2    Cu2   1.957065 S    
C23   C24   1.339640 D    
C23   C25   1.464503 S    
C27   H16   1.084590 S    
C5    H2    1.081964 S    
O1    C1    1.290142 A    
O6    C3    1.291494 A    
