data_mof_unit_20347.cif
_audit_creation_date              2012-12-11T14:06:41-0500
_audit_creation_method            fapswitch 2.2
_symmetry_space_group_name_H-M    P1
_symmetry_Int_Tables_number       1
_space_group_crystal_system       triclinic
_cell_length_a                    11.884916
_cell_length_b                    11.963699
_cell_length_c                    19.357066
_cell_angle_alpha                 89.068392
_cell_angle_beta                  90.461674
_cell_angle_gamma                 120.04392
_cell_volume                      2382.22056513

loop_
_atom_site_label
_atom_site_type_symbol
_atom_type_description
_atom_site_fract_x
_atom_site_fract_y
_atom_site_fract_z
_atom_type_partial_charge
C1    C     C_R   0.551699 0.476147 0.597027 0.544265
C2    C     C_R   0.412846 0.856136 0.135366 0.509177
C3    C     C_R   0.148369 0.556617 0.134802 0.494504
C4    C     C_R   0.469474 0.553698 0.129256 0.495101
C5    C     C_R   0.553526 0.475353 0.400728 0.558210
C6    C     C_R   0.522262 0.076278 0.404308 0.569967
C7    C     C_R   0.931165 0.451651 0.407087 0.581392
C8    C     C_1   0.034663 0.516248 0.858857 0.004775
C9    C     C_1   0.455550 0.563770 0.848026 -0.000553
C10   C     C_1   0.480367 0.966676 0.859198 0.000849
C11   C     C_1   0.993744 0.493947 0.726542 -0.028388
C12   C     C_R   0.524096 0.076632 0.597339 0.539916
C13   C     C_1   0.486864 0.519807 0.719483 -0.025692
C14   C     C_1   0.501574 0.005960 0.726773 -0.029122
C15   C     C_1   0.013504 0.507241 0.798005 -0.031796
C16   C     C_1   0.467561 0.543044 0.788527 -0.028374
C17   C     C_1   0.493427 0.987276 0.798316 -0.033835
C18   C     C_1   0.969752 0.476592 0.666148 0.013706
C19   C     C_1   0.510902 0.500093 0.662033 0.007608
C20   C     C_1   0.508805 0.029306 0.666170 0.012653
C21   C     C_2   0.033885 0.516776 0.356784 -0.037656
C22   C     C_2   0.520261 0.488746 0.328006 -0.040294
C23   C     C_R   0.922222 0.445997 0.597472 0.535058
C24   C     C_2   0.481053 0.994340 0.346071 -0.053231
C25   C     C_2   0.083912 0.523672 0.201061 -0.011502
C26   C     C_2   0.521522 0.485151 0.170801 -0.003409
C27   C     C_2   0.454636 0.927680 0.197936 -0.004513
C28   C     C_2   0.154181 0.528941 0.257769 -0.024210
C29   C     C_2   0.621743 0.557673 0.213971 0.024284
C30   C     C_2   0.362877 0.916609 0.243093 -0.002608
C31   C     C_2   0.298508 0.601904 0.259459 0.171493
C32   C     C_2   0.757945 0.600833 0.193382 0.302675
C33   C     C_2   0.219491 0.829273 0.239628 0.177826
C34   C     C_2   0.086717 0.459764 0.320487 0.080875
C35   C     C_3   0.059435 0.322123 0.333437 -0.218317
C36   C     C_3   0.131276 0.279508 0.285035 -0.451199
C37   C     C_3   0.687337 0.723237 0.312978 -0.240636
C38   C     C_3   0.692283 0.826395 0.263884 -0.440140
C39   C     C_3   0.368386 0.112963 0.295136 -0.214716
C40   C     C_3   0.305022 0.122236 0.227541 -0.404244
C41   C     C_2   0.937845 0.456664 0.197400 0.284904
C42   C     C_2   0.517670 0.373803 0.135488 0.246849
C43   C     C_2   0.596615 0.029155 0.202382 0.232125
C44   C     C_2   0.599394 0.588342 0.285463 -0.023538
C45   C     C_2   0.402377 0.004509 0.298703 0.011829
C46   C     C_R   0.452071 0.925186 0.929051 0.563171
C47   C     C_R   0.075971 0.528042 0.928751 0.566560
C48   C     C_R   0.443301 0.590555 0.918773 0.560775
Cr1   Cr    Cr6+3 0.468420 0.238090 0.499960 1.025885
Cr2   Cr    Cr6+3 0.761910 0.230330 0.499960 1.036972
Cr3   Cr    Cr6+3 0.769670 0.531580 0.499960 1.031384
Cr4   Cr    Cr6+3 0.515700 0.760130 0.026360 1.039183
Cr5   Cr    Cr6+3 0.239870 0.755570 0.026360 1.095794
Cr6   Cr    Cr6+3 0.244430 0.484300 0.026360 1.019281
H1    H     H_    0.057186 0.614145 0.343188 0.071487
H2    H     H_    0.088233 0.313918 0.387227 0.159567
H3    H     H_    0.953992 0.253223 0.326464 0.201392
H4    H     H_    0.741502 0.829361 0.214830 0.162849
H5    H     H_    0.592164 0.805707 0.252455 0.162281
H6    H     H_    0.747151 0.922564 0.288289 0.136572
H7    H     H_    0.650027 0.735293 0.363140 0.191873
H8    H     H_    0.787209 0.740054 0.321154 0.138463
H9    H     H_    0.356527 0.114899 0.181852 0.226443
H10   H     H_    0.201370 0.045320 0.225754 0.166811
H11   H     H_    0.308294 0.216336 0.224531 0.107339
H12   H     H_    0.451583 0.398256 0.304357 0.069014
H13   H     H_    0.299425 0.099818 0.337069 0.153103
H14   H     H_    0.459706 0.206578 0.301681 0.201584
H15   H     H_    0.892356 0.452917 0.147992 0.201296
H16   H     H_    0.457343 0.333197 0.090052 0.121216
H17   H     H_    0.669126 0.012200 0.178787 0.117485
H18   H     H_    0.512985 0.923941 0.341347 0.093817
H19   H     H_    0.354488 0.643663 0.212962 0.059330
H20   H     H_    0.833969 0.634234 0.232155 0.114612
H21   H     H_    0.166294 0.796659 0.287628 0.095501
H22   H     H_    0.100623 0.279196 0.230642 0.167857
H23   H     H_    0.237445 0.344881 0.289582 0.168705
H24   H     H_    0.108432 0.180112 0.299481 0.126906
O1    O     O_R   0.434830 0.101190 0.575190 -0.505958
O2    O     O_R   0.664850 0.560590 0.424150 -0.519051
O3    O     O_R   0.484380 0.363570 0.430280 -0.506283
O4    O     O_R   0.636430 0.120810 0.430280 -0.484033
O5    O     O_R   0.879190 0.515620 0.430280 -0.501655
O6    O     O_3   0.666667 0.333333 0.499980 -0.273119
O7    O     O_R   0.548200 0.655360 0.951320 -0.476720
O8    O     O_R   0.344640 0.892840 0.951320 -0.497580
O9    O     O_R   0.107160 0.451800 0.951320 -0.507352
O10   O     O_R   0.505020 0.871000 0.955840 -0.509594
O11   O     O_R   0.129000 0.634020 0.955840 -0.487934
O12   O     O_R   0.898810 0.333640 0.575190 -0.510917
O13   O     O_R   0.365980 0.494980 0.955840 -0.482751
O14   O     O_R   0.543640 0.655270 0.102360 -0.482401
O15   O     O_R   0.344730 0.888370 0.102360 -0.432233
O16   O     O_R   0.111630 0.456360 0.102360 -0.520191
O17   O     O_R   0.500790 0.870920 0.095850 -0.519078
O18   O     O_R   0.129080 0.629870 0.095850 -0.436582
O19   O     O_R   0.370130 0.499210 0.095850 -0.526605
O20   O     O_2   0.356282 0.619036 0.314178 -0.539701
O21   O     O_2   0.787037 0.603118 0.132787 -0.471113
O22   O     O_2   0.157930 0.807502 0.186117 -0.490611
O23   O     O_R   0.666360 0.565170 0.575190 -0.503731
O24   O     O_2   0.866895 0.403468 0.246794 -0.486420
O25   O     O_2   0.580577 0.325374 0.157194 -0.446095
O26   O     O_2   0.633391 0.134326 0.228182 -0.431239
O27   O     O_3   0.333333 0.666667 0.026340 -0.300089
O28   O     O_R   0.480130 0.360720 0.570290 -0.494696
O29   O     O_R   0.639280 0.119410 0.570290 -0.499907
O30   O     O_R   0.880590 0.519870 0.570290 -0.500522
O31   O     O_R   0.439410 0.104260 0.424150 -0.541037
O32   O     O_R   0.895740 0.335150 0.424150 -0.521378

loop_
_geom_bond_atom_site_label_1
_geom_bond_atom_site_label_2
_ccdc_geom_bond_type
C7    O5    A    
C11   C18   T    
C6    O4    A    
Cr3   O5    S    
C39   H14   S    
C30   C45   S    
C35   C36   S    
Cr2   O32   S    
C42   O25   D    
C37   H8    S    
Cr2   O6    S    
C25   C28   D    
C26   C42   S    
C40   H9    S    
C24   C45   D    
Cr1   O6    S    
C41   H15   S    
Cr4   O7    S    
C9    C16   T    
C29   C32   S    
C36   H23   S    
C32   H20   S    
Cr6   O9    S    
C31   H19   S    
C10   C17   T    
C12   O1    A    
C42   H16   S    
C41   O24   D    
Cr4   O17   S    
C34   C35   S    
C31   O20   D    
Cr1   O3    S    
Cr3   O2    S    
C22   H12   S    
C3    O18   A    
C36   H22   S    
C38   H4    S    
C11   C15   S    
C33   H21   S    
C22   C44   D    
C5    C22   S    
Cr3   O30   S    
C48   O13   A    
C10   C46   S    
Cr6   O19   S    
Cr5   O8    S    
Cr6   O27   S    
C1    O28   A    
C39   C45   S    
C4    O14   A    
C28   C34   S    
C4    O19   A    
C27   C30   D    
C47   O11   A    
C14   C17   S    
Cr2   O12   S    
C46   O10   A    
C28   C31   S    
C24   H18   S    
C1    C19   S    
C13   C19   T    
Cr5   O15   S    
C18   C23   S    
C14   C20   T    
Cr4   O10   S    
C25   C41   S    
C39   C40   S    
C21   H1    S    
C21   C34   D    
C7    C21   S    
Cr1   O1    S    
C47   O9    A    
C37   C38   S    
Cr5   O27   S    
C5    O3    A    
C4    C26   S    
C3    C25   S    
C6    C24   S    
C12   C20   S    
C23   O12   A    
C5    O2    A    
C2    C27   S    
C9    C48   S    
C38   H6    S    
Cr4   O27   S    
C8    C15   T    
C40   H11   S    
C29   C44   S    
Cr5   O11   S    
Cr2   O29   S    
C6    O31   A    
Cr4   O14   S    
C1    O23   A    
Cr2   O4    S    
Cr1   O31   S    
C2    O17   A    
C43   H17   S    
C30   C33   S    
C35   H2    S    
C39   H13   S    
C2    O15   A    
C12   O29   A    
C37   H7    S    
C7    O32   A    
Cr1   O28   S    
Cr3   O23   S    
C40   H10   S    
C32   O21   D    
C35   H3    S    
C33   O22   D    
C37   C44   S    
C8    C47   S    
Cr6   O13   S    
C36   H24   S    
C43   O26   D    
C23   O30   A    
C3    O16   A    
Cr6   O16   S    
C38   H5    S    
C27   C43   S    
C26   C29   D    
C13   C16   S    
C48   O7    A    
C46   O8    A    
Cr3   O6    S    
Cr5   O18   S    
