data_mof_unit_64638.cif
_audit_creation_date              2012-12-10T20:49:15-0500
_audit_creation_method            fapswitch 2.2
_symmetry_space_group_name_H-M    P1
_symmetry_Int_Tables_number       1
_space_group_crystal_system       triclinic
_cell_length_a                    19.182428
_cell_length_b                    19.214984
_cell_length_c                    19.506874
_cell_angle_alpha                 90.139267
_cell_angle_beta                  95.159347
_cell_angle_gamma                 85.366007
_cell_volume                      7137.41605174

loop_
_atom_site_label
_atom_site_type_symbol
_atom_type_description
_atom_site_fract_x
_atom_site_fract_y
_atom_site_fract_z
_atom_type_partial_charge
C1    C     C_R   0.493362 0.689281 0.506901 0.511830
C2    C     C_2   0.468555 0.475015 0.018243 -0.136696
C3    C     C_2   0.518680 0.497942 0.982523 -0.140036
C4    C     C_R   0.507033 0.310940 0.492586 0.509833
C5    C     C_R   0.512748 0.490491 0.763596 0.036115
C6    C     C_R   0.508735 0.234420 0.489127 0.016903
C7    C     C_R   0.462226 0.199010 0.525097 -0.155827
C8    C     C_R   0.463485 0.126680 0.522579 -0.106002
C9    C     C_R   0.511706 0.087850 0.483897 0.215122
C10   C     C_R   0.558234 0.123401 0.447619 -0.004245
C11   C     C_R   0.556486 0.196246 0.450122 -0.151402
C12   C     C_R   0.469772 0.485941 0.093172 0.038417
C13   C     C_R   0.544497 0.875412 0.535063 -0.001667
C14   C     C_R   0.550321 0.801883 0.532711 -0.058248
C15   C     C_R   0.479869 0.912746 0.512783 0.200749
C16   C     C_R   0.689800 0.492269 0.507578 0.510026
C17   C     C_R   0.490804 0.766093 0.509728 0.005179
C18   C     C_R   0.426922 0.804328 0.489425 -0.162006
C19   C     C_R   0.421490 0.876789 0.491597 -0.121179
C20   C     C_R   0.233293 0.508474 0.487251 0.030829
C21   C     C_R   0.200652 0.473906 0.537301 -0.151699
C22   C     C_R   0.128071 0.472251 0.531961 -0.092376
C23   C     C_R   0.407406 0.504355 0.125506 0.049620
C24   C     C_R   0.086576 0.505230 0.476112 0.225719
C25   C     C_R   0.119256 0.538832 0.425679 -0.111192
C26   C     C_R   0.192104 0.541148 0.431431 -0.150730
C27   C     C_R   0.875720 0.470331 0.458012 -0.090274
C28   C     C_R   0.310177 0.507723 0.492357 0.504454
C29   C     C_R   0.802972 0.468367 0.454946 -0.150312
C30   C     C_R   0.912938 0.493918 0.518085 0.225070
C31   C     C_R   0.766602 0.490590 0.511356 0.033417
C32   C     C_R   0.804036 0.513024 0.571418 -0.135703
C33   C     C_R   0.876732 0.513750 0.574891 -0.105204
C34   C     C_R   0.411807 0.509151 0.198834 0.020872
C35   C     C_R   0.508750 0.491865 0.688380 0.504641
C36   C     C_R   0.489602 0.506590 0.311661 0.497791
C37   C     C_R   0.479407 0.502452 0.236371 0.034193
C38   C     C_R   0.539467 0.486044 0.202415 -0.143010
C39   C     C_R   0.534578 0.476181 0.132333 -0.134030
C40   C     C_1   0.617823 0.764105 0.551875 0.232887
C41   C     C_1   0.603916 0.912380 0.562176 0.251738
C42   C     C_1   0.608621 0.085538 0.407881 0.228140
C43   C     C_3   0.338093 0.520518 0.081148 -0.274296
C44   C     C_3   0.337351 0.589713 0.042388 -0.431970
C45   C     C_R   0.480642 0.442268 0.869660 -0.107655
C46   C     C_3   0.345526 0.514773 0.236957 -0.257875
C47   C     C_3   0.315472 0.590474 0.243050 -0.406906
C48   C     C_R   0.477970 0.441696 0.798131 -0.126438
C49   C     C_R   0.551480 0.538834 0.801497 -0.120777
C50   C     C_R   0.553788 0.539668 0.872805 -0.118141
C51   C     C_R   0.517338 0.492483 0.907339 0.040775
H1    H     H_    0.590872 0.479243 0.230692 0.134309
H2    H     H_    0.902784 0.453095 0.413857 0.136904
H3    H     H_    0.088075 0.563796 0.382156 0.120993
H4    H     H_    0.216215 0.567483 0.391766 0.127755
H5    H     H_    0.777132 0.529778 0.615849 0.142415
H6    H     H_    0.104577 0.444560 0.571125 0.137284
H7    H     H_    0.904960 0.530981 0.621646 0.124706
H8    H     H_    0.231219 0.447970 0.580665 0.136989
H9    H     H_    0.579204 0.576818 0.776086 0.140845
H10   H     H_    0.559583 0.526714 0.008903 0.121698
H11   H     H_    0.454297 0.403197 0.894886 0.105862
H12   H     H_    0.582957 0.578245 0.900987 0.107796
H13   H     H_    0.424270 0.451663 0.991830 0.118849
H14   H     H_    0.582244 0.460385 0.108581 0.119188
H15   H     H_    0.347667 0.632710 0.079128 0.155354
H16   H     H_    0.377318 0.587312 0.004609 0.166368
H17   H     H_    0.284996 0.601792 0.013941 0.137465
H18   H     H_    0.328343 0.477540 0.044382 0.129494
H19   H     H_    0.291643 0.524542 0.110784 0.141916
H20   H     H_    0.269222 0.592289 0.273563 0.128893
H21   H     H_    0.355150 0.622764 0.269284 0.187616
H22   H     H_    0.298465 0.613617 0.191695 0.140306
H23   H     H_    0.592776 0.222984 0.422076 0.143816
H24   H     H_    0.305250 0.482351 0.212110 0.118223
H25   H     H_    0.355289 0.491172 0.289064 0.158973
H26   H     H_    0.380634 0.777997 0.472355 0.141336
H27   H     H_    0.427006 0.101429 0.551554 0.143992
H28   H     H_    0.371638 0.905302 0.475733 0.130904
H29   H     H_    0.424699 0.227172 0.555427 0.143125
H30   H     H_    0.775097 0.450724 0.408177 0.134267
H31   H     H_    0.448778 0.403175 0.769956 0.132685
N1    N     N_2   0.516440 0.013620 0.482164 -0.212977
N2    N     N_2   0.471366 0.986499 0.513203 -0.256140
N3    N     N_2   0.012400 0.504350 0.468644 -0.245597
N4    N     N_2   0.986781 0.496251 0.524335 -0.249254
N5    N     N_1   0.671725 0.734068 0.567135 -0.265413
N6    N     N_1   0.651328 0.941876 0.583807 -0.264391
N7    N     N_1   0.649025 0.055147 0.376038 -0.272432
O1    O     O_3   0.500000 0.500000 0.500000 -0.438745
O2    O     O_R   0.546320 0.532340 0.658770 -0.548977
O3    O     O_R   0.450550 0.549430 0.344370 -0.552812
O4    O     O_R   0.467400 0.453980 0.652500 -0.546197
O5    O     O_R   0.535730 0.464240 0.344360 -0.544049
O6    O     O_R   0.656240 0.454400 0.463600 -0.544296
O7    O     O_R   0.340160 0.549180 0.454800 -0.552825
O8    O     O_R   0.536860 0.652450 0.548350 -0.526265
O9    O     O_R   0.466740 0.343960 0.533260 -0.546961
O10   O     O_R   0.451210 0.659450 0.463610 -0.544807
O11   O     O_R   0.545190 0.344140 0.454780 -0.544344
O12   O     O_R   0.656710 0.532590 0.548340 -0.535087
O13   O     O_R   0.346890 0.463830 0.533270 -0.545966
Zn1   Zn    Zn3+2 0.558280 0.441710 0.441700 0.937215
Zn2   Zn    Zn3+2 0.558950 0.553420 0.562770 0.958491
Zn3   Zn    Zn3+2 0.446190 0.441460 0.553820 0.930986
Zn4   Zn    Zn3+2 0.436580 0.563410 0.441710 0.922091

loop_
_geom_bond_atom_site_label_1
_geom_bond_atom_site_label_2
_ccdc_geom_bond_type
C33   H7    S    
C4    O9    A    
C27   C29   A    
C34   C37   A    
C44   H15   S    
O2    Zn2   S    
C2    C12   S    
C26   H4    S    
C1    O10   A    
C22   H6    S    
C46   H25   S    
C7    C8    A    
N3    N4    D    
C16   C31   S    
C15   C19   A    
C12   C23   A    
C49   H9    S    
C40   N5    T    
C36   C37   S    
C21   H8    S    
C38   C39   A    
C10   C42   S    
C45   C51   A    
C45   H11   S    
C23   C43   S    
O13   Zn3   S    
C18   C19   A    
O10   Zn4   S    
O4    Zn3   S    
C31   C32   A    
O6    Zn1   S    
C8    C9    A    
C34   C46   S    
C30   N4    S    
C9    C10   A    
C36   O3    A    
C3    H10   S    
C43   H18   S    
C13   C14   A    
C27   C30   A    
C8    H27   S    
C50   H12   S    
C39   H14   S    
C14   C17   A    
C5    C49   A    
C13   C41   S    
C46   H24   S    
C2    H13   S    
C50   C51   A    
C35   O4    A    
O1    Zn1   S    
C5    C48   A    
C24   C25   A    
C47   H22   S    
C4    C6    S    
C1    O8    A    
C6    C11   A    
C3    C51   S    
C20   C28   S    
C25   C26   A    
O11   Zn1   S    
C43   C44   S    
C29   H30   S    
C37   C38   A    
C36   O5    A    
N1    N2    D    
C23   C34   A    
C47   H20   S    
C17   C18   A    
C25   H3    S    
C19   H28   S    
O9    Zn3   S    
O1    Zn2   S    
C6    C7    A    
C9    N1    S    
O3    Zn4   S    
O5    Zn1   S    
C43   H19   S    
C13   C15   A    
C22   C24   A    
C44   H17   S    
C24   N3    S    
C45   C48   A    
C41   N6    T    
O7    Zn4   S    
C46   C47   S    
C16   O6    A    
C30   C33   A    
O1    Zn3   S    
C11   H23   S    
C27   H2    S    
C15   N2    S    
O12   Zn2   S    
C1    C17   S    
C28   O7    A    
C42   N7    T    
C32   C33   A    
C12   C39   A    
C4    O11   A    
C2    C3    D    
C29   C31   A    
C20   C26   A    
C18   H26   S    
C5    C35   S    
C48   H31   S    
C47   H21   S    
O8    Zn2   S    
C10   C11   A    
O1    Zn4   S    
C14   C40   S    
C28   O13   A    
C16   O12   A    
C38   H1    S    
C20   C21   A    
C49   C50   A    
C44   H16   S    
C21   C22   A    
C32   H5    S    
C7    H29   S    
C35   O2    A    
