data_mof_unit_18995.cif
_audit_creation_date              2012-12-10T16:59:20-0500
_audit_creation_method            fapswitch 2.2
_symmetry_space_group_name_H-M    P1
_symmetry_Int_Tables_number       1
_space_group_crystal_system       triclinic
_cell_length_a                    7.745179
_cell_length_b                    8.561253
_cell_length_c                    27.307041
_cell_angle_alpha                 90.856443
_cell_angle_beta                  85.994313
_cell_angle_gamma                 93.680325
_cell_volume                      1802.4393282

loop_
_atom_site_label
_atom_site_type_symbol
_atom_type_description
_atom_site_fract_x
_atom_site_fract_y
_atom_site_fract_z
_atom_type_partial_charge
C1    C     C_R   0.545900 0.794854 0.498840 0.966696
C2    C     C_R   0.650323 0.393146 0.124926 -0.028338
C3    C     C_R   0.504410 0.466783 0.646241 -0.096527
C4    C     C_R   0.486429 0.464965 0.353946 -0.085560
C5    C     C_R   0.673185 0.349996 0.021835 0.043484
C6    C     C_R   0.371701 0.239724 0.974212 0.042436
C7    C     C_R   0.365806 0.249008 0.026235 0.041434
C8    C     C_R   0.678971 0.340794 0.969851 0.043369
C9    C     C_R   0.515026 0.308796 0.049589 0.075997
C10   C     C_R   0.526300 0.291368 0.946409 0.075964
C11   C     C_R   0.818553 0.405669 0.047222 -0.232943
C12   C     C_R   0.454136 0.205180 0.501538 0.963900
C13   C     C_R   0.225932 0.186006 0.948661 -0.230827
C14   C     C_R   0.806740 0.427180 0.097685 -0.144954
C15   C     C_R   0.227537 0.195011 0.897964 -0.152998
C16   C     C_R   0.502538 0.499688 0.594164 0.853908
C17   C     C_R   0.496879 0.495925 0.406036 0.859484
C18   C     C_R   0.830773 0.385577 0.940133 -0.237295
C19   C     C_R   0.213190 0.206628 0.055943 -0.230321
C20   C     C_2   0.570173 0.958343 0.498379 -0.389811
C21   C     C_2   0.429937 0.041753 0.502608 -0.384901
C22   C     C_R   0.669908 0.374113 0.815972 0.520165
C23   C     C_R   0.526568 0.298728 0.894550 -0.048794
C24   C     C_R   0.339152 0.323751 0.180027 0.514941
C25   C     C_R   0.372930 0.279111 0.820126 0.505163
C26   C     C_R   0.635588 0.420424 0.175621 0.516965
C27   C     C_R   0.584546 0.287933 0.707422 -0.106192
C28   C     C_R   0.441776 0.559922 0.273223 -0.081685
C29   C     C_R   0.582384 0.330582 0.658739 -0.239984
C30   C     C_R   0.447804 0.586268 0.323499 -0.244849
C31   C     C_R   0.429115 0.563089 0.683364 0.187036
C32   C     C_R   0.511588 0.313461 0.334282 0.187065
C33   C     C_R   0.431002 0.517419 0.732327 -0.098800
C34   C     C_R   0.504837 0.331181 0.101270 -0.048282
C35   C     C_R   0.504591 0.289007 0.283876 -0.103238
C36   C     C_R   0.508569 0.380873 0.744151 0.261679
C37   C     C_R   0.471996 0.411719 0.253519 0.264070
C38   C     C_3   0.451341 0.846441 0.687920 -0.771837
C39   C     C_3   0.402152 0.068864 0.371494 -0.781183
C40   C     C_R   0.677014 0.353800 0.866495 -0.026180
C41   C     C_R   0.348351 0.294255 0.129349 -0.029693
C42   C     C_R   0.829230 0.392332 0.889512 -0.137014
C43   C     C_R   0.204875 0.229498 0.106406 -0.145271
C44   C     C_R   0.374815 0.255880 0.870732 -0.029387
H1    H     H_    0.013760 0.382320 0.463301 0.194220
H2    H     H_    0.645418 0.182906 0.716707 0.154845
H3    H     H_    0.921019 0.472875 0.115208 0.197555
H4    H     H_    0.110842 0.157060 0.880283 0.194939
H5    H     H_    0.943891 0.436967 0.029388 0.150453
H6    H     H_    0.105973 0.139361 0.966566 0.149182
H7    H     H_    0.953296 0.419919 0.954572 0.152055
H8    H     H_    0.095448 0.157984 0.041541 0.150158
H9    H     H_    0.702570 0.009503 0.494366 0.183039
H10   H     H_    0.297528 0.990607 0.506550 0.182956
H11   H     H_    0.313402 0.714839 0.637834 0.242360
H12   H     H_    0.986243 0.617656 0.536704 0.193780
H13   H     H_    0.380583 0.950625 0.679598 0.252427
H14   H     H_    0.581429 0.856222 0.667866 0.231244
H15   H     H_    0.466220 0.845907 0.728070 0.254869
H16   H     H_    0.605161 0.212712 0.395850 0.246065
H17   H     H_    0.443730 0.969328 0.392452 0.239403
H18   H     H_    0.359747 0.022778 0.335730 0.252348
H19   H     H_    0.291581 0.120730 0.392621 0.240748
H20   H     H_    0.373812 0.588769 0.761469 0.150337
H21   H     H_    0.528556 0.175107 0.267927 0.146793
H22   H     H_    0.947584 0.431823 0.868556 0.202490
H23   H     H_    0.083954 0.197879 0.127340 0.196805
H24   H     H_    0.426192 0.701753 0.338541 0.151855
H25   H     H_    0.639983 0.255765 0.630560 0.165013
H26   H     H_    0.416897 0.654874 0.249457 0.146841
N1    N     N_R   0.517923 0.341157 0.794336 -0.354346
N2    N     N_R   0.481264 0.387018 0.201755 -0.355782
N3    N     N_2   0.950320 0.457960 0.486880 -0.169861
N4    N     N_2   0.049680 0.542040 0.513120 -0.170124
N5    N     N_2   0.354783 0.705894 0.672608 -0.299548
N6    N     N_2   0.545320 0.185016 0.364114 -0.309747
O1    O     O_R   0.389250 0.738570 0.503220 -0.615139
O2    O     O_2   0.189849 0.290041 0.207403 -0.530533
O3    O     O_2   0.774138 0.479678 0.198762 -0.528342
O4    O     O_2   0.227102 0.242663 0.796951 -0.537959
O5    O     O_R   0.610750 0.261430 0.496780 -0.622790
O6    O     O_R   0.678390 0.711630 0.494810 -0.624662
O7    O     O_R   0.321610 0.288370 0.505190 -0.625656
O8    O     O_R   0.355440 0.513440 0.575450 -0.618493
O9    O     O_R   0.644560 0.486560 0.424550 -0.615159
O10   O     O_R   0.644590 0.486500 0.567040 -0.615303
O11   O     O_R   0.355410 0.513500 0.432960 -0.613682
O12   O     O_2   0.812125 0.430361 0.788823 -0.529427
Zn1   Zn    Zn3+2 0.306940 0.517990 0.505620 0.948748
Zn2   Zn    Zn3+2 0.693060 0.482010 0.494380 0.948128

loop_
_geom_bond_atom_site_label_1
_geom_bond_atom_site_label_2
_ccdc_geom_bond_type
C27   C29   A    
C25   O4    S    
C26   N2    A    
N3    N4    D    
N3    Zn2   S    
O1    Zn1   S    
C17   O9    A    
N4    Zn1   S    
C35   C37   A    
C15   C44   A    
C5    C11   A    
C18   C42   A    
C21   H10   S    
C11   C14   A    
C35   H21   S    
C23   C40   A    
C16   O8    A    
C33   C36   A    
C1    O1    A    
H1    N3    S    
C3    C29   A    
C38   H14   S    
C14   H3    S    
C19   H8    S    
C31   C33   A    
C25   N1    A    
C22   O12   S    
C36   N1    S    
H11   N5    S    
C2    C34   A    
C40   C42   A    
C16   O10   A    
C24   C41   A    
C41   C43   A    
C34   C41   A    
C15   H4    S    
C39   H17   S    
C25   C44   A    
C19   C43   A    
C18   H7    S    
C29   H25   S    
C38   N5    S    
O7    Zn1   S    
H12   N4    S    
C32   C35   A    
O10   Zn2   S    
C1    O6    A    
C12   C21   S    
H16   N6    S    
C8    C18   A    
C23   C44   A    
C38   H15   S    
C12   O7    A    
C5    C9    A    
C11   H5    S    
C38   H13   S    
C31   N5    S    
C22   C40   A    
C2    C26   A    
C39   N6    S    
C3    C31   A    
C4    C32   A    
C4    C17   S    
C27   H2    S    
C24   O2    S    
C7    C19   A    
C13   C15   A    
C9    C34   A    
C10   C23   A    
O8    Zn1   S    
O5    Zn2   S    
C22   N1    A    
C24   N2    A    
C7    C9    A    
C39   H18   S    
C1    C20   S    
C17   O11   A    
C8    C10   A    
C28   H26   S    
C20   H9    S    
C32   N6    S    
C5    C8    A    
O9    Zn2   S    
C6    C7    A    
C27   C36   A    
C39   H19   S    
C26   O3    S    
O6    Zn2   S    
C28   C30   A    
C6    C13   A    
C28   C37   A    
C33   H20   S    
C12   O5    A    
C2    C14   A    
C30   H24   S    
C6    C10   A    
C13   H6    S    
C20   C21   D    
C43   H23   S    
C37   N2    S    
C42   H22   S    
O11   Zn1   S    
C4    C30   A    
C3    C16   S    
