data_mof_unit_49466.cif
_audit_creation_date              2012-12-10T17:54:23-0500
_audit_creation_method            fapswitch 2.2
_symmetry_space_group_name_H-M    P1
_symmetry_Int_Tables_number       1
_space_group_crystal_system       triclinic
_cell_length_a                    27.672837
_cell_length_b                    10.689882
_cell_length_c                    9.941797
_cell_angle_alpha                 91.913196
_cell_angle_beta                  90.004598
_cell_angle_gamma                 93.399234
_cell_volume                      2934.15894856

loop_
_atom_site_label
_atom_site_type_symbol
_atom_type_description
_atom_site_fract_x
_atom_site_fract_y
_atom_site_fract_z
_atom_type_partial_charge
C1    C     C_R   0.505926 0.262571 0.498282 0.864461
C2    C     C_R   0.278148 0.503652 0.375617 -0.122903
C3    C     C_R   0.252637 0.506961 0.496684 0.287441
C4    C     C_R   0.101426 0.500083 0.469832 -0.056730
C5    C     C_R   0.124621 0.388985 0.493013 -0.006233
C6    C     C_R   0.097047 0.276378 0.506733 -0.155953
C7    C     C_R   0.129137 0.613739 0.457951 -0.067745
C8    C     C_R   0.353322 0.504191 0.499511 -0.092366
C9    C     C_R   0.646648 0.496466 0.499005 -0.051745
C10   C     C_R   0.972480 0.378335 0.439915 0.013255
C11   C     C_R   0.976642 0.608049 0.470625 0.065850
C12   C     C_R   0.406093 0.501193 0.499988 0.891355
C13   C     C_R   0.949161 0.491704 0.458656 0.040986
C14   C     C_R   0.944349 0.267615 0.401023 0.024967
C15   C     C_R   0.893327 0.265600 0.406309 0.095186
C16   C     C_R   0.870133 0.375580 0.445004 -0.058958
C17   C     C_R   0.898231 0.489014 0.468292 -0.098779
C18   C     C_R   0.875484 0.600323 0.502927 -0.000147
C19   C     C_R   0.825208 0.597096 0.513571 0.519451
C20   C     C_R   0.819384 0.377700 0.457693 0.542128
C21   C     C_R   0.722700 0.484964 0.618359 0.160442
C22   C     C_R   0.672346 0.489080 0.620042 -0.272643
C23   C     C_R   0.499345 0.740802 0.503248 0.881037
C24   C     C_R   0.671668 0.499235 0.376238 -0.206320
C25   C     C_R   0.721647 0.495156 0.374459 -0.161515
C26   C     C_R   0.747138 0.488256 0.494908 0.335786
C27   C     C_R   0.023181 0.381084 0.461175 0.081827
C28   C     C_R   0.050528 0.497509 0.459301 0.039410
C29   C     C_R   0.027249 0.611359 0.448995 -0.005068
C30   C     C_R   0.047095 0.272683 0.492398 -0.181336
C31   C     C_R   0.106280 0.722920 0.429547 -0.121640
C32   C     C_R   0.953131 0.715490 0.513521 -0.242786
C33   C     C_R   0.903309 0.712041 0.528124 -0.141335
C34   C     C_R   0.593916 0.499743 0.499945 0.864007
C35   C     C_R   0.056023 0.722872 0.421162 0.076864
C36   C     C_R   0.555627 0.142564 0.718051 -0.146607
C37   C     C_R   0.561087 0.090285 0.843018 -0.110921
C38   C     C_R   0.539862 0.972048 0.866064 -0.156340
C39   C     C_R   0.516956 0.902011 0.760875 -0.194343
C40   C     C_R   0.515846 0.948224 0.628638 0.103512
C41   C     C_R   0.529588 0.075164 0.613550 0.100703
C42   C     C_R   0.515149 0.132131 0.495556 -0.126717
C43   C     C_R   0.501052 0.061045 0.381314 -0.230048
C44   C     C_R   0.494963 0.933934 0.387944 -0.215992
C45   C     C_R   0.175064 0.393822 0.503630 0.494932
C46   C     C_R   0.501254 0.875994 0.510325 -0.118458
C47   C     C_R   0.454159 0.292672 0.130328 0.148901
C48   C     C_R   0.447595 0.179351 0.056921 -0.306019
C49   C     C_R   0.447014 0.180119 0.918951 -0.234833
C50   C     C_R   0.452845 0.294188 0.855414 0.174316
C51   C     C_R   0.476956 0.399537 0.924224 0.106591
C52   C     C_R   0.477370 0.399035 0.068761 0.108409
C53   C     C_R   0.522699 0.593697 0.074734 -0.121652
C54   C     C_R   0.523187 0.592798 0.932078 -0.147436
C55   C     C_R   0.179528 0.614286 0.469543 0.509576
C56   C     C_R   0.277351 0.511006 0.620561 0.145665
C57   C     C_R   0.327647 0.509477 0.621256 -0.196572
C58   C     C_R   0.328216 0.502853 0.376784 -0.223115
H1    H     H_    0.127483 0.808899 0.409919 0.200929
H2    H     H_    0.972970 0.802023 0.542237 0.145953
H3    H     H_    0.886731 0.797425 0.559944 0.183742
H4    H     H_    0.740775 0.498028 0.279468 0.141732
H5    H     H_    0.571725 0.235947 0.703787 0.152142
H6    H     H_    0.258975 0.501362 0.280502 0.145257
H7    H     H_    0.540965 0.934484 0.965762 0.135282
H8    H     H_    0.497914 0.816533 0.788974 0.172871
H9    H     H_    0.484010 0.881411 0.296736 0.169820
H10   H     H_    0.432849 0.095906 0.104801 0.159796
H11   H     H_    0.027576 0.185097 0.513223 0.162650
N1    N     N_R   0.201167 0.505409 0.492263 -0.358430
N2    N     N_R   0.798565 0.487213 0.490613 -0.353366
N3    N     N_R   0.499540 0.498800 0.142780 -0.105984
N4    N     N_R   0.499520 0.498720 0.857170 -0.108188
O1    O     O_R   0.500000 0.316780 0.614690 -0.615937
O2    O     O_2   0.790742 0.272098 0.437970 -0.522675
O3    O     O_2   0.206800 0.722339 0.458049 -0.554663
O4    O     O_2   0.802867 0.702987 0.545540 -0.555488
O5    O     O_R   0.500000 0.316750 0.385360 -0.606429
O6    O     O_R   0.428760 0.500030 0.614650 -0.601638
O7    O     O_R   0.428750 0.500010 0.385320 -0.599125
O8    O     O_R   0.500000 0.683250 0.614640 -0.635288
O9    O     O_R   0.500000 0.683220 0.385310 -0.621691
O10   O     O_R   0.571250 0.499990 0.614680 -0.628243
O11   O     O_R   0.571240 0.499970 0.385350 -0.619615
O12   O     O_2   0.198000 0.288064 0.524038 -0.559635
Zn1   Zn    Zn3+2 0.500000 0.500020 0.653130 0.949475
Zn2   Zn    Zn3+2 0.500000 0.499980 0.346870 0.960808
H12   H     H_    0.347127 0.501138 0.281524 0.166557
N5    N     N_3   0.252032 0.517651 0.745946 -0.464978
H13   H     H_    0.228265 0.438318 0.751546 0.211958
H14   H     H_    0.231494 0.596666 0.746577 0.200237
H15   H     H_    0.652726 0.504787 0.281489 0.167624
N6    N     N_3   0.036670 0.831104 0.364076 -0.461037
H16   H     H_    0.033465 0.900764 0.439270 0.175239
H17   H     H_    0.003522 0.808770 0.316207 0.202983
H18   H     H_    0.492956 0.103655 0.287733 0.174309
H19   H     H_    0.579901 0.143679 0.923528 0.139201
H20   H     H_    0.541486 0.670332 0.130705 0.146644
N7    N     N_3   0.422761 0.307088 0.242570 -0.368028
H21   H     H_    0.388007 0.317024 0.204610 0.163804
H22   H     H_    0.420667 0.225287 0.297734 0.173977
H23   H     H_    0.432143 0.097212 0.864321 0.165501
N8    N     N_3   0.420521 0.309751 0.746491 -0.372931
H24   H     H_    0.385871 0.317211 0.786870 0.161777
H25   H     H_    0.418894 0.229379 0.683142 0.177566
H26   H     H_    0.543188 0.667294 0.881729 0.143949
H27   H     H_    0.113902 0.190666 0.529710 0.191351
H28   H     H_    0.653583 0.486254 0.715641 0.160777
N9    N     N_3   0.749188 0.477337 0.741187 -0.445831
H29   H     H_    0.741782 0.554919 0.802960 0.197727
H30   H     H_    0.736132 0.396756 0.789416 0.186729
N10   N     N_3   0.865193 0.151895 0.371332 -0.370034
H31   H     H_    0.872620 0.124607 0.271940 0.183370
H32   H     H_    0.874691 0.081621 0.435254 0.190274
N11   N     N_3   0.967339 0.161637 0.342785 -0.467725
H33   H     H_    0.957391 0.081949 0.396806 0.166397
H34   H     H_    0.955724 0.147104 0.243164 0.195563
H35   H     H_    0.346477 0.512796 0.716939 0.169189

loop_
_geom_bond_atom_site_label_1
_geom_bond_atom_site_label_2
_ccdc_geom_bond_type
O5    Zn2   S    
C10   C27   A    
C21   C26   A    
N6    H16   S    
C1    O5    A    
C23   O9    A    
C41   C42   A    
C19   N2    A    
O11   Zn2   S    
C7    C55   A    
C30   H11   S    
N10   H32   S    
C53   C54   A    
C40   C46   A    
C28   C29   A    
C1    O1    A    
C36   C37   A    
O7    Zn2   S    
N9    H30   S    
C38   C39   A    
C9    C22   A    
C14   N11   S    
C12   O6    A    
C47   N7    S    
C56   C57   A    
C17   C18   A    
C18   C19   A    
C31   H1    S    
C19   O4    S    
C8    C58   A    
N7    H21   S    
C44   C46   A    
C16   C17   A    
N11   H34   S    
C6    H27   S    
C20   N2    A    
N5    H14   S    
C36   H5    S    
O8    Zn1   S    
C8    C12   S    
C50   N8    S    
N6    H17   S    
C23   C46   S    
C21   C22   A    
C27   C30   A    
C26   N2    S    
C36   C41   A    
C34   O11   A    
C4    C7    A    
C24   H15   S    
C37   H19   S    
N10   H31   S    
C4    C28   A    
C2    H6    S    
C43   H18   S    
C35   N6    S    
C7    C31   A    
C54   H26   S    
C51   C52   A    
C3    N1    S    
C24   C25   A    
C10   C14   A    
C49   H23   S    
C25   C26   A    
C5    C45   A    
C48   H10   S    
C20   O2    S    
C45   O12   S    
C43   C44   A    
C37   C38   A    
C52   N3    A    
C8    C57   A    
C54   N4    A    
C3    C56   A    
C47   C48   A    
C38   H7    S    
C16   C20   A    
C50   C51   A    
N8    H25   S    
O1    Zn1   S    
C55   O3    S    
C40   C41   A    
C6    C30   A    
C11   C32   A    
C9    C34   S    
C39   H8    S    
O9    Zn2   S    
C42   C43   A    
C32   H2    S    
C39   C40   A    
N3    Zn2   S    
C56   N5    S    
C48   C49   A    
C23   O8    A    
N7    H22   S    
C45   N1    A    
C15   N10   S    
C51   N4    A    
C4    C5    A    
C10   C13   A    
C58   H12   S    
C21   N9    S    
C2    C58   A    
C9    C24   A    
C47   C52   A    
C53   H20   S    
C29   C35   A    
C13   C17   A    
C32   C33   A    
C2    C3    A    
N9    H29   S    
C11   C13   A    
N11   H33   S    
C5    C6    A    
C22   H28   S    
C12   O7    A    
C31   C35   A    
C25   H4    S    
C18   C33   A    
N4    Zn1   S    
C55   N1    A    
C1    C42   S    
O10   Zn1   S    
C11   C29   A    
C33   H3    S    
C49   C50   A    
C34   O10   A    
N8    H24   S    
C14   C15   A    
C44   H9    S    
N5    H13   S    
C53   N3    A    
O6    Zn1   S    
C15   C16   A    
C57   H35   S    
C27   C28   A    
