data_mof_unit_58607.cif
_audit_creation_date              2012-10-26T17:13:10-0400
_audit_creation_method            fapswitch 2.2
_symmetry_space_group_name_H-M    P1
_symmetry_Int_Tables_number       1
_space_group_crystal_system       triclinic
_cell_length_a                    16.728209
_cell_length_b                    16.91047
_cell_length_c                    16.90829
_cell_angle_alpha                 68.780841
_cell_angle_beta                  67.919206
_cell_angle_gamma                 67.607572
_cell_volume                      3962.23181471

loop_
_atom_site_label
_atom_site_type_symbol
_atom_type_description
_atom_site_fract_x
_atom_site_fract_y
_atom_site_fract_z
_atom_type_partial_charge
C1    C     C_R   0.325960 0.960437 0.448479 -0.050348
C2    C     C_R   0.677814 0.050940 0.545757 -0.058804
C3    C     C_R   0.014560 0.433082 0.306721 -0.061431
C4    C     C_R   0.984785 0.566061 0.694066 -0.083655
C5    C     C_R   0.436129 0.315105 0.990116 -0.089010
C6    C     C_R   0.550221 0.682117 0.027057 -0.062221
C7    C     C_R   0.562644 0.015455 0.683038 -0.093720
C8    C     C_R   0.450624 0.982269 0.313369 -0.061352
C9    C     C_R   0.673845 0.545513 0.050614 -0.045415
C10   C     C_R   0.321052 0.453213 0.954892 -0.044979
C11   C     C_R   0.989088 0.692459 0.564876 -0.057840
C12   C     C_R   0.012798 0.306001 0.434993 -0.070897
C13   C     C_R   0.462853 0.976612 0.455004 0.051845
C14   C     C_R   0.553529 0.009665 0.544868 0.063756
C15   C     C_R   0.010446 0.446056 0.447701 0.045061
C16   C     C_R   0.990895 0.551967 0.553040 0.048014
C17   C     C_R   0.444389 0.452239 0.999604 0.065623
C18   C     C_R   0.536835 0.541014 0.032199 0.052450
C19   C     C_R   0.018475 0.829931 0.567744 0.829128
C20   C     C_R   0.981398 0.169967 0.432355 0.806279
C21   C     C_R   0.827682 0.564206 0.029350 0.827942
C22   C     C_R   0.171770 0.436409 0.968908 0.817041
C23   C     C_R   0.567265 0.022674 0.828968 0.818569
C24   C     C_R   0.432168 0.983267 0.169182 0.815263
C25   C     C_R   0.432408 0.170832 0.978237 0.802113
C26   C     C_R   0.566425 0.828983 0.022994 0.836844
C27   C     C_R   0.982792 0.431835 0.169690 0.806331
C28   C     C_R   0.015590 0.568441 0.830988 0.816272
C29   C     C_R   0.171524 0.976841 0.433616 0.835287
C30   C     C_R   0.828205 0.031435 0.563555 0.832411
C31   C     C_R   0.413254 0.972097 0.405590 -0.004323
C32   C     C_R   0.596476 0.029330 0.590414 0.019598
C33   C     C_R   0.011591 0.395319 0.396713 -0.005604
C34   C     C_R   0.989348 0.603185 0.603799 -0.003218
C35   C     C_R   0.401583 0.407552 0.978528 0.019435
C36   C     C_R   0.586670 0.589386 0.038203 0.001899
C37   C     C_R   0.269695 0.971596 0.396131 -0.176453
C38   C     C_R   0.728347 0.052410 0.596428 -0.185577
C39   C     C_R   0.990361 0.391022 0.262943 -0.235736
C40   C     C_R   0.007713 0.608861 0.738149 -0.192302
C41   C     C_R   0.394816 0.268309 0.969419 -0.181337
C42   C     C_R   0.600694 0.731213 0.033281 -0.183431
C43   C     C_R   0.604507 0.033664 0.731101 -0.196157
C44   C     C_R   0.396045 0.984937 0.263315 -0.186514
C45   C     C_R   0.726879 0.597085 0.047476 -0.198060
C46   C     C_R   0.271491 0.403525 0.949857 -0.189843
C47   C     C_R   0.012204 0.736246 0.607788 -0.219171
C48   C     C_R   0.988182 0.263148 0.392321 -0.198953
C49   C     C_R   0.504915 0.961420 0.724054 0.363561
C50   C     C_R   0.540626 0.990952 0.276098 0.302741
C51   C     C_R   0.969461 0.732286 0.482587 0.314043
C52   C     C_R   0.034135 0.265547 0.516660 0.307440
C53   C     C_R   0.702769 0.451300 0.069057 0.313163
C54   C     C_R   0.290944 0.546267 0.941807 0.311712
C55   C     C_R   0.298622 0.938889 0.542383 0.317559
C56   C     C_R   0.709122 0.062571 0.453014 0.304949
C57   C     C_R   0.496022 0.272293 0.042283 0.354616
C58   C     C_R   0.463364 0.721227 0.011682 0.315408
C59   C     C_R   0.035995 0.514289 0.266656 0.310018
C60   C     C_R   0.962567 0.485024 0.734338 0.314531
C61   C     C_R   0.304493 0.990097 0.303594 0.361464
C62   C     C_R   0.685454 0.057656 0.685048 0.393656
C63   C     C_R   0.959633 0.315231 0.315365 0.392641
C64   C     C_R   0.036187 0.685603 0.687426 0.429182
C65   C     C_R   0.314889 0.315147 0.943731 0.360345
C66   C     C_R   0.684431 0.685742 0.051990 0.374187
C67   C     C_R   0.677330 0.025473 0.412252 -0.067561
C68   C     C_R   0.340086 0.958792 0.589317 -0.068307
C69   C     C_R   0.983130 0.426967 0.682412 -0.104356
C70   C     C_R   0.016139 0.571524 0.318892 -0.105717
C71   C     C_R   0.407409 0.670287 0.027931 -0.103660
C72   C     C_R   0.558543 0.315505 0.030599 -0.081845
C73   C     C_R   0.594902 0.973856 0.329422 -0.109227
C74   C     C_R   0.441166 0.975142 0.681219 -0.089386
C75   C     C_R   0.323092 0.587312 0.978506 -0.070298
C76   C     C_R   0.660299 0.405561 0.048597 -0.070965
C77   C     C_R   0.013720 0.317904 0.574176 -0.098919
C78   C     C_R   0.990023 0.679355 0.425905 -0.104065
C79   C     C_R   0.725563 0.004988 0.329767 0.309924
C80   C     C_R   0.301950 0.960973 0.679682 0.293970
C81   C     C_R   0.991363 0.335622 0.719135 0.242930
C82   C     C_R   0.007881 0.662603 0.282346 0.246427
C83   C     C_R   0.316876 0.710267 0.025542 0.258470
C84   C     C_R   0.648937 0.272438 0.030232 0.232279
C85   C     C_R   0.686932 0.971013 0.293091 0.251821
C86   C     C_R   0.352528 0.970308 0.725093 0.228595
C87   C     C_R   0.277142 0.672468 0.993850 0.301640
C88   C     C_R   0.699361 0.316134 0.042189 0.294405
C89   C     C_R   0.004544 0.281735 0.665644 0.240806
C90   C     C_R   0.999987 0.715094 0.334552 0.260463
C91   C     C_R   0.551697 0.982867 0.414834 -0.009764
C92   C     C_R   0.471745 0.988190 0.589793 -0.012808
C93   C     C_R   0.005197 0.408857 0.538005 -0.024554
C94   C     C_R   0.996697 0.588855 0.462697 -0.021875
C95   C     C_R   0.404216 0.540337 0.002375 -0.016292
C96   C     C_R   0.575451 0.451347 0.032665 -0.025683
C97   C     C_R   0.594970 0.004706 0.457722 -0.016554
C98   C     C_R   0.423694 0.976429 0.544323 -0.023419
C99   C     C_R   0.448459 0.582989 0.023455 -0.011022
C100  C     C_R   0.526581 0.406588 0.020933 -0.009814
C101  C     C_R   0.993742 0.462269 0.591098 -0.025927
C102  C     C_R   0.007287 0.535699 0.409856 -0.022846
Cu1   Cu    Cu3+1 0.995180 0.995180 0.424630 1.139163
Cu2   Cu    Cu3+1 0.004820 0.004820 0.575370 1.166009
Cu3   Cu    Cu3+1 0.995180 0.424630 0.995180 1.126162
Cu4   Cu    Cu3+1 0.004820 0.575370 0.004820 1.170111
Cu5   Cu    Cu3+1 0.424630 0.995180 0.995180 1.083694
Cu6   Cu    Cu3+1 0.575370 0.004820 0.004820 1.143119
O1    O     O_R   0.124540 0.978640 0.385460 -0.543183
O2    O     O_R   0.875460 0.021360 0.614540 -0.540856
O3    O     O_R   0.978640 0.385460 0.124540 -0.530158
O4    O     O_R   0.021360 0.614540 0.875460 -0.499070
O5    O     O_R   0.385460 0.124540 0.978640 -0.563999
O6    O     O_R   0.614540 0.875460 0.021360 -0.523865
O7    O     O_R   0.614540 0.021360 0.875460 -0.524835
O8    O     O_R   0.385460 0.978640 0.124540 -0.541346
O9    O     O_R   0.875460 0.614540 0.021360 -0.542097
O10   O     O_R   0.124540 0.385460 0.978640 -0.557552
O11   O     O_R   0.021360 0.875460 0.614540 -0.504661
O12   O     O_R   0.978640 0.124540 0.385460 -0.550270
O13   O     O_R   0.013780 0.867370 0.487190 -0.559328
O14   O     O_R   0.986220 0.132630 0.512810 -0.579657
O15   O     O_R   0.867370 0.487190 0.013780 -0.520881
O16   O     O_R   0.132630 0.512810 0.986220 -0.525156
O17   O     O_R   0.487190 0.013780 0.867370 -0.568025
O18   O     O_R   0.512810 0.986220 0.132630 -0.569937
O19   O     O_R   0.512810 0.132630 0.986220 -0.564321
O20   O     O_R   0.487190 0.867370 0.013780 -0.552767
O21   O     O_R   0.986220 0.512810 0.132630 -0.568917
O22   O     O_R   0.013780 0.487190 0.867370 -0.578283
O23   O     O_R   0.132630 0.986220 0.512810 -0.525919
O24   O     O_R   0.867370 0.013780 0.487190 -0.527375
O25   O     O_3   0.247797 0.013746 0.251340 -0.550273
C103  C     C_3   0.216951 0.107262 0.224291 0.092283
H1    H     H_    0.272183 0.134832 0.174408 0.153311
H2    H     H_    0.191239 0.137174 0.281319 0.110940
C104  C     C_3   0.139002 0.134944 0.184288 -0.356708
H3    H     H_    0.084656 0.105907 0.233005 0.265205
H4    H     H_    0.111375 0.208176 0.168992 0.189770
C105  C     C_3   0.167757 0.105296 0.100073 -0.564115
H5    H     H_    0.218400 0.137373 0.048497 0.261591
H6    H     H_    0.108457 0.125086 0.075140 0.250316
H7    H     H_    0.196212 0.032293 0.113026 0.286854
O26   O     O_3   0.727781 0.076906 0.729337 -0.553367
C106  C     C_3   0.700137 0.169422 0.719987 0.090615
H8    H     H_    0.694552 0.179564 0.783439 0.203534
H9    H     H_    0.632401 0.203742 0.707878 0.087777
C107  C     C_3   0.770738 0.212089 0.646773 -0.324818
H10   H     H_    0.837573 0.177260 0.659634 0.275936
H11   H     H_    0.774802 0.205828 0.582195 0.185999
C108  C     C_3   0.748083 0.309867 0.641473 -0.889746
H12   H     H_    0.681669 0.346400 0.627973 0.254962
H13   H     H_    0.800170 0.338397 0.587066 0.254758
H14   H     H_    0.746656 0.318040 0.704335 0.281811
O27   O     O_3   0.877909 0.313396 0.313890 -0.527784
C109  C     C_3   0.809267 0.386509 0.344512 0.099978
H15   H     H_    0.799807 0.444346 0.287010 0.148277
H16   H     H_    0.825797 0.407276 0.390947 0.109009
C110  C     C_3   0.719958 0.364402 0.394395 -0.263108
H17   H     H_    0.697482 0.346460 0.351047 0.290988
H18   H     H_    0.728874 0.307737 0.452755 0.222492
C111  C     C_3   0.646719 0.443016 0.425781 -0.942464
H19   H     H_    0.666346 0.462536 0.470376 0.258758
H20   H     H_    0.583039 0.424589 0.462533 0.269399
H21   H     H_    0.634984 0.500189 0.368390 0.262690
O28   O     O_3   0.104075 0.697751 0.705571 -0.535409
C112  C     C_3   0.188581 0.658930 0.650612 0.159361
H22   H     H_    0.240994 0.673952 0.662593 0.253665
H23   H     H_    0.192379 0.689104 0.579266 0.113803
C113  C     C_3   0.214082 0.557158 0.671153 -0.442489
H24   H     H_    0.199473 0.528295 0.743568 0.230022
H25   H     H_    0.174735 0.537660 0.644838 0.208264
C114  C     C_3   0.313681 0.518140 0.628924 -0.868676
H26   H     H_    0.330479 0.546374 0.556278 0.264525
H27   H     H_    0.329086 0.445319 0.642837 0.247371
H28   H     H_    0.355978 0.532272 0.656547 0.276498
O29   O     O_3   0.274880 0.271174 0.921412 -0.585860
C115  C     C_3   0.282631 0.302865 0.829963 0.042745
H29   H     H_    0.352589 0.305391 0.790476 0.116169
H30   H     H_    0.235250 0.370074 0.815838 0.150959
C116  C     C_3   0.258823 0.240411 0.801710 -0.263076
H31   H     H_    0.311105 0.175542 0.807941 0.237547
H32   H     H_    0.193142 0.229911 0.846035 0.272040
C117  C     C_3   0.253109 0.277095 0.706567 -0.866838
H33   H     H_    0.200306 0.341570 0.699096 0.256027
H34   H     H_    0.235504 0.229996 0.688628 0.291840
H35   H     H_    0.318858 0.286102 0.660850 0.245054
O30   O     O_3   0.727503 0.730607 0.069685 -0.554243
C118  C     C_3   0.723955 0.701807 0.160607 0.127404
H36   H     H_    0.783024 0.712031 0.166596 0.213077
H37   H     H_    0.729797 0.629787 0.189530 0.088046
C119  C     C_3   0.638201 0.756569 0.214124 -0.374315
H38   H     H_    0.633631 0.827926 0.185176 0.271414
H39   H     H_    0.578236 0.745053 0.211524 0.190411
C120  C     C_3   0.637713 0.732355 0.310419 -0.864431
H40   H     H_    0.640483 0.661538 0.341629 0.251240
H41   H     H_    0.575014 0.773475 0.346981 0.260587
H42   H     H_    0.696170 0.744851 0.315047 0.280770
Br1   Br    Br    0.295149 0.994234 0.839640 -0.358024
Br2   Br    Br    0.757930 0.922413 0.192193 -0.319327
Br3   Br    Br    0.022715 0.828542 0.277021 -0.281423
Br4   Br    Br    0.994979 0.162807 0.721308 -0.311337
Br5   Br    Br    0.824215 0.255321 0.037306 -0.216370
Br6   Br    Br    0.159154 0.737465 0.977659 -0.189076
Br7   Br    Br    0.178110 0.962287 0.739897 -0.201767
Br8   Br    Br    0.845139 0.016558 0.267419 -0.216284
Br9   Br    Br    0.708808 0.165188 0.990963 -0.308271
Br10  Br    Br    0.249713 0.817688 0.064221 -0.297146
Br11  Br    Br    0.986371 0.720048 0.168200 -0.300879
Br12  Br    Br    0.000910 0.280220 0.838125 -0.345263
Br13  Br    Br    0.590861 0.844599 0.724999 -0.404012
Br14  Br    Br    0.569028 0.086516 0.177138 -0.375549
Br15  Br    Br    0.862505 0.830868 0.479005 -0.429266
Br16  Br    Br    0.141589 0.167214 0.517682 -0.460954
Br17  Br    Br    0.760348 0.387556 0.162580 -0.438858
Br18  Br    Br    0.246398 0.614798 0.840505 -0.436349
Br19  Br    Br    0.250604 0.839810 0.601759 -0.463027
Br20  Br    Br    0.759741 0.159561 0.382713 -0.434506
Br21  Br    Br    0.413608 0.262346 0.160545 -0.457274
Br22  Br    Br    0.449570 0.811125 0.906404 -0.373210
Br23  Br    Br    0.141691 0.516235 0.167467 -0.437187
Br24  Br    Br    0.856433 0.484401 0.833447 -0.421707

loop_
_geom_bond_atom_site_label_1
_geom_bond_atom_site_label_2
_ccdc_geom_bond_type
C68   C80   A    
Cu4   O21   S    
C83   C87   A    
C9    C45   A    
C66   O30   S    
C118  C119  S    
C18   C96   A    
C6    C58   A    
C11   C47   A    
Cu1   O12   S    
C109  C110  S    
C107  C108  S    
C79   C85   A    
C12   C48   A    
C103  C104  S    
C56   Br20  S    
C115  H29   S    
C75   C95   A    
C55   Br19  S    
Cu4   O4    S    
C116  H31   S    
C78   C90   A    
C54   Br18  S    
C104  H4    S    
C77   C89   A    
C67   C97   A    
C65   O29   S    
C30   O2    A    
Cu6   O7    S    
C29   O1    A    
C109  H15   S    
C105  H6    S    
Cu5   O20   S    
C90   Br3   S    
C117  H34   S    
C19   C47   S    
C58   C71   A    
C116  C117  S    
Cu2   O14   S    
C113  H24   S    
C3    C33   A    
C95   C99   A    
Cu6   O6    S    
C96   C100  A    
C1    C31   A    
C23   C43   S    
C117  H33   S    
Cu3   O15   S    
C68   C98   A    
C2    C32   A    
C29   O23   A    
C108  H14   S    
C74   C92   A    
C13   C98   A    
C118  H37   S    
Cu5   O5    S    
C80   C86   A    
C59   Br23  S    
C16   C34   A    
C58   Br22  S    
C29   C37   S    
C88   Br5   S    
C4    C40   A    
C27   C39   S    
Cu2   O23   S    
C10   C46   A    
C9    C36   A    
C64   O28   S    
Cu5   Cu6   S    
C110  H18   S    
C10   C35   A    
C17   C95   A    
C7    C43   A    
Cu1   Cu2   S    
Cu1   O24   S    
C76   C88   A    
C20   O14   A    
C1    C37   A    
C86   Br1   S    
C23   O17   A    
C82   Br11  S    
C81   C89   A    
C51   Br15  S    
C114  H27   S    
C81   Br12  S    
Cu3   O3    S    
C104  H3    S    
C19   O11   A    
C53   Br17  S    
C13   C91   A    
C24   O18   A    
C49   Br13  S    
C21   C45   S    
C10   C54   A    
C106  H9    S    
C106  H8    S    
C112  C113  S    
C71   C83   A    
C116  H32   S    
C104  C105  S    
C4    C34   A    
O27   C109  S    
C25   O19   A    
C61   O25   S    
C119  C120  S    
C8    C44   A    
C67   C79   A    
C105  H5    S    
C73   C91   A    
C46   C65   A    
C112  H23   S    
C50   C73   A    
C25   C41   S    
C112  H22   S    
C3    C39   A    
C55   C68   A    
C57   C72   A    
C48   C63   A    
C41   C65   A    
C57   Br21  S    
C114  H26   S    
C71   C99   A    
C74   C86   A    
C54   C75   A    
C38   C62   A    
O30   C118  S    
C119  H39   S    
C21   O15   A    
Cu5   O17   S    
C26   O6    A    
C103  H2    S    
C83   Br10  S    
C25   O5    A    
C111  H21   S    
C2    C38   A    
C85   Br2   S    
C115  H30   S    
C110  H17   S    
C108  H12   S    
C73   C85   A    
C4    C60   A    
C52   Br16  S    
C110  C111  S    
C26   O20   A    
C21   O9    A    
C107  H10   S    
C105  H7    S    
C7    C49   A    
C72   C84   A    
C50   Br14  S    
C69   C81   A    
C75   C87   A    
C22   C46   S    
C14   C92   A    
C24   O8    A    
Cu4   O9    S    
O25   C103  S    
C24   C44   S    
Cu3   O10   S    
C53   C76   A    
C9    C53   A    
C18   C99   A    
C93   C101  A    
C52   C77   A    
C79   Br8   S    
C8    C50   A    
C87   Br6   S    
C20   O12   A    
C106  C107  S    
C26   C42   S    
C14   C97   A    
C111  H19   S    
C72   C100  A    
C114  H28   S    
C22   O10   A    
C5    C41   A    
C19   O13   A    
C7    C32   A    
C20   C48   S    
C8    C31   A    
C13   C31   A    
C11   C34   A    
C15   C102  A    
C84   C88   A    
C107  H11   S    
O26   C106  S    
C15   C33   A    
C60   Br24  S    
C15   C93   A    
C37   C61   A    
C47   C64   A    
C22   O16   A    
C103  H1    S    
C69   C101  A    
C44   C61   A    
C56   C67   A    
C39   C63   A    
Cu3   Cu4   S    
C12   C52   A    
C16   C94   A    
C3    C59   A    
C82   C90   A    
C117  H35   S    
C5    C57   A    
Cu1   O1    S    
C119  H38   S    
Cu2   O11   S    
C109  H16   S    
C91   C97   A    
C51   C78   A    
C63   O27   S    
C111  H20   S    
C2    C56   A    
C76   C96   A    
Cu2   O2    S    
C84   Br9   S    
C70   C102  A    
O28   C112  S    
C113  H25   S    
C60   C69   A    
C78   C94   A    
C27   O21   A    
C40   C64   A    
C5    C35   A    
C77   C93   A    
C23   O7    A    
C6    C36   A    
C89   Br4   S    
C28   O22   A    
C108  H13   S    
Cu6   O19   S    
C1    C55   A    
C118  H36   S    
C70   C82   A    
C17   C100  A    
C80   Br7   S    
Cu5   O8    S    
C115  C116  S    
C11   C51   A    
C59   C70   A    
C92   C98   A    
Cu3   O22   S    
C27   O3    A    
C120  H40   S    
C30   O24   A    
C120  H42   S    
C16   C101  A    
C14   C32   A    
C94   C102  A    
O29   C115  S    
C6    C42   A    
Cu4   O16   S    
C45   C66   A    
C42   C66   A    
C28   C40   S    
C49   C74   A    
C17   C35   A    
C30   C38   S    
Cu6   O18   S    
C12   C33   A    
C18   C36   A    
C28   O4    A    
C43   C62   A    
C62   O26   S    
C120  H41   S    
C113  C114  S    
Cu1   O13   S    
