data_mof_unit_59211.cif
_audit_creation_date              2012-12-10T20:27:59-0500
_audit_creation_method            fapswitch 2.2
_symmetry_space_group_name_H-M    P1
_symmetry_Int_Tables_number       1
_space_group_crystal_system       triclinic
_cell_length_a                    12.788896
_cell_length_b                    10.774065
_cell_length_c                    9.903507
_cell_angle_alpha                 91.099005
_cell_angle_beta                  96.744953
_cell_angle_gamma                 90.449364
_cell_volume                      1354.82444899

loop_
_atom_site_label
_atom_site_type_symbol
_atom_type_description
_atom_site_fract_x
_atom_site_fract_y
_atom_site_fract_z
_atom_type_partial_charge
C1    C     C_R   0.500649 0.260379 0.498413 0.927089
C2    C     C_R   0.550255 0.932123 0.390550 0.134044
C3    C     C_R   0.515176 0.870278 0.502400 -0.160440
C4    C     C_R   0.298720 0.500438 0.474019 0.871898
C5    C     C_R   0.484714 0.939921 0.609048 0.003565
C6    C     C_3   0.443599 0.932792 0.743685 0.244618
C7    C     C_3   0.442079 0.076610 0.741619 -0.034852
C8    C     C_R   0.424108 0.560976 0.060838 0.070670
C9    C     C_R   0.578996 0.444175 0.080714 0.405691
C10   C     C_R   0.578840 0.445235 0.937755 -0.190623
C11   C     C_R   0.424063 0.559709 0.918249 0.187133
C12   C     C_R   0.025310 0.439753 0.535944 0.016868
C13   C     C_3   0.309381 0.533192 0.891350 -0.479258
C14   C     C_3   0.307648 0.534738 0.044626 -0.015499
C15   C     C_R   0.504946 0.739162 0.501510 0.934254
C16   C     C_R   0.701260 0.495330 0.526239 0.966947
C17   C     C_R   0.812491 0.479476 0.541120 -0.184624
C18   C     C_R   0.187395 0.507762 0.460309 -0.041919
C19   C     C_R   0.031594 0.623518 0.394160 -0.141354
C20   C     C_R   0.138423 0.607710 0.393083 -0.159486
C21   C     C_R   0.132350 0.424170 0.531291 -0.209430
C22   C     C_3   0.301223 0.154521 0.863884 -0.663910
C23   C     C_R   0.975288 0.540830 0.465967 0.146377
C24   C     C_3   0.134798 0.624567 0.060945 -0.713338
C25   C     C_3   0.480488 0.129315 0.155976 -0.734690
C26   C     C_3   0.709789 0.844267 0.325313 -0.735807
C27   C     C_R   0.869471 0.558680 0.468546 -0.294445
C28   C     C_R   0.859687 0.378767 0.611984 0.332705
C29   C     C_R   0.967097 0.358149 0.608900 0.332191
C30   C     C_R   0.481041 0.063462 0.605573 -0.034314
C31   C     C_R   0.505749 0.128662 0.494570 -0.138429
C32   C     C_R   0.539899 0.061819 0.382752 0.154078
Cl1   Cl    Cl    0.681920 0.363910 0.172266 -0.577463
Cl2   Cl    Cl    0.783354 0.273020 0.695059 -0.549695
Cl3   Cl    Cl    0.025559 0.227895 0.692174 -0.568416
Cl4   Cl    Cl    0.317522 0.856864 0.727898 -0.599793
H1    H     H_    0.830606 0.633400 0.411787 0.164672
H2    H     H_    0.174649 0.349750 0.584915 0.175534
H3    H     H_    0.326041 0.203198 0.669013 0.236893
H4    H     H_    0.218062 0.184103 0.849248 0.284990
H5    H     H_    0.349118 0.230553 0.918153 0.182960
H6    H     H_    0.306270 0.069957 0.926594 0.263185
H7    H     H_    0.275221 0.724912 0.068416 0.255471
H8    H     H_    0.095655 0.703141 0.108138 0.232141
H9    H     H_    0.107746 0.536430 0.102576 0.257548
H10   H     H_    0.110911 0.625265 0.949460 0.254453
H11   H     H_    0.635913 0.096585 0.232394 0.263270
H12   H     H_    0.502149 0.894696 0.823712 0.085067
H13   H     H_    0.456828 0.034801 0.116725 0.205635
H14   H     H_    0.506317 0.183347 0.071425 0.242773
H15   H     H_    0.410973 0.175547 0.191290 0.249704
H16   H     H_    0.580252 0.892135 0.190819 0.227417
H17   H     H_    0.754080 0.933404 0.325530 0.246148
H18   H     H_    0.738713 0.779462 0.249781 0.239697
H19   H     H_    0.724314 0.803269 0.427782 0.230968
H20   H     H_    0.500814 0.124010 0.817769 0.142040
H21   H     H_    0.641061 0.399770 0.891149 0.227839
H22   H     H_    0.266794 0.610579 0.837349 0.255990
H23   H     H_    0.291608 0.440092 0.843593 0.194000
H24   H     H_    0.286748 0.444038 0.086928 0.170574
H25   H     H_    0.993593 0.701665 0.342040 0.146193
H26   H     H_    0.183711 0.675742 0.344897 0.176448
N1    N     N_R   0.499290 0.499140 0.142710 -0.153422
N2    N     N_R   0.499290 0.499180 0.857070 -0.135512
N3    N     N_2   0.337313 0.129084 0.733281 -0.213785
N4    N     N_2   0.247943 0.638139 0.090937 -0.280207
N5    N     N_2   0.565979 0.123881 0.265358 -0.235314
N6    N     N_2   0.598529 0.864443 0.289599 -0.285320
O1    O     O_R   0.500010 0.316790 0.614690 -0.624312
O2    O     O_R   0.500000 0.316760 0.385350 -0.576131
O3    O     O_R   0.346360 0.499990 0.595720 -0.614880
O4    O     O_R   0.346350 0.499960 0.366370 -0.623281
O5    O     O_R   0.500000 0.683240 0.614650 -0.601457
O6    O     O_R   0.499990 0.683210 0.385310 -0.595706
O7    O     O_R   0.653650 0.500040 0.633630 -0.605944
O8    O     O_R   0.653640 0.500010 0.404280 -0.558565
Zn1   Zn    Zn3+2 0.500010 0.500020 0.653130 0.981933
Zn2   Zn    Zn3+2 0.499990 0.499980 0.346870 1.009951

loop_
_geom_bond_atom_site_label_1
_geom_bond_atom_site_label_2
_ccdc_geom_bond_type
C12   C29   A    
O2    Zn2   S    
C18   C21   A    
N2    Zn1   S    
O1    Zn1   S    
C19   C20   A    
C25   N5    S    
C4    O4    A    
C26   H19   S    
C12   C23   A    
C6    H12   S    
C5    C6    S    
C24   H9    S    
C28   C29   A    
C27   H1    S    
C2    N6    S    
C8    C11   A    
C30   C31   A    
C22   H5    S    
C16   O7    A    
C1    C31   S    
C2    C32   A    
C25   H14   S    
O4    Zn2   S    
C21   H2    S    
C16   C17   S    
C23   C27   A    
C9    C10   A    
H16   N6    S    
C24   N4    S    
C4    C18   S    
C28   Cl2   S    
C7    C30   S    
C9    N1    A    
C13   C14   S    
C9    Cl1   S    
H3    N3    S    
C7    H20   S    
C26   H18   S    
H11   N5    S    
C17   C27   A    
C10   H21   S    
C11   N2    A    
C13   H22   S    
C12   C21   A    
C1    O1    A    
C19   C23   A    
C25   H15   S    
C22   N3    S    
C7    N3    S    
C31   C32   A    
C22   H4    S    
C14   N4    S    
O7    Zn1   S    
C32   N5    S    
C15   O5    A    
C24   H8    S    
C26   H17   S    
O3    Zn1   S    
C3    C15   S    
C5    C30   A    
C8    C14   S    
C16   O8    A    
C17   C28   A    
C10   N2    A    
O8    Zn2   S    
C3    C5    A    
C6    C7    S    
C13   H23   S    
C14   H24   S    
C29   Cl3   S    
C1    O2    A    
C26   N6    S    
C2    C3    A    
C24   H10   S    
C11   C13   S    
C22   H6    S    
C19   H25   S    
H7    N4    S    
C6    Cl4   S    
C18   C20   A    
C20   H26   S    
C25   H13   S    
C8    N1    A    
C15   O6    A    
O6    Zn2   S    
O5    Zn1   S    
C4    O3    A    
N1    Zn2   S    
