data_mof_unit_7829.cif
_audit_creation_date              2012-10-26T19:13:54-0400
_audit_creation_method            fapswitch 2.2
_symmetry_space_group_name_H-M    P1
_symmetry_Int_Tables_number       1
_space_group_crystal_system       triclinic
_cell_length_a                    15.112519
_cell_length_b                    13.889175
_cell_length_c                    10.726802
_cell_angle_alpha                 89.084643
_cell_angle_beta                  92.076357
_cell_angle_gamma                 90.125552
_cell_volume                      2249.79187875

loop_
_atom_site_label
_atom_site_type_symbol
_atom_type_description
_atom_site_fract_x
_atom_site_fract_y
_atom_site_fract_z
_atom_type_partial_charge
C1    C     C_R   0.330180 0.500012 0.497913 0.642223
C2    C     C_R   0.565818 0.791887 0.562957 0.334457
C3    C     C_R   0.497257 0.054621 0.498350 0.055974
C4    C     C_R   0.497339 0.945814 0.499511 0.051047
C5    C     C_R   0.499610 0.500709 0.259835 0.634049
C6    C     C_R   0.500389 0.499175 0.740681 0.605194
C7    C     C_3   0.509245 0.590900 0.038587 0.156436
C8    C     C_3   0.491394 0.408359 0.964664 0.203478
C9    C     C_3   0.576766 0.535537 0.963238 0.135111
C10   C     C_3   0.424525 0.463282 0.039927 0.188346
C11   C     C_3   0.432386 0.552975 0.953873 0.199768
C12   C     C_R   0.670044 0.499900 0.496402 0.597891
C13   C     C_3   0.567805 0.446417 0.048914 0.230198
C14   C     C_3   0.499981 0.497422 0.877060 0.007058
C15   C     C_3   0.500316 0.501810 0.124426 0.036242
C16   C     C_R   0.093834 0.487769 0.377415 0.242721
C17   C     C_R   0.908277 0.425444 0.548350 0.272948
C18   C     C_R   0.903044 0.571955 0.418759 0.266537
C19   C     C_R   0.096396 0.511129 0.602932 0.238098
C20   C     C_R   0.186824 0.497773 0.379468 0.191510
C21   C     C_R   0.816115 0.426523 0.553985 0.188362
C22   C     C_R   0.809920 0.569456 0.418438 0.227449
C23   C     C_R   0.546999 0.107559 0.412449 0.208140
C24   C     C_R   0.189401 0.502804 0.607059 0.182447
C25   C     C_R   0.233850 0.500132 0.494737 -0.041424
C26   C     C_R   0.766834 0.499113 0.490328 -0.052779
C27   C     C_R   0.049146 0.500235 0.488462 0.009542
C28   C     C_R   0.951961 0.500317 0.486073 0.021144
C29   C     C_3   0.370878 0.695317 0.874585 -0.095051
C30   C     C_3   0.690799 0.351045 0.030048 -0.100449
C31   C     C_3   0.071445 0.385829 0.211729 -0.089682
C32   C     C_3   0.960490 0.273476 0.529910 -0.119843
C33   C     C_3   0.983444 0.711737 0.413054 -0.138426
C34   C     C_R   0.427232 0.893238 0.444325 0.196955
C35   C     C_3   0.055405 0.618913 0.747264 -0.124013
C36   C     C_3   0.211597 0.590187 0.207062 -0.098332
C37   C     C_3   0.767787 0.371630 0.739192 -0.090301
C38   C     C_3   0.761476 0.723093 0.373573 -0.053436
C39   C     C_3   0.212204 0.431792 0.802192 -0.042466
C40   C     C_3   0.542698 0.062204 0.210380 -0.135191
C41   C     C_3   0.279983 0.924343 0.458167 -0.121275
C42   C     C_3   0.449967 0.054743 0.786603 -0.137290
C43   C     C_3   0.715106 0.935978 0.540583 -0.105223
C44   C     C_3   0.695500 0.236610 0.361094 -0.041413
C45   C     C_R   0.449118 0.105876 0.584972 0.210448
C46   C     C_3   0.373982 0.771957 0.237546 -0.077863
C47   C     C_3   0.300060 0.233438 0.619697 -0.065687
C48   C     C_3   0.634960 0.756258 0.751639 -0.094592
C49   C     C_R   0.568810 0.894817 0.554777 0.199804
C50   C     C_R   0.552624 0.209980 0.420660 0.363767
C51   C     C_R   0.434044 0.790808 0.435467 0.362680
C52   C     C_R   0.445707 0.208407 0.577558 0.374695
Cu1   Cu    Cu3+1 0.500000 0.596430 0.500000 1.095814
Cu2   Cu    Cu3+1 0.500000 0.403570 0.500000 1.129953
H1    H     H_    0.428960 0.704667 0.815630 0.128425
H2    H     H_    0.297728 0.451922 0.040322 0.342432
H3    H     H_    0.094512 0.329385 0.280415 0.090874
H4    H     H_    0.123794 0.400975 0.144152 0.169317
H5    H     H_    0.013814 0.355716 0.158425 0.121698
H6    H     H_    0.990261 0.293487 0.439821 0.097381
H7    H     H_    0.893956 0.240891 0.512702 0.138728
H8    H     H_    0.003447 0.217775 0.575928 0.119674
H9    H     H_    0.049830 0.689979 0.450812 0.106073
H10   H     H_    0.941185 0.735398 0.489839 0.070247
H11   H     H_    0.993220 0.775220 0.351006 0.125512
H12   H     H_    0.378552 0.738580 0.960218 0.105625
H13   H     H_    0.020973 0.666308 0.676774 0.083680
H14   H     H_    0.124924 0.643360 0.764023 0.151526
H15   H     H_    0.020930 0.626275 0.836145 0.145367
H16   H     H_    0.257504 0.600488 0.129891 0.150527
H17   H     H_    0.218770 0.653181 0.269590 0.129303
H18   H     H_    0.143840 0.588504 0.163718 0.166748
H19   H     H_    0.833524 0.387690 0.784506 0.157373
H20   H     H_    0.741283 0.306770 0.786204 0.121334
H21   H     H_    0.721047 0.432154 0.752017 0.148997
H22   H     H_    0.773003 0.731246 0.475998 0.115304
H23   H     H_    0.312563 0.723912 0.820309 0.136974
H24   H     H_    0.696199 0.755746 0.348346 0.152688
H25   H     H_    0.812151 0.764077 0.322447 0.131820
H26   H     H_    0.272145 0.392893 0.837902 0.168179
H27   H     H_    0.166467 0.376763 0.760952 0.115733
H28   H     H_    0.179847 0.465034 0.882127 0.151978
H29   H     H_    0.476470 0.028282 0.220419 0.144909
H30   H     H_    0.578113 0.020679 0.140194 0.124945
H31   H     H_    0.535415 0.137311 0.173831 0.152212
H32   H     H_    0.227604 0.975910 0.426498 0.120826
H33   H     H_    0.292087 0.934706 0.560069 0.153943
H34   H     H_    0.731476 0.407096 0.984568 0.142765
H35   H     H_    0.254136 0.850659 0.440852 0.138129
H36   H     H_    0.458852 0.128636 0.823549 0.182565
H37   H     H_    0.412609 0.012354 0.855749 0.116920
H38   H     H_    0.515406 0.019315 0.777905 0.139894
H39   H     H_    0.701765 0.926390 0.438615 0.133555
H40   H     H_    0.754833 0.875146 0.580311 0.128006
H41   H     H_    0.755903 0.002036 0.551152 0.128756
H42   H     H_    0.737062 0.300469 0.340633 0.152762
H43   H     H_    0.713423 0.179968 0.294814 0.132632
H44   H     H_    0.712723 0.212712 0.458711 0.132825
H45   H     H_    0.653476 0.306919 0.960395 0.137126
H46   H     H_    0.368287 0.708503 0.177034 0.167740
H47   H     H_    0.435410 0.811085 0.211651 0.144983
H48   H     H_    0.315430 0.818296 0.216604 0.120002
H49   H     H_    0.258351 0.298347 0.624763 0.121161
H50   H     H_    0.276016 0.179941 0.688630 0.147717
H51   H     H_    0.289374 0.205732 0.523141 0.096474
H52   H     H_    0.695858 0.723265 0.793909 0.174672
H53   H     H_    0.577248 0.720586 0.792820 0.140717
H54   H     H_    0.636298 0.833102 0.778022 0.130876
H55   H     H_    0.736949 0.302056 0.082715 0.120231
H56   H     H_    0.543484 0.722435 0.009922 0.309308
H57   H     H_    0.477634 0.273899 0.001737 0.333029
H58   H     H_    0.690099 0.593010 0.997459 0.357746
N1    N     N_R   0.500000 0.258690 0.500000 -0.269207
N2    N     N_R   0.500000 0.741310 0.500000 -0.260659
O1    O     O_R   0.371460 0.581430 0.500010 -0.458341
O2    O     O_3   0.634348 0.393084 0.114488 -0.525581
O3    O     O_3   0.522596 0.684354 0.081935 -0.719274
O4    O     O_3   0.480357 0.313721 0.924467 -0.674680
O5    O     O_3   0.656759 0.571984 0.921379 -0.752653
O6    O     O_3   0.348092 0.421540 0.086993 -0.663306
O7    O     O_3   0.044657 0.471955 0.267711 -0.534653
O8    O     O_3   0.956335 0.353033 0.609470 -0.525490
O9    O     O_3   0.944370 0.637500 0.341263 -0.505635
O10   O     O_3   0.050832 0.521767 0.711566 -0.538297
O11   O     O_3   0.232777 0.502760 0.270274 -0.542792
O12   O     O_R   0.628540 0.418570 0.499990 -0.457946
O13   O     O_3   0.774175 0.350723 0.612205 -0.564349
O14   O     O_3   0.760067 0.626447 0.335214 -0.516159
O15   O     O_3   0.238845 0.505207 0.718538 -0.533639
O16   O     O_3   0.592823 0.058935 0.323804 -0.594175
O17   O     O_3   0.356300 0.943065 0.389637 -0.587165
O18   O     O_3   0.401106 0.055823 0.672138 -0.595210
O19   O     O_3   0.637840 0.947279 0.608747 -0.588014
O20   O     O_3   0.605603 0.262677 0.341872 -0.489974
O21   O     O_3   0.373698 0.739315 0.363044 -0.539902
O22   O     O_3   0.388854 0.259009 0.650468 -0.488898
O23   O     O_R   0.628540 0.581430 0.499990 -0.446240
O24   O     O_3   0.634862 0.741906 0.621768 -0.546794
O25   O     O_R   0.371460 0.418570 0.500010 -0.481385
O26   O     O_R   0.499980 0.581420 0.316850 -0.456462
O27   O     O_R   0.500020 0.418580 0.683150 -0.444594
O28   O     O_R   0.500020 0.581420 0.683150 -0.510934
O29   O     O_R   0.499980 0.418580 0.316850 -0.442264
O30   O     O_3   0.354756 0.598081 0.904419 -0.552017

loop_
_geom_bond_atom_site_label_1
_geom_bond_atom_site_label_2
_ccdc_geom_bond_type
C41   H35   S    
C37   H20   S    
C8    C13   S    
C47   O22   S    
Cu1   O26   S    
C40   H30   S    
C3    C23   A    
C36   O11   S    
C21   C26   A    
C8    O4    S    
C30   O2    S    
Cu1   Cu2   S    
C7    C11   S    
C41   H32   S    
Cu2   O12   S    
C34   C51   A    
H57   O4    S    
Cu1   O23   S    
C31   H4    S    
C35   O10   S    
C32   H7    S    
C42   H37   S    
C10   C15   S    
C11   C14   S    
C5    O29   A    
C48   H53   S    
C12   O12   A    
C20   C25   A    
Cu2   N1    S    
C46   H46   S    
C43   H40   S    
Cu1   O28   S    
C31   H5    S    
C43   O19   S    
C7    O3    S    
C9    C13   S    
C46   O21   S    
C51   O21   S    
C24   O15   S    
C48   H52   S    
C47   H51   S    
C43   H41   S    
C21   O13   S    
C19   C27   A    
C11   O30   S    
C1    O25   A    
C36   H17   S    
C33   H9    S    
C18   O9    S    
C16   C27   A    
C7    C15   S    
Cu2   O29   S    
C37   H21   S    
C1    C25   S    
H2    O6    S    
C40   H29   S    
C44   H44   S    
H56   O3    S    
C36   H16   S    
C44   O20   S    
C41   H33   S    
C46   H47   S    
C4    C34   A    
C19   O10   S    
C51   N2    A    
C47   H49   S    
C30   H55   S    
C33   H11   S    
C2    O24   S    
C32   O8    S    
C18   C28   A    
C24   C25   A    
C31   O7    S    
C50   O20   S    
C41   O17   S    
C23   C50   A    
C38   H22   S    
C39   O15   S    
C45   C52   A    
C52   N1    A    
C29   O30   S    
C30   H45   S    
C3    C45   A    
C17   C21   A    
C23   O16   S    
C12   C26   S    
C42   H36   S    
C40   H31   S    
C40   O16   S    
C9    C14   S    
C44   H42   S    
C2    C49   A    
C6    C14   S    
C46   H48   S    
C44   H43   S    
C22   O14   S    
Cu2   O25   S    
C35   H13   S    
C16   C20   A    
C6    O27   A    
C39   H27   S    
C34   O17   S    
C13   C15   S    
C22   C26   A    
C52   O22   S    
C6    O28   A    
C32   H6    S    
C30   H34   S    
C3    C4    S    
Cu1   N2    S    
C5    O26   A    
C7    C9    S    
C16   O7    S    
C37   H19   S    
C8    C14   S    
C47   H50   S    
C18   C22   A    
C17   C28   A    
C39   H28   S    
H58   O5    S    
C38   O14   S    
C29   H1    S    
C38   H24   S    
C48   O24   S    
C4    C49   A    
C50   N1    A    
C39   H26   S    
C31   H3    S    
C19   C24   A    
C32   H8    S    
C20   O11   S    
C2    N2    A    
C48   H54   S    
C35   H14   S    
C33   H10   S    
C9    O5    S    
C43   H39   S    
C42   H38   S    
C5    C15   S    
C13   O2    S    
C10   O6    S    
C10   C11   S    
C29   H12   S    
Cu1   O1    S    
C17   O8    S    
Cu2   O27   S    
C29   H23   S    
C35   H15   S    
C45   O18   S    
C8    C10   S    
C38   H25   S    
C49   O19   S    
C27   C28   S    
C33   O9    S    
C12   O23   A    
C42   O18   S    
C1    O1    A    
C36   H18   S    
C37   O13   S    
