data_mof_unit_30013.cif
_audit_creation_date              2012-12-10T17:48:45-0500
_audit_creation_method            fapswitch 2.2
_symmetry_space_group_name_H-M    P1
_symmetry_Int_Tables_number       1
_space_group_crystal_system       triclinic
_cell_length_a                    15.723227
_cell_length_b                    10.617427
_cell_length_c                    9.938284
_cell_angle_alpha                 90.034783
_cell_angle_beta                  89.935281
_cell_angle_gamma                 91.551952
_cell_volume                      1658.48933939

loop_
_atom_site_label
_atom_site_type_symbol
_atom_type_description
_atom_site_fract_x
_atom_site_fract_y
_atom_site_fract_z
_atom_type_partial_charge
C1    C     C_R   0.500240 0.260769 0.500063 0.934367
C2    C     C_R   0.732691 0.075896 0.579426 -0.135684
C3    C     C_R   0.733043 0.944791 0.579624 -0.144451
C4    C     C_R   0.338425 0.499520 0.500126 0.931345
C5    C     C_R   0.658131 0.875613 0.553968 -0.163053
C6    C     C_R   0.581343 0.937519 0.527807 0.094198
C7    C     C_R   0.580848 0.069372 0.527641 0.042701
C8    C     C_R   0.503405 0.128389 0.500324 -0.182100
C9    C     C_R   0.427912 0.060423 0.473568 0.352112
C10   C     C_R   0.429146 0.931435 0.472694 -0.230923
C11   C     C_R   0.504605 0.871529 0.500097 -0.157868
C12   C     C_3   0.949071 0.418410 0.619165 -0.399919
C13   C     C_R   0.388778 0.334901 0.139691 -0.120095
C14   C     C_R   0.334026 0.253363 0.069743 -0.172468
C15   C     C_R   0.334021 0.253272 0.930473 -0.204271
C16   C     C_R   0.500814 0.739198 0.499998 0.883315
C17   C     C_R   0.388753 0.334729 0.860307 -0.132368
C18   C     C_R   0.445245 0.418566 0.927772 0.160373
C19   C     C_R   0.445260 0.418631 0.072189 0.145881
C20   C     C_R   0.552401 0.577894 0.071368 -0.103338
C21   C     C_R   0.552381 0.577863 0.928427 -0.104858
C22   C     C_R   0.661570 0.500630 0.499873 0.869162
C23   C     C_3   0.917342 0.498490 0.500090 0.364714
C24   C     C_3   0.047276 0.418062 0.619337 -0.387205
C25   C     C_3   0.048080 0.441339 0.366837 -0.388050
C26   C     C_3   0.949893 0.441707 0.366682 -0.398023
C27   C     C_1   0.750520 0.499873 0.499794 -0.186087
C28   C     C_3   0.082523 0.497872 0.500355 0.347680
C29   C     C_3   0.953532 0.634880 0.514602 -0.399449
C30   C     C_3   0.051686 0.634508 0.514744 -0.394144
C31   C     C_1   0.825880 0.499086 0.499905 -0.126689
C32   C     C_1   0.174025 0.497859 0.500414 -0.108609
C33   C     C_1   0.249429 0.498482 0.500312 -0.138501
C34   C     C_R   0.657423 0.138141 0.553643 -0.142988
Cl1   Cl    Cl    0.330206 0.133961 0.445059 -0.716390
H1    H     H_    0.923412 0.319943 0.610785 0.163298
H2    H     H_    0.595257 0.641656 0.124817 0.147019
H3    H     H_    0.069029 0.319430 0.611069 0.180137
H4    H     H_    0.384949 0.329699 0.246307 0.236561
H5    H     H_    0.291274 0.189934 0.124108 0.189448
H6    H     H_    0.291274 0.189769 0.876256 0.169244
H7    H     H_    0.384802 0.329228 0.753597 0.218657
H8    H     H_    0.595214 0.641619 0.874834 0.146772
H9    H     H_    0.073006 0.497163 0.279847 0.170126
H10   H     H_    0.069840 0.343085 0.354390 0.181654
H11   H     H_    0.924254 0.343620 0.354185 0.170093
H12   H     H_    0.071609 0.456942 0.716425 0.169369
H13   H     H_    0.927444 0.497707 0.279616 0.169708
H14   H     H_    0.076086 0.677048 0.610068 0.172105
H15   H     H_    0.076650 0.693627 0.430259 0.174053
H16   H     H_    0.930551 0.677595 0.609846 0.164558
H17   H     H_    0.926017 0.457432 0.716181 0.169476
H18   H     H_    0.931128 0.694186 0.430070 0.168295
H19   H     H_    0.659846 0.239888 0.553975 0.129574
H20   H     H_    0.790890 0.129589 0.599069 0.126942
H21   H     H_    0.791513 0.896517 0.599384 0.129109
H22   H     H_    0.660944 0.773947 0.554278 0.124189
H23   H     H_    0.370968 0.877436 0.452526 0.172089
N1    N     N_R   0.499210 0.498800 0.142780 -0.122420
N2    N     N_R   0.499180 0.498720 0.857170 -0.121560
O1    O     O_R   0.500000 0.316780 0.614690 -0.636119
O2    O     O_R   0.499990 0.316750 0.385360 -0.622897
O3    O     O_R   0.377150 0.500020 0.614720 -0.634352
O4    O     O_R   0.377140 0.499990 0.385380 -0.631014
O5    O     O_R   0.500010 0.683250 0.614640 -0.612580
O6    O     O_R   0.500000 0.683220 0.385310 -0.612291
O7    O     O_R   0.622860 0.500010 0.614620 -0.620518
O8    O     O_R   0.622850 0.499980 0.385280 -0.611733
Zn1   Zn    Zn3+2 0.500010 0.500020 0.653130 0.944068
Zn2   Zn    Zn3+2 0.499990 0.499980 0.346870 0.950624

loop_
_geom_bond_atom_site_label_1
_geom_bond_atom_site_label_2
_ccdc_geom_bond_type
C24   H3    S    
O2    Zn2   S    
C34   H19   S    
C6    C7    A    
C16   O5    A    
O4    Zn2   S    
C12   H1    S    
C1    C8    S    
C3    H21   S    
C4    O4    A    
C12   C23   S    
C26   H13   S    
C22   C27   S    
C32   C33   T    
C2    C34   A    
C28   C30   S    
C17   C18   A    
C30   H15   S    
O3    Zn1   S    
C7    C8    A    
C21   H8    S    
C13   C14   A    
C1    O2    A    
C25   C28   S    
C20   H2    S    
O7    Zn1   S    
C4    O3    A    
C22   O8    A    
O6    Zn2   S    
C29   H18   S    
N2    Zn1   S    
O5    Zn1   S    
C23   C29   S    
C25   H9    S    
C18   N2    A    
C12   H17   S    
C30   H14   S    
C2    C3    A    
C2    H20   S    
C27   C31   T    
C29   H16   S    
C5    C6    A    
C7    C34   A    
C9    Cl1   S    
C22   O7    A    
C13   H4    S    
C11   C16   S    
C16   O6    A    
C10   C11   A    
C26   H11   S    
N1    Zn2   S    
C29   C30   S    
C23   C31   S    
C25   H10   S    
C28   C32   S    
C20   C21   A    
C15   H6    S    
C21   N2    A    
O8    Zn2   S    
C18   C19   A    
C9    C10   A    
C23   C26   S    
O1    Zn1   S    
C6    C11   A    
C15   C17   A    
C4    C33   S    
C12   C24   S    
C17   H7    S    
C13   C19   A    
C10   H23   S    
C3    C5    A    
C19   N1    A    
C25   C26   S    
C14   C15   A    
C24   H12   S    
C14   H5    S    
C24   C28   S    
C5    H22   S    
C8    C9    A    
C20   N1    A    
C1    O1    A    
