data_mof_unit_38305.cif
_audit_creation_date              2012-12-10T20:49:48-0500
_audit_creation_method            fapswitch 2.2
_symmetry_space_group_name_H-M    P1
_symmetry_Int_Tables_number       1
_space_group_crystal_system       triclinic
_cell_length_a                    8.094472
_cell_length_b                    8.935518
_cell_length_c                    16.857479
_cell_angle_alpha                 89.978043
_cell_angle_beta                  86.180795
_cell_angle_gamma                 90.006992
_cell_volume                      1216.56493639

loop_
_atom_site_label
_atom_site_type_symbol
_atom_type_description
_atom_site_fract_x
_atom_site_fract_y
_atom_site_fract_z
_atom_type_partial_charge
C1    C     C_R   0.500004 0.782070 0.500010 0.943031
C2    C     C_R   0.382922 0.575776 0.226340 -0.225687
C3    C     C_R   0.614984 0.410369 0.856633 0.219715
C4    C     C_R   0.384958 0.606258 0.145389 0.219138
C5    C     C_R   0.463015 0.427446 0.901924 0.156080
C6    C     C_R   0.536530 0.591206 0.099586 0.156283
C7    C     C_R   0.315287 0.449927 0.865031 -0.204249
C8    C     C_R   0.684266 0.564638 0.135823 -0.203414
C9    C     C_R   0.318922 0.470235 0.783390 -0.203248
C10   C     C_R   0.680759 0.537888 0.216960 -0.203206
C11   C     C_2   0.458590 0.451712 0.986856 -0.269752
C12   C     C_R   0.499997 0.217930 0.499983 0.943376
C13   C     C_2   0.539464 0.569152 0.014495 -0.272515
C14   C     C_3   0.223560 0.647196 0.109642 -0.453136
C15   C     C_3   0.155203 0.795911 0.142206 -0.861731
C16   C     C_3   0.776515 0.373062 0.893253 -0.453767
C17   C     C_3   0.845846 0.222637 0.863662 -0.862690
C18   C     C_1   0.500008 0.934827 0.499996 -0.195571
C19   C     C_1   0.499993 0.065172 0.499991 -0.195870
C20   C     C_R   0.478970 0.494336 0.653388 0.874251
C21   C     C_R   0.521013 0.506402 0.346646 0.874012
C22   C     C_R   0.470798 0.468446 0.738661 -0.079231
C23   C     C_R   0.529021 0.537298 0.261823 -0.079000
C24   C     C_R   0.617081 0.434395 0.775065 -0.225290
H1    H     H_    0.198788 0.461935 0.900062 0.139371
H2    H     H_    0.247646 0.886445 0.130312 0.264662
H3    H     H_    0.040950 0.824864 0.112555 0.249965
H4    H     H_    0.238742 0.658334 0.044043 0.228045
H5    H     H_    0.131006 0.557295 0.123163 0.195470
H6    H     H_    0.753855 0.132367 0.877212 0.264923
H7    H     H_    0.878012 0.225773 0.798632 0.258966
H8    H     H_    0.960085 0.196546 0.893984 0.249709
H9    H     H_    0.868575 0.462595 0.878024 0.195530
H10   H     H_    0.761364 0.366346 0.959004 0.228002
H11   H     H_    0.800457 0.553824 0.100420 0.138421
H12   H     H_    0.734218 0.428093 0.740160 0.168705
H13   H     H_    0.265936 0.580574 0.261445 0.168930
H14   H     H_    0.795281 0.512385 0.243895 0.163199
H15   H     H_    0.204325 0.492656 0.755850 0.163678
H16   H     H_    0.619906 0.638334 0.975414 0.165465
H17   H     H_    0.378446 0.382358 0.025996 0.165436
H18   H     H_    0.123350 0.788444 0.207163 0.259122
N1    N     N_1   0.926360 0.500000 0.499990 -0.039025
N2    N     N_1   0.073640 0.500000 0.500010 -0.039072
O1    O     O_R   0.363150 0.714660 0.500000 -0.614772
O2    O     O_R   0.636850 0.285340 0.500000 -0.614490
O3    O     O_R   0.636850 0.714660 0.500000 -0.613281
O4    O     O_R   0.363150 0.285340 0.500000 -0.613113
O5    O     O_R   0.346950 0.500000 0.615800 -0.621178
O6    O     O_R   0.653050 0.500000 0.384200 -0.620969
O7    O     O_R   0.620700 0.500000 0.615800 -0.626347
O8    O     O_R   0.379300 0.500000 0.384200 -0.626397
Zn1   Zn    Zn3+2 0.317220 0.500000 0.500010 0.981670
Zn2   Zn    Zn3+2 0.682780 0.500000 0.499990 0.981846

loop_
_geom_bond_atom_site_label_1
_geom_bond_atom_site_label_2
_ccdc_geom_bond_type
C2    C4    A    
N1    N2    T    
C11   H17   S    
C20   O5    A    
C16   H9    S    
N1    Zn2   S    
C15   H3    S    
C7    H1    S    
C10   H14   S    
C12   O4    A    
O7    Zn2   S    
C14   H4    S    
O2    Zn2   S    
C1    C18   S    
C3    C5    A    
O1    Zn1   S    
C24   H12   S    
C6    C13   S    
C17   H6    S    
C11   C13   D    
C2    H13   S    
C1    O1    A    
C3    C24   A    
O6    Zn2   S    
O3    Zn2   S    
O5    Zn1   S    
C12   C19   S    
C8    C10   A    
C21   O6    A    
C20   C22   S    
C5    C11   S    
C20   O7    A    
C21   C23   S    
C4    C14   S    
O4    Zn1   S    
C17   H7    S    
C22   C24   A    
C9    C22   A    
C4    C6    A    
C14   H5    S    
C13   H16   S    
C7    C9    A    
C9    H15   S    
O8    Zn1   S    
C12   O2    A    
C18   C19   T    
C2    C23   A    
C5    C7    A    
C17   H8    S    
C14   C15   S    
C1    O3    A    
C10   C23   A    
C6    C8    A    
C16   H10   S    
N2    Zn1   S    
C21   O8    A    
C3    C16   S    
C15   H18   S    
C16   C17   S    
C15   H2    S    
C8    H11   S    
