data_mof_unit_14715.cif
_audit_creation_date              2012-12-11T16:04:55-0500
_audit_creation_method            fapswitch 2.2
_symmetry_space_group_name_H-M    P1
_symmetry_Int_Tables_number       1
_space_group_crystal_system       triclinic
_cell_length_a                    10.677839
_cell_length_b                    10.683838
_cell_length_c                    16.948595
_cell_angle_alpha                 98.343907
_cell_angle_beta                  98.791422
_cell_angle_gamma                 61.446662
_cell_volume                      1672.58748016

loop_
_atom_site_label
_atom_site_type_symbol
_atom_type_description
_atom_site_fract_x
_atom_site_fract_y
_atom_site_fract_z
_atom_type_partial_charge
C1    C     C_R   0.353288 0.776542 0.399278 0.561892
C2    C     C_3   0.725803 0.310327 0.248400 -0.119821
C3    C     C_3   0.808952 0.354959 0.319191 0.057280
C4    C     C_3   0.952018 0.249654 0.288492 -0.152509
C5    C     C_3   0.941381 0.368501 0.241842 -0.106482
C6    C     C_3   0.797167 0.474962 0.273507 -0.107336
C7    C     C_3   0.715919 0.429050 0.201549 -0.147681
C8    C     C_3   0.858543 0.323498 0.171248 0.059313
C9    C     C_3   0.469958 0.792888 0.224301 -0.158972
C10   C     C_3   0.426886 0.690794 0.257265 -0.122675
C11   C     C_3   0.342092 0.813067 0.319225 0.084240
C12   C     C_R   0.370277 0.347119 0.358896 0.569949
C13   C     C_3   0.383727 0.911811 0.286671 0.054306
C14   C     C_3   0.245299 0.965331 0.229347 -0.097756
C15   C     C_3   0.207241 0.860504 0.260831 0.096602
C16   C     C_3   0.290216 0.742684 0.199389 0.110392
C17   C     C_3   0.331312 0.842604 0.166923 0.042180
C18   C     C_3   0.482156 0.286582 0.795215 -0.119051
C19   C     C_3   0.424642 0.431357 0.759225 -0.149824
C20   C     C_3   0.379426 0.365994 0.680565 0.047198
C21   C     C_3   0.437039 0.222096 0.715689 -0.099006
C22   C     C_3   0.287743 0.273087 0.742576 -0.107420
C23   C     C_R   0.772492 0.379568 0.400440 0.549339
C24   C     C_3   0.230000 0.417571 0.706950 -0.101543
C25   C     C_3   0.274657 0.481955 0.787323 -0.122895
C26   C     C_3   0.333092 0.337318 0.821676 0.051509
C27   C     C_1   0.816857 0.342007 0.709692 -0.044615
C28   C     C_1   0.843395 0.315516 0.778267 -0.045281
C29   C     C_1   0.338466 0.811652 0.709870 -0.045784
C30   C     C_1   0.313301 0.839394 0.778540 -0.045510
C31   C     C_R   0.896212 0.308926 0.091714 0.546212
C32   C     C_R   0.318797 0.298160 0.120518 0.563451
C33   C     C_R   0.298020 0.885020 0.086185 0.548539
C34   C     C_R   0.356976 0.770550 0.627369 0.540292
C35   C     C_R   0.884845 0.299709 0.861000 0.544282
C36   C     C_R   0.310638 0.296999 0.894406 0.548427
C37   C     C_R   0.279865 0.885204 0.858960 0.544681
C38   C     C_R   0.408792 0.376989 0.601297 0.561646
C39   C     C_R   0.773708 0.379666 0.629646 0.540617
C40   C     C_1   0.342818 0.336129 0.275261 -0.065860
C41   C     C_1   0.331692 0.324342 0.204120 -0.059849
C42   C     C_3   0.870244 0.203855 0.216203 -0.124499
Cr1   Cr    Cr6+3 0.608340 0.611040 0.520430 1.018091
Cr2   Cr    Cr6+3 0.287650 0.601120 0.489350 1.038764
Cr3   Cr    Cr6+3 0.604040 0.287870 0.490280 1.020423
Cr4   Cr    Cr6+3 0.054020 0.052700 0.970850 1.016388
Cr5   Cr    Cr6+3 0.059230 0.375120 0.993390 1.024380
Cr6   Cr    Cr6+3 0.374950 0.061200 0.992340 1.025096
H1    H     H_    0.481978 0.496060 0.763962 0.105688
H2    H     H_    0.503344 0.114959 0.685919 0.141922
H3    H     H_    0.230589 0.207977 0.737046 0.115867
H4    H     H_    0.208524 0.587613 0.818565 0.136105
H5    H     H_    0.046657 0.183316 0.328557 0.121058
H6    H     H_    0.030159 0.392360 0.236871 0.129676
H7    H     H_    0.768278 0.586138 0.298823 0.131760
H8    H     H_    0.624303 0.496823 0.160328 0.125573
O1    O     O_R   0.751220 0.499230 0.435170 -0.520305
O2    O     O_R   0.297880 0.469080 0.560050 -0.500065
O3    O     O_R   0.489720 0.254590 0.564810 -0.511100
O4    O     O_R   0.725220 0.304230 0.585080 -0.511843
O5    O     O_3   0.500010 0.500010 0.500020 -0.289768
O6    O     O_R   0.171830 0.913880 0.057510 -0.526156
O7    O     O_R   0.940690 0.186050 0.054730 -0.510233
O8    O     O_R   0.920470 0.405720 0.075010 -0.521957
O9    O     O_R   0.196690 0.370460 0.084120 -0.498912
O10   O     O_R   0.412990 0.180750 0.091610 -0.515272
O11   O     O_R   0.366620 0.943130 0.065760 -0.504444
O12   O     O_R   0.477220 0.727600 0.436870 -0.513052
O13   O     O_R   0.160510 0.906330 0.879210 -0.511941
O14   O     O_R   0.930190 0.179050 0.889450 -0.497680
O15   O     O_R   0.909140 0.398170 0.896710 -0.507027
O16   O     O_R   0.186190 0.363460 0.918830 -0.498563
O17   O     O_R   0.401670 0.173200 0.913310 -0.516524
O18   O     O_R   0.356120 0.936130 0.900470 -0.495421
O19   O     O_3   0.162740 0.163010 0.985530 -0.260797
O20   O     O_R   0.258650 0.745120 0.411470 -0.485350
O21   O     O_R   0.297070 0.467240 0.395960 -0.489342
O22   O     O_R   0.488830 0.252610 0.387790 -0.508444
O23   O     O_R   0.724400 0.302390 0.420980 -0.506185
O24   O     O_R   0.752100 0.501210 0.612190 -0.505712
O25   O     O_R   0.478040 0.729440 0.600970 -0.497809
O26   O     O_R   0.259530 0.747110 0.588490 -0.515412
H9    H     H_    0.637339 0.286107 0.253408 0.132477
H10   H     H_    0.178177 0.076990 0.213662 0.119676
N1    N     N_3   0.070985 0.882177 0.282747 -0.608914
H11   H     H_    0.024195 0.978487 0.317869 0.235120
H12   H     H_    0.003895 0.885690 0.230555 0.218949
N2    N     N_3   0.240069 0.648695 0.150508 -0.619139
H13   H     H_    0.202366 0.609789 0.189372 0.245907
H14   H     H_    0.150640 0.711535 0.113093 0.244767
H15   H     H_    0.585073 0.233708 0.832988 0.130715
H16   H     H_    0.126980 0.470474 0.669288 0.141337
H17   H     H_    0.895498 0.097114 0.185622 0.126871
H18   H     H_    0.490203 0.580035 0.274776 0.119991
H19   H     H_    0.576986 0.766449 0.207741 0.117383
N3    N     N_3   0.434676 0.004047 0.336321 -0.605630
H20   H     H_    0.477283 0.039005 0.298048 0.246748
H21   H     H_    0.520791 0.940072 0.375212 0.244283

loop_
_geom_bond_atom_site_label_1
_geom_bond_atom_site_label_2
_ccdc_geom_bond_type
C37   O18   A    
Cr3   O4    S    
C37   O13   A    
C4    H5    S    
C42   H17   S    
C3    C23   S    
C2    C7    S    
C1    C11   S    
C14   H10   S    
C6    H7    S    
C3    C6    S    
C7    C8    S    
N1    H11   S    
Cr1   O5    S    
Cr4   O6    S    
C18   H15   S    
Cr2   O21   S    
C8    C42   S    
Cr2   O26   S    
C5    C6    S    
C10   H18   S    
C15   C16   S    
C18   C21   S    
C1    O12   A    
C18   C19   S    
Cr2   O20   S    
C9    C13   S    
C21   H2    S    
Cr4   O13   S    
C38   O2    A    
C18   C26   S    
C11   C15   S    
C19   C20   S    
C35   O14   A    
Cr2   O2    S    
C16   C17   S    
C12   O22   A    
C32   C41   S    
Cr3   O22   S    
C34   O25   A    
C9    C10   S    
C9    H19   S    
C15   N1    S    
C35   O15   A    
C21   C22   S    
C12   O21   A    
C8    C31   S    
Cr6   O19   S    
C2    H9    S    
C17   C33   S    
C7    H8    S    
C24   H16   S    
Cr4   O19   S    
N1    H12   S    
C13   N3    S    
Cr6   O18   S    
C5    H6    S    
C24   C25   S    
C28   C35   S    
C36   O17   A    
C27   C39   S    
Cr5   O8    S    
C33   O6    A    
Cr1   O24   S    
C29   C34   S    
C30   C37   S    
N3    H21   S    
C12   C40   S    
C29   C30   T    
C31   O7    A    
C20   C38   S    
C19   H1    S    
N3    H20   S    
Cr3   O23   S    
C20   C21   S    
Cr5   O15   S    
C9    C17   S    
C40   C41   T    
N2    H14   S    
Cr1   O25   S    
C22   C24   S    
C3    C4    S    
C33   O11   A    
C32   O10   A    
C26   C36   S    
C23   O1    A    
Cr3   O3    S    
C1    O20   A    
C31   O8    A    
Cr6   O17   S    
C4    C5    S    
C5    C8    S    
C6    C7    S    
Cr2   O5    S    
Cr1   O12   S    
Cr4   O7    S    
Cr6   O10   S    
C39   O24   A    
C2    C3    S    
C25   C26   S    
C25   H4    S    
Cr5   O19   S    
C10   C16   S    
C11   C13   S    
C4    C42   S    
C2    C42   S    
C39   O4    A    
Cr3   O5    S    
Cr5   O9    S    
Cr6   O11   S    
C19   C25   S    
Cr5   O16   S    
Cr4   O14   S    
C10   C11   S    
Cr1   O1    S    
C38   O3    A    
N2    H13   S    
C22   C26   S    
C27   C28   T    
C16   N2    S    
C14   C15   S    
C22   H3    S    
C34   O26   A    
C23   O23   A    
C13   C14   S    
C20   C24   S    
C36   O16   A    
C32   O9    A    
C14   C17   S    
