data_mof_unit_65605.cif
_audit_creation_date              2012-12-10T18:06:59-0500
_audit_creation_method            fapswitch 2.2
_symmetry_space_group_name_H-M    P1
_symmetry_Int_Tables_number       1
_space_group_crystal_system       triclinic
_cell_length_a                    21.626402
_cell_length_b                    21.626402
_cell_length_c                    38.911293
_cell_angle_alpha                 89.999972
_cell_angle_beta                  89.999967
_cell_angle_gamma                 90.0
_cell_volume                      18198.8608992

loop_
_atom_site_label
_atom_site_type_symbol
_atom_type_description
_atom_site_fract_x
_atom_site_fract_y
_atom_site_fract_z
_atom_type_partial_charge
C1    C     C_R   0.619830 0.000000 0.500000 0.883205
C2    C     C_R   0.021994 0.781470 0.471191 -0.214365
C3    C     C_R   1.000000 0.500000 0.104757 -0.031581
C4    C     C_R   0.000000 0.500000 0.395243 -0.031584
C5    C     C_R   0.500000 0.000000 0.395243 -0.031584
C6    C     C_R   1.000000 0.500000 0.604757 -0.031583
C7    C     C_R   0.499999 1.000000 0.604757 -0.031584
C8    C     C_R   0.461236 0.041751 0.768065 0.152757
C9    C     C_R   0.958248 0.461234 0.768065 0.152758
C10   C     C_R   0.538767 0.958248 0.768065 0.152759
C11   C     C_R   0.041751 0.538765 0.768065 0.152759
C12   C     C_R   0.461234 0.958249 0.231935 0.152759
C13   C     C_R   0.218530 0.021996 0.471191 -0.214367
C14   C     C_R   0.958249 0.538764 0.231935 0.152756
C15   C     C_R   0.538766 0.041751 0.231935 0.152758
C16   C     C_R   0.041752 0.461233 0.231935 0.152760
C17   C     C_R   0.961235 0.541751 0.268065 0.152757
C18   C     C_R   0.458249 0.961235 0.268065 0.152761
C19   C     C_R   0.038767 0.458249 0.268065 0.152759
C20   C     C_R   0.541751 0.038766 0.268065 0.152757
C21   C     C_R   0.961234 0.458249 0.731935 0.152758
C22   C     C_R   0.458249 0.038765 0.731935 0.152757
C23   C     C_R   0.038765 0.541751 0.731935 0.152760
C24   C     C_R   0.978007 0.218530 0.471191 -0.214366
C25   C     C_R   0.541751 0.961232 0.731935 0.152759
C26   C     C_R   0.500000 0.999998 0.714019 -0.025326
C27   C     C_R   0.999999 0.500000 0.714019 -0.025326
C28   C     C_R   0.500000 0.000001 0.285981 -0.025324
C29   C     C_R   0.000002 0.500000 0.285981 -0.025326
C30   C     C_R   0.000000 0.499999 0.214019 -0.025325
C31   C     C_R   0.500000 0.000000 0.214019 -0.025326
C32   C     C_R   1.000000 0.500000 0.785981 -0.025327
C33   C     C_R   0.500001 1.000000 0.785981 -0.025326
C34   C     C_R   0.717589 0.977538 0.471077 -0.011269
C35   C     C_R   0.781470 0.021993 0.528809 -0.214365
C36   C     C_R   0.022463 0.717589 0.471078 -0.011269
C37   C     C_R   0.282411 0.022465 0.471078 -0.011268
C38   C     C_R   0.977538 0.282411 0.471077 -0.011269
C39   C     C_R   0.717589 0.022462 0.528922 -0.011269
C40   C     C_R   0.022462 0.282411 0.528922 -0.011269
C41   C     C_R   0.282411 0.977535 0.528922 -0.011269
C42   C     C_R   0.977537 0.717589 0.528922 -0.011269
C43   C     C_R   0.217589 0.477539 0.971077 -0.011269
C44   C     C_R   0.522458 0.217589 0.971077 -0.011269
C45   C     C_R   0.782411 0.522458 0.971077 -0.011269
C46   C     C_R   0.021993 0.218530 0.528809 -0.214366
C47   C     C_R   0.477539 0.782411 0.971077 -0.011269
C48   C     C_R   0.217589 0.522461 0.028923 -0.011269
C49   C     C_R   0.522461 0.782411 0.028923 -0.011269
C50   C     C_R   0.782411 0.477542 0.028923 -0.011269
C51   C     C_R   0.477542 0.217589 0.028923 -0.011269
C52   C     C_3   0.422833 0.089808 0.787012 -0.884482
C53   C     C_3   0.910191 0.422831 0.787012 -0.884484
C54   C     C_3   0.577170 0.910191 0.787012 -0.884483
C55   C     C_3   0.089808 0.577168 0.787012 -0.884486
C56   C     C_3   0.422831 0.910192 0.212988 -0.884490
C57   C     C_R   0.218530 0.978004 0.528809 -0.214366
C58   C     C_3   0.910192 0.577168 0.212988 -0.884484
C59   C     C_3   0.577170 0.089808 0.212987 -0.884485
C60   C     C_3   0.089808 0.422829 0.212988 -0.884486
C61   C     C_3   0.922832 0.589808 0.287012 -0.884485
C62   C     C_3   0.410192 0.922832 0.287013 -0.884500
C63   C     C_3   0.077171 0.410192 0.287012 -0.884485
C64   C     C_3   0.589809 0.077169 0.287012 -0.884487
C65   C     C_3   0.922830 0.410192 0.712988 -0.884485
C66   C     C_3   0.410193 0.077169 0.712988 -0.884483
C67   C     C_3   0.077169 0.589807 0.712987 -0.884495
C68   C     C_R   0.978006 0.781470 0.528809 -0.214366
C69   C     C_3   0.589807 0.922828 0.712988 -0.884486
C70   C     C_1   0.685702 0.955082 0.440883 0.158497
C71   C     C_1   0.044920 0.685702 0.440883 0.158497
C72   C     C_1   0.314298 0.044924 0.440885 0.158499
C73   C     C_1   0.955082 0.314298 0.440883 0.158497
C74   C     C_1   0.685702 0.044918 0.559117 0.158496
C75   C     C_1   0.044918 0.314298 0.559117 0.158496
C76   C     C_1   0.314297 0.955076 0.559115 0.158498
C77   C     C_1   0.955080 0.685702 0.559116 0.158496
C78   C     C_1   0.185702 0.455083 0.940883 0.158495
C79   C     C_R   0.281470 0.478008 0.971190 -0.214365
C80   C     C_1   0.544910 0.185702 0.940882 0.158492
C81   C     C_1   0.814298 0.544911 0.940882 0.158492
C82   C     C_1   0.455083 0.814298 0.940883 0.158496
C83   C     C_1   0.185702 0.544917 0.059117 0.158495
C84   C     C_1   0.544917 0.814298 0.059117 0.158495
C85   C     C_1   0.814298 0.455089 0.059118 0.158492
C86   C     C_1   0.455090 0.185702 0.059118 0.158492
C87   C     C_R   0.521989 0.281470 0.971190 -0.214364
C88   C     C_R   0.718530 0.521989 0.971190 -0.214365
C89   C     C_R   0.000000 0.619830 0.500000 0.883205
C90   C     C_R   0.478008 0.718530 0.971190 -0.214365
C91   C     C_R   0.281470 0.521992 0.028809 -0.214365
C92   C     C_R   0.521992 0.718530 0.028809 -0.214365
C93   C     C_R   0.718530 0.478011 0.028810 -0.214365
C94   C     C_R   0.478011 0.281470 0.028810 -0.214365
C95   C     C_R   0.813139 1.000000 0.500000 -0.061672
C96   C     C_R   0.000000 0.813139 0.500000 -0.061672
C97   C     C_R   0.186861 1.000000 0.500000 -0.061670
C98   C     C_R   0.000000 0.186861 0.500000 -0.061672
C99   C     C_R   0.313139 0.500000 0.000000 -0.061673
C100  C     C_R   0.380169 0.000000 0.500000 0.883204
C101  C     C_R   0.500000 0.313139 0.000000 -0.061676
C102  C     C_R   0.686861 0.500000 1.000000 -0.061676
C103  C     C_R   0.500000 0.686861 1.000000 -0.061673
C104  C     C_R   0.685814 0.000000 0.500000 -0.100633
C105  C     C_R   0.000000 0.685814 0.500000 -0.100633
C106  C     C_R   0.314186 1.000000 0.500000 -0.100634
C107  C     C_R   0.000000 0.314186 0.500000 -0.100632
C108  C     C_R   0.185814 0.500000 0.000000 -0.100632
C109  C     C_R   0.500000 0.185813 0.000000 -0.100630
C110  C     C_R   0.814186 0.500000 1.000000 -0.100630
C111  C     C_R   0.000000 0.380169 0.500000 0.883206
C112  C     C_R   0.500000 0.814186 1.000000 -0.100632
C113  C     C_R   0.000000 0.120558 0.500000 0.890161
C114  C     C_R   0.879442 0.000000 0.500000 0.890162
C115  C     C_R   1.000000 0.879442 0.500000 0.890161
C116  C     C_R   0.120558 0.000000 0.500000 0.890161
C117  C     C_R   0.500000 0.620558 0.000000 0.890162
C118  C     C_R   0.379442 0.500000 0.000000 0.890162
C119  C     C_R   0.500000 0.379442 0.000000 0.890163
C120  C     C_R   0.620558 0.500000 1.000000 0.890162
C121  C     C_R   0.500000 1.000000 0.567265 0.878290
C122  C     C_R   0.119830 0.500000 0.000000 0.883206
C123  C     C_R   1.000000 0.500000 0.567265 0.878291
C124  C     C_R   0.500000 0.000000 0.432735 0.878291
C125  C     C_R   1.000000 0.500000 0.432734 0.878290
C126  C     C_R   1.000000 0.500000 0.067266 0.878291
C127  C     C_R   0.500000 1.000000 0.067266 0.878291
C128  C     C_R   0.000000 0.500000 0.932734 0.878292
C129  C     C_R   0.500000 1.000000 0.932734 0.878292
C130  C     C_R   0.552630 0.019634 0.877208 -0.178313
C131  C     C_R   0.980367 0.552631 0.877208 -0.178314
C132  C     C_R   0.447370 0.980366 0.877208 -0.178316
C133  C     C_R   0.500000 0.119830 0.000000 0.883208
C134  C     C_R   0.019633 0.447369 0.877208 -0.178316
C135  C     C_R   0.552630 0.980367 0.122792 -0.178315
C136  C     C_R   0.980365 0.447370 0.122792 -0.178314
C137  C     C_R   0.447369 0.019633 0.122792 -0.178313
C138  C     C_R   0.019634 0.552630 0.122792 -0.178316
C139  C     C_R   0.052630 0.519635 0.377208 -0.178315
C140  C     C_R   0.480366 0.052630 0.377208 -0.178317
C141  C     C_R   0.947370 0.480366 0.377207 -0.178317
C142  C     C_R   0.519633 0.947370 0.377208 -0.178317
C143  C     C_R   0.052630 0.480366 0.622792 -0.178316
C144  C     C_R   0.880170 0.500000 0.000000 0.883208
C145  C     C_R   0.480364 0.947370 0.622792 -0.178317
C146  C     C_R   0.947369 0.519634 0.622792 -0.178316
C147  C     C_R   0.519634 0.052630 0.622792 -0.178316
C148  C     C_R   0.552326 0.020379 0.841502 -0.169423
C149  C     C_R   0.979623 0.552326 0.841502 -0.169410
C150  C     C_R   0.447676 0.979622 0.841502 -0.169405
C151  C     C_R   0.020377 0.447674 0.841502 -0.169414
C152  C     C_R   0.552326 0.979623 0.158498 -0.169415
C153  C     C_R   0.979621 0.447674 0.158498 -0.169421
C154  C     C_R   0.447674 0.020377 0.158498 -0.169411
C155  C     C_R   0.500000 0.880169 0.000000 0.883206
C156  C     C_R   0.020378 0.552324 0.158498 -0.169406
C157  C     C_R   0.052326 0.520379 0.341502 -0.169422
C158  C     C_R   0.479622 0.052326 0.341502 -0.169416
C159  C     C_R   0.947676 0.479622 0.341502 -0.169406
C160  C     C_R   0.520377 0.947675 0.341502 -0.169409
C161  C     C_R   0.052325 0.479622 0.658498 -0.169409
C162  C     C_R   0.479620 0.947674 0.658498 -0.169423
C163  C     C_R   0.947674 0.520378 0.658498 -0.169415
C164  C     C_R   0.520378 0.052324 0.658498 -0.169407
C165  C     C_R   0.500001 1.000000 0.823634 0.147057
C166  C     C_R   0.781470 0.978007 0.471191 -0.214366
C167  C     C_R   1.000000 0.500000 0.823634 0.147058
C168  C     C_R   0.500000 0.000000 0.176366 0.147058
C169  C     C_R   0.000000 0.499999 0.176366 0.147058
C170  C     C_R   0.000001 0.500000 0.323634 0.147058
C171  C     C_R   0.500000 0.000000 0.323634 0.147058
C172  C     C_R   0.999999 0.500000 0.676366 0.147058
C173  C     C_R   0.500000 0.999999 0.676366 0.147058
C174  C     C_R   0.500000 0.000000 0.895243 -0.031582
C175  C     C_R   0.000000 0.500000 0.895243 -0.031581
C176  C     C_R   0.500000 1.000000 0.104757 -0.031582
H1    H     H_    0.593617 0.035132 0.890683 0.168084
H2    H     H_    0.464869 0.093617 0.390682 0.168086
H3    H     H_    0.906383 0.464868 0.390682 0.168085
H4    H     H_    0.535130 0.906383 0.390682 0.168085
H5    H     H_    0.093617 0.464869 0.609317 0.168084
H6    H     H_    0.464866 0.906383 0.609317 0.168087
H7    H     H_    0.906383 0.535131 0.609317 0.168085
H8    H     H_    0.535132 0.093616 0.609318 0.168085
H9    H     H_    0.592867 0.036265 0.827736 0.147488
H10   H     H_    0.963737 0.592867 0.827735 0.147484
H11   H     H_    0.407135 0.963735 0.827735 0.147484
H12   H     H_    0.964870 0.593618 0.890682 0.168083
H13   H     H_    0.036263 0.407133 0.827736 0.147485
H14   H     H_    0.592867 0.963737 0.172264 0.147486
H15   H     H_    0.963734 0.407133 0.172264 0.147488
H16   H     H_    0.407133 0.036263 0.172264 0.147485
H17   H     H_    0.036265 0.592865 0.172265 0.147484
H18   H     H_    0.092867 0.536266 0.327736 0.147488
H19   H     H_    0.463736 0.092867 0.327736 0.147486
H20   H     H_    0.907135 0.463735 0.327735 0.147484
H21   H     H_    0.536264 0.907134 0.327736 0.147485
H22   H     H_    0.092866 0.463736 0.672264 0.147485
H23   H     H_    0.406383 0.964868 0.890682 0.168084
H24   H     H_    0.463733 0.907133 0.672264 0.147488
H25   H     H_    0.907133 0.536264 0.672264 0.147486
H26   H     H_    0.536266 0.092865 0.672265 0.147484
H27   H     H_    0.806469 0.960761 0.448998 0.162153
H28   H     H_    0.039240 0.806469 0.448998 0.162152
H29   H     H_    0.193531 0.039244 0.448999 0.162151
H30   H     H_    0.960761 0.193531 0.448998 0.162153
H31   H     H_    0.806469 0.039239 0.551002 0.162153
H32   H     H_    0.039239 0.193531 0.551002 0.162153
H33   H     H_    0.193531 0.960756 0.551001 0.162151
H34   H     H_    0.035130 0.406382 0.890683 0.168084
H35   H     H_    0.960760 0.806469 0.551002 0.162152
H36   H     H_    0.306469 0.460762 0.948998 0.162153
H37   H     H_    0.539232 0.306468 0.948997 0.162154
H38   H     H_    0.693532 0.539233 0.948997 0.162154
H39   H     H_    0.460762 0.693531 0.948998 0.162153
H40   H     H_    0.306468 0.539238 0.051002 0.162153
H41   H     H_    0.539238 0.693531 0.051002 0.162153
H42   H     H_    0.693531 0.460767 0.051003 0.162155
H43   H     H_    0.460768 0.306468 0.051003 0.162154
H44   H     H_    0.429735 0.136034 0.775238 0.245533
H45   H     H_    0.593617 0.964870 0.109317 0.168084
H46   H     H_    0.373130 0.077255 0.785725 0.239405
H47   H     H_    0.435607 0.095246 0.814402 0.249568
H48   H     H_    0.863966 0.429734 0.775239 0.245532
H49   H     H_    0.922744 0.373128 0.785724 0.239406
H50   H     H_    0.904754 0.435605 0.814402 0.249567
H51   H     H_    0.570258 0.863964 0.775242 0.245529
H52   H     H_    0.626874 0.922737 0.785718 0.239409
H53   H     H_    0.564406 0.904762 0.814403 0.249566
H54   H     H_    0.136034 0.570266 0.775237 0.245534
H55   H     H_    0.077255 0.626870 0.785725 0.239406
H56   H     H_    0.964868 0.406383 0.109317 0.168084
H57   H     H_    0.095247 0.564393 0.814401 0.249567
H58   H     H_    0.429732 0.863967 0.224763 0.245535
H59   H     H_    0.373129 0.922746 0.214275 0.239407
H60   H     H_    0.435606 0.904753 0.185599 0.249568
H61   H     H_    0.863967 0.570267 0.224762 0.245533
H62   H     H_    0.922746 0.626870 0.214275 0.239406
H63   H     H_    0.904754 0.564393 0.185598 0.249568
H64   H     H_    0.570267 0.136034 0.224761 0.245532
H65   H     H_    0.626872 0.077255 0.214276 0.239407
H66   H     H_    0.564396 0.095245 0.185598 0.249568
H67   H     H_    0.406382 0.035130 0.109317 0.168083
H68   H     H_    0.136036 0.429740 0.224758 0.245530
H69   H     H_    0.077261 0.373126 0.214282 0.239410
H70   H     H_    0.095238 0.435594 0.185597 0.249567
H71   H     H_    0.929733 0.636033 0.275238 0.245533
H72   H     H_    0.873130 0.577254 0.285725 0.239406
H73   H     H_    0.935607 0.595246 0.314401 0.249568
H74   H     H_    0.363967 0.929732 0.275238 0.245537
H75   H     H_    0.422746 0.873130 0.285726 0.239408
H76   H     H_    0.404753 0.935607 0.314401 0.249568
H77   H     H_    0.070261 0.363965 0.275242 0.245529
H78   H     H_    0.035132 0.593616 0.109318 0.168084
H79   H     H_    0.126875 0.422739 0.285719 0.239409
H80   H     H_    0.064407 0.404762 0.314403 0.249567
H81   H     H_    0.636034 0.070263 0.275239 0.245533
H82   H     H_    0.577258 0.126871 0.285723 0.239407
H83   H     H_    0.595244 0.064397 0.314402 0.249568
H84   H     H_    0.929734 0.363966 0.724761 0.245532
H85   H     H_    0.873127 0.422744 0.714277 0.239406
H86   H     H_    0.935603 0.404756 0.685598 0.249567
H87   H     H_    0.363967 0.070268 0.724762 0.245533
H88   H     H_    0.422747 0.126871 0.714275 0.239406
H89   H     H_    0.093617 0.535133 0.390683 0.168086
H90   H     H_    0.404754 0.064394 0.685599 0.249567
H91   H     H_    0.070269 0.636032 0.724762 0.245535
H92   H     H_    0.126871 0.577253 0.714274 0.239407
H93   H     H_    0.064394 0.595246 0.685599 0.249568
H94   H     H_    0.636034 0.929739 0.724758 0.245529
H95   H     H_    0.577260 0.873124 0.714282 0.239410
H96   H     H_    0.595237 0.935592 0.685597 0.249567
N1    N     N_1   0.660262 0.937117 0.416704 -0.216122
N2    N     N_1   0.562872 0.160262 0.916701 -0.216123
N3    N     N_1   0.839739 0.562872 0.916701 -0.216122
N4    N     N_1   0.437119 0.839738 0.916703 -0.216123
N5    N     N_1   0.160262 0.562881 0.083297 -0.216123
N6    N     N_1   0.562881 0.839738 0.083297 -0.216123
N7    N     N_1   0.839738 0.437127 0.083298 -0.216123
N8    N     N_1   0.437128 0.160261 0.083299 -0.216122
N9    N     N_1   0.062885 0.660262 0.416704 -0.216123
N10   N     N_1   0.339738 0.062891 0.416705 -0.216123
N11   N     N_1   0.937117 0.339738 0.416704 -0.216123
N12   N     N_1   0.660261 0.062883 0.583296 -0.216123
N13   N     N_1   0.062883 0.339738 0.583296 -0.216123
N14   N     N_1   0.339738 0.937109 0.583295 -0.216124
N15   N     N_1   0.937115 0.660261 0.583296 -0.216123
N16   N     N_1   0.160262 0.437119 0.916703 -0.216122
O1    O     O_R   0.591570 0.051800 0.500070 -0.616850
O2    O     O_R   0.448200 0.091570 0.000070 -0.616851
O3    O     O_R   0.908430 0.448200 0.000070 -0.616851
O4    O     O_R   0.551800 0.908430 0.000070 -0.616850
O5    O     O_R   0.091570 0.448200 0.999930 -0.616850
O6    O     O_R   0.448200 0.908430 0.999930 -0.616850
O7    O     O_R   0.908430 0.551800 0.999930 -0.616851
O8    O     O_R   0.551800 0.091570 0.999930 -0.616851
O9    O     O_R   0.499930 0.051800 0.550990 -0.623398
O10   O     O_R   0.948200 0.499930 0.550990 -0.623398
O11   O     O_R   0.500070 0.948200 0.550990 -0.623398
O12   O     O_R   0.948200 0.591570 0.500070 -0.616850
O13   O     O_R   0.051800 0.500070 0.550990 -0.623398
O14   O     O_R   0.499930 0.948200 0.449010 -0.623398
O15   O     O_R   0.948200 0.500070 0.449010 -0.623397
O16   O     O_R   0.500070 0.051800 0.449010 -0.623398
O17   O     O_R   0.051800 0.499930 0.449010 -0.623398
O18   O     O_R   0.999930 0.551800 0.050990 -0.623397
O19   O     O_R   0.448200 0.999930 0.050990 -0.623399
O20   O     O_R   0.000070 0.448200 0.050990 -0.623399
O21   O     O_R   0.551800 0.000070 0.050990 -0.623398
O22   O     O_R   0.999930 0.448200 0.949010 -0.623398
O23   O     O_R   0.408430 0.948200 0.500070 -0.616850
O24   O     O_R   0.448200 0.000070 0.949010 -0.623397
O25   O     O_R   0.000070 0.551800 0.949010 -0.623398
O26   O     O_R   0.551800 0.999930 0.949010 -0.623399
O27   O     O_R   0.999990 0.091790 0.471350 -0.627100
O28   O     O_R   0.908210 0.999990 0.471350 -0.627099
O29   O     O_R   0.000010 0.908210 0.471350 -0.627099
O30   O     O_R   0.091790 0.000010 0.471350 -0.627099
O31   O     O_R   0.999990 0.908210 0.528650 -0.627100
O32   O     O_R   0.908210 0.000010 0.528650 -0.627100
O33   O     O_R   0.000010 0.091790 0.528650 -0.627099
O34   O     O_R   0.051800 0.408430 0.500070 -0.616850
O35   O     O_R   0.091790 0.999990 0.528650 -0.627099
O36   O     O_R   0.499990 0.591790 0.971350 -0.627099
O37   O     O_R   0.408210 0.499990 0.971350 -0.627100
O38   O     O_R   0.500010 0.408210 0.971350 -0.627100
O39   O     O_R   0.591790 0.500010 0.971350 -0.627100
O40   O     O_R   0.499990 0.408210 0.028650 -0.627100
O41   O     O_R   0.408210 0.500010 0.028650 -0.627100
O42   O     O_R   0.500010 0.591790 0.028650 -0.627100
O43   O     O_R   0.591790 0.499990 0.028650 -0.627100
O44   O     O_R   0.591570 0.948200 0.499930 -0.616850
O45   O     O_R   0.948200 0.408430 0.499930 -0.616850
O46   O     O_R   0.408430 0.051800 0.499930 -0.616850
O47   O     O_R   0.051800 0.591570 0.499930 -0.616850
O48   O     O_R   0.091570 0.551800 0.000070 -0.616850
Zn1   Zn    Zn3+2 0.500000 0.069140 0.500000 0.978059
Zn2   Zn    Zn3+2 0.000000 0.000000 0.538300 0.956223
Zn3   Zn    Zn3+2 0.500000 0.500000 0.961700 0.956222
Zn4   Zn    Zn3+2 0.500000 0.500000 0.038300 0.956222
Zn5   Zn    Zn3+2 0.930860 0.500000 0.500000 0.978059
Zn6   Zn    Zn3+2 0.500000 0.930860 0.500000 0.978059
Zn7   Zn    Zn3+2 0.069140 0.500000 0.500000 0.978059
Zn8   Zn    Zn3+2 0.000000 0.569140 0.000000 0.978058
Zn9   Zn    Zn3+2 0.430860 0.000000 0.000000 0.978058
Zn10  Zn    Zn3+2 0.000000 0.430860 0.000000 0.978058
Zn11  Zn    Zn3+2 0.569140 0.000000 0.000000 0.978058
Zn12  Zn    Zn3+2 0.000000 0.000000 0.461700 0.956223

loop_
_geom_bond_atom_site_label_1
_geom_bond_atom_site_label_2
_ccdc_geom_bond_type
C52   H46   S    
C134  H34   S    
C132  C150  A    
O20   Zn10  S    
C65   H86   S    
C14   C17   A    
C76   N14   T    
C11   C55   S    
C129  O26   A    
C130  C174  A    
C40   C46   A    
O6    Zn9   S    
C89   O47   A    
C4    C125  S    
C24   C98   A    
C79   C99   A    
C123  O13   A    
C77   N15   T    
C147  C164  A    
C6    C146  A    
C162  H24   S    
C50   C110  A    
C39   C74   S    
C152  H14   S    
C53   H49   S    
C161  C172  A    
C19   C63   S    
C112  C155  S    
O30   Zn12  S    
C140  H2    S    
C56   H59   S    
O41   Zn4   S    
C36   C71   S    
C62   H76   S    
C46   C98   A    
C149  H10   S    
C51   C109  A    
C70   N1    T    
C148  C165  A    
C103  C117  S    
C129  O24   A    
C144  O3    A    
C79   H36   S    
C127  O21   A    
C57   H33   S    
C109  C133  S    
O34   Zn7   S    
C117  O36   A    
C20   C28   A    
C26   C173  S    
C61   H72   S    
C30   C169  S    
C130  H1    S    
C57   C97   A    
C1    O1    A    
C164  C173  A    
C3    C138  A    
C163  C172  A    
O32   Zn2   S    
C40   C107  A    
C146  H7    S    
C131  C149  A    
C25   C69   S    
C66   H87   S    
C95   C166  A    
O44   Zn6   S    
C127  C176  S    
C120  O43   A    
C163  H25   S    
C128  C175  S    
O11   Zn6   S    
C45   C81   S    
C83   N5    T    
C88   C102  A    
C160  H21   S    
C100  C106  S    
O25   Zn8   S    
C2    C96   A    
O19   Zn9   S    
C41   C76   S    
C136  C153  A    
O46   Zn1   S    
C9    C21   A    
C151  C167  A    
C134  C151  A    
C11   C23   A    
C94   H43   S    
C43   C108  A    
C13   C97   A    
C92   H41   S    
C54   H51   S    
C137  H67   S    
O3    Zn10  S    
C62   H74   S    
C139  C157  A    
C135  C152  A    
C143  C161  A    
O14   Zn6   S    
C18   C28   A    
C159  C170  A    
O17   Zn7   S    
O47   Zn7   S    
C39   C104  A    
C46   H32   S    
C161  H22   S    
C124  O16   A    
C49   C84   S    
C16   C30   A    
C128  O25   A    
C3    C136  A    
C16   C60   S    
C23   C67   S    
C38   C107  A    
C140  C158  A    
C69   H94   S    
C87   C101  A    
C141  C159  A    
C142  H4    S    
C84   N6    T    
C8    C22   A    
C85   N7    T    
C86   N8    T    
C8    C52   S    
C50   C85   S    
O18   Zn8   S    
O27   Zn12  S    
C17   C61   S    
C139  H89   S    
C60   H69   S    
C55   H54   S    
C56   H58   S    
C6    C123  S    
C7    C121  S    
C78   N16   T    
C7    C147  A    
C135  H45   S    
C155  O6    A    
C113  O27   A    
C114  O28   A    
C116  O30   A    
C18   C62   S    
C25   C26   A    
C48   C91   A    
O37   Zn3   S    
C63   H80   S    
C132  C174  A    
O40   Zn4   S    
C10   C25   A    
C11   C32   A    
C12   C31   A    
C47   C90   A    
C37   C72   S    
C111  O34   A    
C58   H63   S    
C44   C87   A    
C64   H81   S    
C153  H15   S    
C100  O46   A    
C54   H53   S    
C107  C111  S    
C33   C165  S    
O29   Zn12  S    
C15   C31   A    
C119  O38   A    
C48   C83   S    
C135  C176  A    
O23   Zn6   S    
C59   H64   S    
O48   Zn8   S    
C34   C166  A    
C4    C139  A    
C67   H92   S    
C5    C142  A    
C24   H30   S    
C10   C33   A    
C166  H27   S    
C125  O17   A    
C118  O41   A    
C125  O15   A    
C120  O39   A    
O35   Zn2   S    
C61   H73   S    
C89   C105  S    
C56   H60   S    
C91   C99   A    
C116  O35   A    
C113  O33   A    
C27   C172  S    
C7    C145  A    
C147  H8    S    
C155  O4    A    
C17   C29   A    
C149  C167  A    
C115  O31   A    
C3    C126  S    
C162  C173  A    
C43   C78   S    
C5    C124  S    
C68   C96   A    
O5    Zn10  S    
C59   H66   S    
O13   Zn7   S    
O22   Zn10  S    
C95   C114  S    
C2    C36   A    
O16   Zn1   S    
C133  O8    A    
C154  H16   S    
C9    C32   A    
C118  O37   A    
C121  O9    A    
C58   H61   S    
O26   Zn11  S    
C34   C70   S    
C64   H83   S    
C44   C109  A    
C73   N11   T    
C21   C27   A    
C74   N12   T    
C154  C168  A    
C15   C20   A    
C66   H88   S    
C51   C86   S    
C90   H39   S    
C152  C168  A    
O39   Zn3   S    
C14   C58   S    
C65   H85   S    
C60   H68   S    
C41   C106  A    
O31   Zn2   S    
C157  H18   S    
C71   N9    T    
C55   H55   S    
C44   C80   S    
C45   C88   A    
C134  C175  A    
C142  C160  A    
C4    C141  A    
C45   C110  A    
C98   C113  S    
C148  H9    S    
C35   C39   A    
C126  O20   A    
C91   H40   S    
C53   H50   S    
C127  O19   A    
C75   N13   T    
C97   C116  S    
C110  C144  S    
C54   H52   S    
C49   C112  A    
O4    Zn11  S    
C35   H31   S    
O24   Zn9   S    
C13   H29   S    
C129  C174  S    
C114  O32   A    
C49   C92   A    
C19   C29   A    
C122  O48   A    
C102  C120  S    
C21   C65   S    
C36   C105  A    
C141  H3    S    
O36   Zn3   S    
C15   C59   S    
O42   Zn4   S    
C93   C102  A    
C35   C95   A    
C40   C75   S    
C133  O2    A    
C41   C57   A    
C48   C108  A    
C16   C19   A    
C131  C175  A    
C121  O11   A    
C160  C171  A    
C137  C154  A    
O8    Zn11  S    
O43   Zn4   S    
C42   C105  A    
C90   C103  A    
C124  O14   A    
C67   H93   S    
C31   C168  S    
C52   H47   S    
C22   C26   A    
C32   C167  S    
C153  C169  A    
C138  H78   S    
C119  O40   A    
C89   O12   A    
C69   H96   S    
C60   H70   S    
C111  O45   A    
O33   Zn2   S    
C53   H48   S    
C136  H56   S    
C88   H38   S    
O15   Zn5   S    
C126  O18   A    
C157  C170  A    
C158  C171  A    
C145  C162  A    
C144  O7    A    
C43   C79   A    
C47   C112  A    
C156  C169  A    
C128  O22   A    
C47   C82   S    
C22   C66   S    
C92   C103  A    
C1    O44   A    
C63   H79   S    
C94   C101  A    
O21   Zn11  S    
C24   C38   A    
C96   C115  S    
C23   C27   A    
C29   C170  S    
C13   C37   A    
C66   H90   S    
C131  H12   S    
O45   Zn5   S    
C42   C68   A    
O7    Zn8   S    
C55   H57   S    
C64   H82   S    
O28   Zn12  S    
C159  H20   S    
C52   H44   S    
C130  C148  A    
C101  C119  S    
C65   H84   S    
C2    H28   S    
C137  C176  A    
C150  H11   S    
C122  O5    A    
C100  O23   A    
C14   C30   A    
C150  C165  A    
C145  H6    S    
C132  H23   S    
C34   C104  A    
C93   H42   S    
C81   N3    T    
C20   C64   S    
C82   N4    T    
O38   Zn3   S    
C69   H95   S    
C67   H91   S    
C28   C171  S    
O9    Zn1   S    
C80   N2    T    
C87   H37   S    
C143  H5    S    
C1    C104  S    
C12   C56   S    
C164  H26   S    
C42   C77   S    
O10   Zn5   S    
C123  O10   A    
C72   N10   T    
O12   Zn5   S    
C5    C140  A    
C138  C156  A    
C62   H75   S    
C108  C122  S    
C50   C93   A    
C61   H71   S    
C146  C163  A    
C158  H19   S    
C59   H65   S    
C156  H17   S    
O2    Zn9   S    
C37   C106  A    
C99   C118  S    
C63   H77   S    
O1    Zn1   S    
C8    C33   A    
C10   C54   S    
C51   C94   A    
C117  O42   A    
C151  H13   S    
C9    C53   S    
C12   C18   A    
C6    C143  A    
C58   H62   S    
C68   H35   S    
C38   C73   S    
C115  O29   A    
