data_mof_unit_37063.cif
_audit_creation_date              2012-12-10T16:50:14-0500
_audit_creation_method            fapswitch 2.2
_symmetry_space_group_name_H-M    P1
_symmetry_Int_Tables_number       1
_space_group_crystal_system       triclinic
_cell_length_a                    23.588289
_cell_length_b                    8.870256
_cell_length_c                    7.61334
_cell_angle_alpha                 104.302181
_cell_angle_beta                  95.512971
_cell_angle_gamma                 94.396271
_cell_volume                      1528.11431616

loop_
_atom_site_label
_atom_site_type_symbol
_atom_type_description
_atom_site_fract_x
_atom_site_fract_y
_atom_site_fract_z
_atom_type_partial_charge
C1    C     C_R   0.498331 0.200568 0.452912 0.797803
C2    C     C_R   0.501747 0.799430 0.547030 0.801813
C3    C     C_R   0.249588 0.613367 0.663450 0.432738
C4    C     C_R   0.747691 0.371099 0.327384 0.412927
C5    C     C_R   0.308172 0.623055 0.638792 -0.165598
C6    C     C_R   0.689473 0.365787 0.356590 -0.185449
C7    C     C_R   0.328966 0.506714 0.504966 -0.143741
C8    C     C_R   0.670574 0.483670 0.493683 -0.150652
C9    C     C_R   0.289316 0.393038 0.383507 -0.054533
C10   C     C_R   0.711833 0.590043 0.618579 -0.074675
C11   C     C_R   0.231187 0.410787 0.378549 -0.140324
C12   C     C_R   0.769501 0.568344 0.616000 -0.159176
C13   C     C_R   0.209887 0.514277 0.522622 0.173256
C14   C     C_R   0.788737 0.466905 0.466088 0.179420
C15   C     C_2   0.495694 0.032807 0.427575 -0.243570
C16   C     C_2   0.504630 0.967163 0.572072 -0.246419
C17   C     C_R   0.391338 0.500245 0.500506 0.801417
C18   C     C_R   0.608581 0.497362 0.499206 0.798555
C19   C     C_R   0.881661 0.612325 0.488682 0.616961
C20   C     C_R   0.116199 0.368339 0.489031 0.628711
C21   C     C_R   0.876082 0.334977 0.431367 0.678171
C22   C     C_R   0.122174 0.645939 0.548429 0.683264
C23   C     C_R   0.935721 0.338211 0.421128 -0.136074
C24   C     C_R   0.062281 0.643118 0.554200 -0.134350
C25   C     C_R   0.968785 0.485529 0.476637 -0.061584
C26   C     C_R   0.029188 0.495761 0.497157 -0.058186
C27   C     C_R   0.941488 0.623038 0.511123 -0.070941
C28   C     C_R   0.056396 0.357996 0.462876 -0.067497
C29   C     C_R   0.964012 0.201727 0.363734 0.408956
C30   C     C_R   0.033768 0.779829 0.609626 0.334730
C31   C     C_R   0.023721 0.212717 0.394802 -0.124684
C32   C     C_R   0.974060 0.768341 0.577524 -0.162622
Cu1   Cu    Cu3+1 0.506340 0.517380 0.684380 1.161378
Cu2   Cu    Cu3+1 0.493660 0.482620 0.315620 1.145979
H1    H     H_    0.045012 0.107721 0.355712 0.239758
H2    H     H_    0.952588 0.873008 0.616441 0.240255
H3    H     H_    0.201745 0.331797 0.271156 0.200988
H4    H     H_    0.800412 0.643038 0.722641 0.195078
N1    N     N_R   0.849812 0.470221 0.455661 -0.446547
N2    N     N_R   0.148348 0.510423 0.525518 -0.453664
N3    N     N_2   0.484110 0.456420 0.038520 0.059531
N4    N     N_2   0.515890 0.543580 0.961480 0.088029
O1    O     O_R   0.504120 0.286130 0.619770 -0.557713
O2    O     O_R   0.495880 0.713870 0.380230 -0.558168
O3    O     O_R   0.493410 0.256770 0.308360 -0.593478
O4    O     O_R   0.506590 0.743230 0.691640 -0.563346
O5    O     O_R   0.423230 0.514630 0.655730 -0.534376
O6    O     O_R   0.576770 0.485370 0.344270 -0.526333
O7    O     O_R   0.412530 0.485280 0.344320 -0.527241
O8    O     O_R   0.587470 0.514720 0.655680 -0.538011
O9    O     O_2   0.855343 0.743965 0.505233 -0.460296
O10   O     O_2   0.142157 0.236316 0.474165 -0.464819
O11   O     O_2   0.845173 0.200305 0.428254 -0.420436
O12   O     O_2   0.153630 0.780751 0.555692 -0.401820
S1    S     S_3+6 0.928965 0.024753 0.217523 0.074260
O13   O     O_2   0.893123 0.940029 0.322137 -0.188921
O14   O     O_2   0.891240 0.061672 0.066412 -0.209790
O15   O     O_3   0.977037 0.907453 0.125715 -0.553588
H5    H     H_    0.954095 0.820017 0.033424 0.373585
S2    S     S_3+6 0.068064 0.957337 0.757640 0.080802
O16   O     O_2   0.106817 0.039197 0.658076 -0.149077
O17   O     O_2   0.024924 0.065518 0.830882 -0.273067
O18   O     O_3   0.107014 0.917751 0.934182 -0.442925
H6    H     H_    0.080119 0.853025 0.984792 0.368683
S3    S     S_3+6 0.229245 0.710361 0.878642 0.076151
O19   O     O_2   0.172261 0.639676 0.909404 -0.274121
O20   O     O_2   0.273608 0.696771 0.028012 -0.261232
O21   O     O_3   0.226483 0.900723 0.886821 -0.429654
H7    H     H_    0.219857 0.950003 0.013759 0.401797
S4    S     S_3+6 0.766402 0.272471 0.110352 0.063433
O22   O     O_2   0.771739 0.103926 0.105876 -0.183277
O23   O     O_2   0.720016 0.279676 0.963593 -0.282718
O24   O     O_3   0.828322 0.355812 0.067606 -0.522847
H8    H     H_    0.832632 0.301277 0.940072 0.395036
C33   C     C_1   0.346068 0.756900 0.744805 0.434753
N5    N     N_1   0.375938 0.865602 0.827703 -0.238776
C34   C     C_1   0.650468 0.232027 0.256048 0.428779
N6    N     N_1   0.619938 0.122830 0.178088 -0.181394
C35   C     C_1   0.304947 0.242879 0.289657 0.418038
N7    N     N_1   0.316038 0.119425 0.218623 -0.188377
C36   C     C_1   0.698349 0.735667 0.731500 0.381373
N8    N     N_1   0.689355 0.855772 0.819432 -0.120297
C37   C     C_1   0.481785 0.942691 0.239124 0.403320
N9    N     N_1   0.471019 0.871065 0.088942 -0.206720
C38   C     C_1   0.519138 0.057517 0.760103 0.411343
N10   N     N_1   0.530464 0.129736 0.909809 -0.212628
S5    S     S_3+6 0.417107 0.362420 0.940151 0.159264
O25   O     O_2   0.374164 0.480120 0.952175 -0.229327
O26   O     O_2   0.413930 0.265355 0.747685 -0.308111
O27   O     O_3   0.398122 0.237462 0.061170 -0.488068
H9    H     H_    0.420565 0.147868 0.022220 0.359989
S6    S     S_3+6 0.582475 0.640498 0.059289 0.153213
O28   O     O_2   0.597702 0.753192 0.949832 -0.268991
O29   O     O_2   0.585464 0.736133 0.252109 -0.293921
O30   O     O_3   0.631213 0.510596 0.043754 -0.499982
H10   H     H_    0.668816 0.574670 0.073158 0.370598

loop_
_geom_bond_atom_site_label_1
_geom_bond_atom_site_label_2
_ccdc_geom_bond_type
C21   O11   S    
S1    O13   D    
N3    N4    D    
O30   H10   S    
S5    O25   D    
C4    S4    S    
C36   N8    T    
C22   O12   S    
C34   N6    T    
C2    O4    A    
S2    O18   S    
Cu1   N4    S    
C19   N1    A    
C24   C26   A    
C9    C35   S    
C20   N2    A    
C15   C16   D    
S2    O17   D    
O24   H8    S    
C11   H3    S    
C13   N2    S    
Cu1   O8    S    
C14   N1    S    
C1    O1    A    
C2    O2    A    
O21   H7    S    
C7    C17   S    
C30   S2    S    
S4    O22   D    
C1    C15   S    
C2    C16   S    
N4    S6    S    
C3    C13   A    
C4    C14   A    
Cu1   O4    S    
C3    S3    S    
Cu2   N3    S    
N3    S5    S    
Cu1   O1    S    
Cu2   O2    S    
C4    C6    A    
C17   O7    A    
C5    C7    A    
C6    C34   S    
C6    C8    A    
C20   C28   A    
S3    O20   D    
C25   C26   A    
C38   N10   T    
S6    O30   S    
C8    C18   S    
O18   H6    S    
S2    O16   D    
C5    C33   S    
C33   N5    T    
S1    O14   D    
C37   N9    T    
C21   N1    A    
S3    O21   S    
C22   N2    A    
S4    O24   S    
S6    O29   D    
Cu1   Cu2   S    
Cu2   O3    S    
C9    C11   A    
C10   C12   A    
C8    C10   A    
C12   C14   A    
C21   C23   A    
C16   C38   S    
Cu1   O5    S    
C31   H1    S    
S1    O15   S    
Cu2   O6    S    
C23   C29   A    
C19   C27   A    
C18   O8    A    
C7    C9    A    
Cu2   O7    S    
C27   C32   A    
C28   C31   A    
C17   O5    A    
C3    C5    A    
C18   O6    A    
C15   C37   S    
C32   H2    S    
C25   C27   A    
C29   S1    S    
C10   C36   S    
C26   C28   A    
S5    O26   D    
O15   H5    S    
C20   O10   S    
C30   C32   A    
C11   C13   A    
C1    O3    A    
O27   H9    S    
S6    O28   D    
C22   C24   A    
C23   C25   A    
C12   H4    S    
C24   C30   A    
C35   N7    T    
C19   O9    S    
C29   C31   A    
S3    O19   D    
S5    O27   S    
S4    O23   D    
