data_mof_unit_49819.cif
_audit_creation_date              2012-12-10T16:59:12-0500
_audit_creation_method            fapswitch 2.2
_symmetry_space_group_name_H-M    P1
_symmetry_Int_Tables_number       1
_space_group_crystal_system       triclinic
_cell_length_a                    7.739624
_cell_length_b                    8.557211
_cell_length_c                    27.714341
_cell_angle_alpha                 90.97639
_cell_angle_beta                  86.086958
_cell_angle_gamma                 93.709457
_cell_volume                      1827.2471461

loop_
_atom_site_label
_atom_site_type_symbol
_atom_type_description
_atom_site_fract_x
_atom_site_fract_y
_atom_site_fract_z
_atom_type_partial_charge
C1    C     C_R   0.545912 0.794845 0.498734 0.975366
C2    C     C_R   0.513122 0.643549 0.127973 -0.026214
C3    C     C_R   0.509327 0.499171 0.646477 -0.106625
C4    C     C_R   0.490592 0.500735 0.353524 -0.106487
C5    C     C_R   0.533388 0.643209 0.025697 0.048860
C6    C     C_R   0.465815 0.356358 0.974310 0.048841
C7    C     C_R   0.453405 0.358269 0.025595 0.048726
C8    C     C_R   0.545840 0.641290 0.974413 0.048728
C9    C     C_R   0.488257 0.501510 0.050928 0.077707
C10   C     C_R   0.510987 0.498051 0.949080 0.077705
C11   C     C_R   0.563947 0.782665 0.052935 -0.219721
C12   C     C_R   0.454088 0.205155 0.501266 0.975326
C13   C     C_R   0.435190 0.216914 0.947070 -0.219768
C14   C     C_R   0.554223 0.782360 0.103005 -0.125800
C15   C     C_R   0.444946 0.217218 0.897000 -0.125900
C16   C     C_R   0.502760 0.499892 0.593931 0.902248
C17   C     C_R   0.497234 0.500103 0.406069 0.902285
C18   C     C_R   0.592989 0.778115 0.947274 -0.219666
C19   C     C_R   0.406325 0.221435 0.052737 -0.219664
C20   C     C_2   0.570179 0.958322 0.498002 -0.365889
C21   C     C_2   0.429821 0.041678 0.501999 -0.365875
C22   C     C_R   0.567662 0.632783 0.821634 0.584491
C23   C     C_R   0.520793 0.496599 0.897806 -0.045405
C24   C     C_R   0.431856 0.366750 0.178377 0.583573
C25   C     C_R   0.491523 0.358104 0.821528 0.574983
C26   C     C_R   0.507818 0.641461 0.178475 0.576201
C27   C     C_R   0.363782 0.516907 0.726325 0.445545
C28   C     C_R   0.636318 0.484540 0.273662 0.445808
C29   C     C_R   0.357844 0.517687 0.676323 -0.243873
C30   C     C_R   0.642410 0.483923 0.323667 -0.243860
C31   C     C_R   0.667066 0.479902 0.667204 -0.199520
C32   C     C_R   0.332384 0.518113 0.332810 -0.199528
C33   C     C_R   0.672943 0.478736 0.717147 -0.126279
C34   C     C_R   0.478508 0.502957 0.102203 -0.045376
C35   C     C_R   0.326356 0.519103 0.282873 -0.126629
C36   C     C_R   0.521838 0.497100 0.746621 0.223946
C37   C     C_R   0.477790 0.502479 0.253384 0.223926
C38   C     C_R   0.564197 0.635914 0.872136 -0.025203
C39   C     C_R   0.435202 0.363630 0.127875 -0.025056
C40   C     C_R   0.601268 0.775174 0.897207 -0.124084
C41   C     C_R   0.398125 0.224367 0.102805 -0.124190
C42   C     C_R   0.486148 0.356016 0.872033 -0.026165
Cl1   Cl    Cl    0.827950 0.462119 0.236949 -0.603118
Cl2   Cl    Cl    0.172520 0.541358 0.763007 -0.602164
H1    H     H_    0.785640 0.465445 0.644938 0.178302
H2    H     H_    0.235091 0.532937 0.660982 0.188634
H3    H     H_    0.580411 0.891993 0.122101 0.197271
H4    H     H_    0.418723 0.107594 0.877903 0.197362
H5    H     H_    0.596167 0.895340 0.037005 0.140739
H6    H     H_    0.402888 0.104250 0.963001 0.140790
H7    H     H_    0.625123 0.890629 0.963283 0.141359
H8    H     H_    0.374212 0.108916 0.036729 0.141345
H9    H     H_    0.702686 0.009512 0.494187 0.181731
H10   H     H_    0.297314 0.990488 0.505813 0.181737
H11   H     H_    0.213529 0.531162 0.355086 0.178193
H12   H     H_    0.014121 0.383148 0.463417 0.194103
H13   H     H_    0.985879 0.616853 0.536583 0.194195
H14   H     H_    0.794559 0.463414 0.733040 0.204222
H15   H     H_    0.204388 0.532955 0.267000 0.205028
H16   H     H_    0.636716 0.883372 0.878188 0.193509
H17   H     H_    0.362739 0.116160 0.121826 0.193513
H18   H     H_    0.765525 0.470176 0.338986 0.188436
N1    N     N_R   0.529339 0.495600 0.797737 -0.346392
N2    N     N_R   0.470163 0.503949 0.202269 -0.346326
N3    N     N_2   0.950320 0.457960 0.486880 -0.174967
N4    N     N_2   0.049680 0.542040 0.513120 -0.174940
O1    O     O_R   0.389250 0.738570 0.503220 -0.612221
O2    O     O_2   0.392870 0.233859 0.203501 -0.506679
O3    O     O_2   0.541771 0.774999 0.203712 -0.507526
O4    O     O_2   0.457475 0.224591 0.796288 -0.507808
O5    O     O_R   0.610750 0.261430 0.496780 -0.612239
O6    O     O_R   0.678390 0.711630 0.494810 -0.628906
O7    O     O_R   0.321610 0.288370 0.505190 -0.628921
O8    O     O_R   0.355440 0.513440 0.575450 -0.619906
O9    O     O_R   0.644560 0.486560 0.424550 -0.619908
O10   O     O_R   0.644590 0.486500 0.567040 -0.631003
O11   O     O_R   0.355410 0.513500 0.432960 -0.631005
O12   O     O_2   0.606821 0.765652 0.796510 -0.506317
Zn1   Zn    Zn3+2 0.306940 0.517990 0.505620 0.956204
Zn2   Zn    Zn3+2 0.693060 0.482010 0.494380 0.956184

loop_
_geom_bond_atom_site_label_1
_geom_bond_atom_site_label_2
_ccdc_geom_bond_type
C33   H14   S    
C40   H16   S    
C27   C29   A    
C41   H17   S    
H13   N4    S    
C33   C36   A    
C39   C41   A    
N4    Zn1   S    
C23   C42   A    
C16   O8    A    
C35   C37   A    
C5    C11   A    
C30   H18   S    
C21   H10   S    
C11   C14   A    
H12   N3    S    
C22   C38   A    
C24   C39   A    
C35   H15   S    
C25   N1    A    
C3    C29   A    
C26   N2    A    
C18   C40   A    
C22   N1    A    
C14   H3    S    
C27   Cl2   S    
C31   C33   A    
C36   N1    S    
O9    Zn2   S    
C32   H11   S    
C2    C34   A    
C24   N2    A    
N3    Zn2   S    
C12   O7    A    
C15   H4    S    
C19   H8    S    
O5    Zn2   S    
C18   H7    S    
O11   Zn1   S    
C1    O6    A    
C34   C39   A    
C32   C35   A    
O1    Zn1   S    
C22   O12   S    
C12   C21   S    
C8    C18   A    
C5    C9    A    
C11   H5    S    
C17   O11   A    
O7    Zn1   S    
C2    C26   A    
C3    C31   A    
C4    C32   A    
C4    C17   S    
C12   O5    A    
C7    C19   A    
O8    Zn1   S    
C13   C15   A    
C9    C34   A    
C10   C23   A    
C37   N2    S    
C7    C9    A    
C1    C20   S    
C16   O10   A    
O10   Zn2   S    
C15   C42   A    
C20   H9    S    
C25   C42   A    
C6    C10   A    
C5    C8    A    
C6    C7    A    
C27   C36   A    
C23   C38   A    
C28   Cl1   S    
C29   H2    S    
C28   C30   A    
O6    Zn2   S    
C6    C13   A    
C38   C40   A    
C28   C37   A    
C1    O1    A    
C2    C14   A    
C24   O2    S    
C13   H6    S    
C20   C21   D    
C8    C10   A    
N3    N4    D    
C31   H1    S    
C17   O9    A    
C26   O3    S    
C25   O4    S    
C4    C30   A    
C3    C16   S    
C19   C41   A    
