data_mof_unit_29797.cif
_audit_creation_date              2012-12-11T16:26:31-0500
_audit_creation_method            fapswitch 2.2
_symmetry_space_group_name_H-M    P1
_symmetry_Int_Tables_number       1
_space_group_crystal_system       triclinic
_cell_length_a                    6.939242
_cell_length_b                    17.802052
_cell_length_c                    19.288174
_cell_angle_alpha                 108.590308
_cell_angle_beta                  89.271674
_cell_angle_gamma                 90.717886
_cell_volume                      2258.12354144

loop_
_atom_site_label
_atom_site_type_symbol
_atom_type_description
_atom_site_fract_x
_atom_site_fract_y
_atom_site_fract_z
_atom_type_partial_charge
O1    O     O_R   0.494330 0.415720 0.413720 -0.538246
O2    O     O_R   0.819330 0.430070 0.560210 -0.487443
O3    O     O_R   0.994320 0.584280 0.586280 -0.533487
C1    C     C_R   0.649816 0.411751 0.578830 0.755757
O4    O     O_R   0.823730 0.406300 0.412670 -0.525242
O5    O     O_R   0.998760 0.560340 0.437690 -0.523321
C2    C     C_R   0.656150 0.386107 0.382884 0.785320
O6    O     O_R   0.489890 0.439660 0.562310 -0.543062
O7    O     O_3   0.662340 0.550560 0.508380 -0.374850
V1    V     V_3+5 0.935370 0.490620 0.498450 1.654762
O8    O     O_R   0.328750 0.569930 0.439790 -0.514062
C3    C     C_R   0.160854 0.585702 0.418644 0.767902
O9    O     O_R   0.324340 0.593700 0.587330 -0.552321
C4    C     C_R   0.155315 0.614671 0.616438 0.752092
V2    V     V_3+5 0.435940 0.509380 0.501550 1.600154
O10   O     O_3   0.159100 0.449440 0.491620 -0.349237
H1    H     H_    0.357217 0.854873 0.566666 0.152127
C5    C     C_R   0.054617 0.593577 0.762570 0.171150
C6    C     C_R   0.011759 0.586478 0.831384 0.661770
C7    C     C_R   0.010816 0.652426 0.893429 0.307125
C8    C     C_R   0.044061 0.726992 0.887601 -0.314982
C9    C     C_R   0.084177 0.737695 0.819277 -0.024922
C10   C     C_R   0.093229 0.669969 0.754531 -0.099789
C11   C     C_R   0.124058 0.814896 0.816369 -0.091706
C12   C     C_R   0.186501 0.825095 0.749804 0.052347
C13   C     C_R   0.194299 0.758925 0.684700 0.054530
C14   C     C_R   0.145244 0.681664 0.686279 -0.113581
C15   C     C_R   0.243235 0.900687 0.746717 -0.148953
C16   C     C_R   0.308264 0.910488 0.681500 -0.057417
C17   C     C_R   0.309935 0.846611 0.617475 -0.099056
C18   C     C_R   0.251858 0.771907 0.618541 -0.150779
H2    H     H_    0.043031 0.776205 0.937995 0.166848
H3    H     H_    0.240619 0.952865 0.794641 0.130369
H4    H     H_    0.357464 0.967944 0.680431 0.188667
H5    H     H_    0.254738 0.724660 0.566806 0.093374
C19   C     C_R   0.304805 0.632918 0.319294 0.720396
C20   C     C_R   0.153781 0.635296 0.369312 -0.238444
C21   C     C_R   0.993919 0.683611 0.370715 -0.140176
C22   C     C_R   0.985120 0.729850 0.323649 0.069276
C23   C     C_R   0.137346 0.726678 0.273299 -0.168729
C24   C     C_R   0.297335 0.677566 0.270705 -0.158058
C25   C     C_R   0.826790 0.779181 0.325808 0.656305
C26   C     C_R   0.819211 0.824522 0.278501 -0.243291
C27   C     C_R   0.968706 0.821460 0.228018 0.095290
C28   C     C_R   0.128976 0.772472 0.225307 0.053518
C29   C     C_R   0.280095 0.769080 0.174487 -0.044260
C30   C     C_R   0.436936 0.718432 0.171248 0.261228
C31   C     C_R   0.445515 0.673539 0.219022 0.669433
C32   C     C_R   0.959928 0.866448 0.180079 -0.097267
C33   C     C_R   0.110797 0.864865 0.130401 -0.078608
C34   C     C_R   0.270084 0.816214 0.128092 -0.032673
H6    H     H_    0.877056 0.685572 0.409053 0.205290
H7    H     H_    0.695202 0.861769 0.281037 0.159249
H8    H     H_    0.836947 0.903733 0.182238 0.179594
H9    H     H_    0.384926 0.815059 0.089301 0.180143
C35   C     C_R   0.481203 0.198585 0.879464 0.436445
C36   C     C_R   0.624765 0.141201 0.875089 -0.193205
C37   C     C_R   0.776213 0.132188 0.824620 -0.116204
C38   C     C_R   0.784621 0.176230 0.775816 0.034655
C39   C     C_R   0.634718 0.229392 0.776219 -0.076495
C40   C     C_R   0.481233 0.240762 0.828060 -0.117020
C41   C     C_R   0.939038 0.167416 0.725874 0.291278
C42   C     C_R   0.942614 0.208959 0.675419 0.645254
C43   C     C_R   0.791290 0.260502 0.672873 -0.067131
C44   C     C_R   0.638536 0.271453 0.724726 -0.101509
C45   C     C_R   0.488225 0.324118 0.724908 -0.046867
C46   C     C_R   0.335377 0.333652 0.774854 0.598868
C47   C     C_R   0.331237 0.293118 0.825762 0.618572
C48   C     C_R   0.788367 0.302000 0.620795 0.450194
C49   C     C_R   0.642715 0.358631 0.624869 -0.183381
C50   C     C_R   0.493122 0.367499 0.675856 -0.070555
H10   H     H_    0.885725 0.088836 0.822768 0.184205
H11   H     H_    0.381942 0.410078 0.678308 0.229164
H12   H     H_    0.535304 0.152386 0.451798 0.173278
C51   C     C_R   0.724538 0.400667 0.232579 0.367566
C52   C     C_R   0.735676 0.407025 0.162330 -0.050144
C53   C     C_R   0.705276 0.341773 0.101415 -0.112579
C54   C     C_R   0.666961 0.268603 0.109590 -0.104927
C55   C     C_R   0.653101 0.258875 0.179703 0.006737
C56   C     C_R   0.675737 0.326590 0.243513 -0.029079
C57   C     C_R   0.617462 0.182382 0.185523 -0.140996
C58   C     C_R   0.594418 0.172413 0.255874 0.003537
C59   C     C_R   0.609348 0.240733 0.319762 0.011647
C60   C     C_R   0.648368 0.317237 0.314076 -0.142039
C61   C     C_R   0.556533 0.097104 0.266326 0.324126
C62   C     C_R   0.536196 0.091461 0.336614 -0.117662
C63   C     C_R   0.551273 0.157857 0.397681 -0.107685
C64   C     C_R   0.587021 0.231359 0.389733 -0.094651
H13   H     H_    0.771200 0.463311 0.154645 0.224136
H14   H     H_    0.714801 0.347572 0.047261 0.194617
H15   H     H_    0.647686 0.219761 0.059677 0.125511
H16   H     H_    0.507947 0.034556 0.344170 0.164953
H17   H     H_    0.597984 0.280707 0.439737 0.111574
O11   O     O_R   0.775200 0.060470 0.937800 -0.545428
O12   O     O_R   0.441110 0.093720 0.087350 -0.518545
O13   O     O_R   0.266330 0.939630 0.062280 -0.517415
C65   C     C_R   0.608799 0.114060 0.116843 0.803594
O14   O     O_R   0.445750 0.069950 0.939820 -0.518071
O15   O     O_R   0.271000 0.915700 0.913700 -0.547687
C66   C     C_R   0.615527 0.088056 0.921014 0.713858
O16   O     O_R   0.770530 0.084400 0.086380 -0.537172
O17   O     O_3   0.602830 0.949510 0.991680 -0.363804
V3    V     V_3+5 0.329710 0.009370 0.001550 1.580689
O18   O     O_R   0.940990 0.906170 0.912570 -0.543807
C67   C     C_R   0.110544 0.884577 0.884114 0.660752
O19   O     O_R   0.936350 0.929940 0.060100 -0.531935
C68   C     C_R   0.103962 0.914771 0.081657 0.729431
V4    V     V_3+5 0.829160 0.990450 0.998310 1.539043
O20   O     O_3   0.105910 0.050480 0.008320 -0.354965
F1    F     F_    0.678541 0.783440 0.373521 -0.698188
Cl1   Cl    Cl    0.625311 0.708238 0.106926 -0.498704
F2    F     F_    0.599647 0.625738 0.214270 -0.578603
Cl2   Cl    Cl    0.312842 0.221467 0.953240 -0.550051
Cl3   Cl    Cl    0.135930 0.105558 0.725392 -0.668422
Cl4   Cl    Cl    0.065342 0.502136 0.692012 -0.557655
F3    F     F_    0.099796 0.199795 0.631003 -0.602738
Cl5   Cl    Cl    0.953845 0.278499 0.546087 -0.556343
F4    F     F_    0.186040 0.381714 0.773795 -0.563913
F5    F     F_    0.174151 0.304013 0.870313 -0.568363
Cl6   Cl    Cl    0.789138 0.488361 0.301106 -0.554773
F6    F     F_    0.974272 0.514185 0.838438 -0.524933
Cl7   Cl    Cl    0.529612 0.005445 0.196742 -0.734614
Cl8   Cl    Cl    0.976398 0.641540 0.980015 -0.421776
F7    F     F_    0.456226 0.584950 0.316607 -0.593704

loop_
_geom_bond_atom_site_label_1
_geom_bond_atom_site_label_2
_ccdc_geom_bond_type
C27   C32   A    
C25   F1    S    
O15   V3    S    
C63   C64   A    
C6    C7    A    
C1    O6    A    
C15   C16   A    
C1    C49   S    
C57   C58   A    
C61   C62   A    
C35   C36   A    
C12   C15   A    
O11   V4    S    
C13   C14   A    
C16   C17   A    
O19   V4    S    
C19   C20   A    
C19   F7    S    
C20   C21   A    
C41   Cl3   S    
C47   F5    S    
O5    C3    A    
C17   C18   A    
C21   H6    S    
O19   C68   A    
V2    O10   S    
V4    O20   S    
C5    C6    A    
C3    C20   S    
C32   C33   A    
C7    Cl8   S    
C64   H17   S    
O8    V2    S    
C26   H7    S    
C59   C60   A    
O14   V3    S    
C35   Cl2   S    
O17   V4    S    
C49   C50   A    
O1    V2    S    
C10   C14   A    
C4    C14   S    
C51   C56   A    
C34   H9    S    
C56   C60   A    
C52   H13   S    
O16   V4    S    
C2    C60   S    
C13   C18   A    
O9    C4    A    
H1    C17   S    
C19   C24   A    
C48   C49   A    
O18   C67   A    
O12   V3    S    
C22   C25   A    
C9    C10   A    
C23   C28   A    
O15   C67   A    
C8    H2    S    
C53   H14   S    
C46   C47   A    
C30   C31   A    
C45   C46   A    
C11   C12   A    
C22   C23   A    
C50   H11   S    
C62   C63   A    
C12   C13   A    
C53   C54   A    
C36   C66   S    
C29   C34   A    
C5    C10   A    
C39   C40   A    
O2    C1    A    
C51   C52   A    
O5    V1    S    
C41   C42   A    
C45   C50   A    
O11   C66   A    
C33   C34   A    
C61   Cl7   S    
C43   C48   A    
C52   C53   A    
O3    C4    A    
C42   F3    S    
C23   C24   A    
C31   F2    S    
O13   C68   A    
C39   C44   A    
C44   C45   A    
O6    V2    S    
O14   C66   A    
O9    V2    S    
C26   C27   A    
C33   C68   S    
H12   C63   S    
C9    C11   A    
C55   C56   A    
C25   C26   A    
O2    V1    S    
O18   V4    S    
C27   C28   A    
O4    C2    A    
O7    V1    S    
C29   C30   A    
C6    F6    S    
C38   C41   A    
O1    C2    A    
C51   Cl6   S    
C5    Cl4   S    
C15   H3    S    
O8    C3    A    
O12   C65   A    
C54   H15   S    
C58   C61   A    
C55   C57   A    
V3    O20   S    
C43   C44   A    
C37   C38   A    
O4    V1    S    
O3    V1    S    
V1    O10   S    
C54   C55   A    
C40   C47   A    
C37   H10   S    
C36   C37   A    
C21   C22   A    
C57   C65   S    
C30   Cl1   S    
C16   H4    S    
C48   Cl5   S    
C24   C31   A    
C59   C64   A    
C18   H5    S    
O7    V2    S    
O17   V3    S    
C46   F4    S    
C42   C43   A    
C28   C29   A    
C38   C39   A    
C7    C8    A    
C58   C59   A    
O13   V3    S    
C35   C40   A    
C62   H16   S    
C11   C67   S    
C8    C9    A    
C65   O16   A    
C32   H8    S    
