data_mof_unit_25686.cif
_audit_creation_date              2013-03-05T15:49:23-0500
_audit_creation_method            fapswitch 2.2
_symmetry_space_group_name_H-M    P1
_symmetry_Int_Tables_number       1
_space_group_crystal_system       triclinic
_cell_length_a                    17.102648
_cell_length_b                    13.039177
_cell_length_c                    11.666897
_cell_angle_alpha                 99.312927
_cell_angle_beta                  89.906258
_cell_angle_gamma                 90.986101
_cell_volume                      2567.09468451

loop_
_atom_site_label
_atom_site_type_symbol
_atom_site_description
_atom_site_fract_x
_atom_site_fract_y
_atom_site_fract_z
_atom_type_partial_charge
O1    O     O_R   0.504120 0.354440 0.581590 -0.560986
O2    O     O_R   0.495880 0.645560 0.418410 -0.556756
O3    O     O_R   0.494320 0.341440 0.386760 -0.583601
O4    O     O_R   0.505680 0.658560 0.613240 -0.597832
C1    C     C_R   0.497851 0.299654 0.479574 0.862285
C2    C     C_R   0.502312 0.700347 0.520458 0.868243
O5    O     O_R   0.391870 0.507230 0.608700 -0.551876
O6    O     O_R   0.608130 0.492770 0.391300 -0.585622
O7    O     O_R   0.382070 0.494240 0.413880 -0.600786
O8    O     O_R   0.617930 0.505760 0.586120 -0.544458
C3    C     C_R   0.350167 0.505732 0.515693 0.873513
C4    C     C_R   0.649673 0.494046 0.484382 0.862062
Cu1   Cu    Cu3+1 0.505800 0.507690 0.615350 1.009844
Cu2   Cu    Cu3+1 0.494200 0.492310 0.384650 0.993473
C5    C     C_R   0.265266 0.522959 0.523967 -0.206190
C6    C     C_R   0.734274 0.476886 0.474453 -0.218696
C7    C     C_R   0.226986 0.550855 0.427471 -0.222247
C8    C     C_R   0.773969 0.497016 0.375059 -0.174677
C9    C     C_R   0.146898 0.564409 0.428512 -0.211614
C10   C     C_R   0.854487 0.485288 0.366329 -0.226468
C11   C     C_R   0.102904 0.548535 0.525023 -0.084550
C12   C     C_R   0.896333 0.452099 0.456079 -0.100027
C13   C     C_R   0.140092 0.523875 0.624922 0.424932
C14   C     C_R   0.857007 0.427081 0.554493 0.447542
C15   C     C_R   0.221999 0.514196 0.625456 0.430496
C16   C     C_R   0.775797 0.438353 0.563045 0.418096
C17   C     C_2   0.016907 0.545393 0.513450 0.439746
C18   C     C_2   0.982691 0.458731 0.454608 0.411355
H1    H     H_    0.258888 0.561159 0.349742 0.192576
H2    H     H_    0.743106 0.525394 0.305780 0.224898
H3    H     H_    0.884802 0.506330 0.291675 0.177648
H4    H     H_    0.118434 0.582793 0.351604 0.166355
C19   C     C_R   0.499470 0.812737 0.531508 -0.201199
C20   C     C_R   0.501161 0.187321 0.468841 -0.210402
C21   C     C_R   0.567918 0.032171 0.383067 0.378690
C22   C     C_R   0.433503 0.968176 0.618317 0.380147
C23   C     C_R   0.550566 0.135807 0.384904 -0.303512
C24   C     C_R   0.450508 0.864401 0.615982 -0.296176
C25   C     C_R   0.464423 0.134562 0.550553 0.306364
C26   C     C_R   0.536557 0.865590 0.450175 0.314480
C27   C     C_R   0.474090 0.026135 0.542858 -0.132924
C28   C     C_R   0.527134 0.974118 0.458222 -0.133054
H5    H     H_    0.418857 0.820925 0.673571 0.186248
H6    H     H_    0.582260 0.179358 0.327450 0.195462
N1    N     N_R   0.514530 0.519260 0.788680 -0.236447
N2    N     N_R   0.485470 0.480740 0.211320 -0.231740
C29   C     C_R   0.423933 0.403530 0.031201 0.230885
C30   C     C_R   0.577711 0.593658 0.968456 0.245582
C31   C     C_R   0.432733 0.412753 0.152489 0.015048
C32   C     C_R   0.568249 0.585794 0.847408 0.044767
C33   C     C_R   0.532747 0.540328 0.153334 0.107189
C34   C     C_R   0.467535 0.459044 0.846437 0.080462
C35   C     C_R   0.528458 0.533424 0.030796 -0.106248
C36   C     C_R   0.472232 0.465045 0.968862 -0.120006
H7    H     H_    0.426679 0.406391 0.795880 0.240430
H8    H     H_    0.573305 0.593520 0.203847 0.222563
H9    H     H_    0.605540 0.631453 0.799260 0.178504
H10   H     H_    0.396099 0.366271 0.200602 0.174030
N3    N     N_R   0.366410 0.331259 0.974345 0.145200
O9    O     O_R   0.356984 0.240901 0.006660 -0.267351
O10   O     O_R   0.314281 0.361843 0.906806 -0.287867
N4    N     N_R   0.638257 0.661123 0.024952 0.150146
O11   O     O_R   0.652079 0.750724 0.992828 -0.271234
O12   O     O_R   0.688573 0.625871 0.091865 -0.331423
O13   O     O_3   0.738388 0.417911 0.662372 -0.531742
C37   C     C_3   0.709466 0.314535 0.642014 -0.196548
H11   H     H_    0.758042 0.258410 0.633984 0.154112
H12   H     H_    0.671371 0.298743 0.563612 0.114510
H13   H     H_    0.673314 0.301381 0.717498 0.206976
O14   O     O_3   0.258496 0.487594 0.721878 -0.491156
C38   C     C_3   0.275584 0.579671 0.800180 -0.172754
H14   H     H_    0.221578 0.614057 0.841536 0.146285
H15   H     H_    0.308023 0.638255 0.757843 0.122807
H16   H     H_    0.313428 0.560436 0.870463 0.196721
O15   O     O_3   0.029947 0.377564 0.402696 -0.597590
C39   C     C_3   0.988941 0.304399 0.321314 -0.258517
H17   H     H_    0.942532 0.263214 0.363863 0.154699
H18   H     H_    0.030693 0.245039 0.281025 0.216530
H19   H     H_    0.964303 0.341681 0.250419 0.168759
O16   O     O_3   0.970363 0.626404 0.566369 -0.595908
C40   C     C_3   0.004556 0.723805 0.556512 -0.276042
H20   H     H_    0.057442 0.739888 0.612088 0.157232
H21   H     H_    0.961746 0.785118 0.587218 0.218504
H22   H     H_    0.018751 0.729368 0.464524 0.163708
O17   O     O_3   0.097372 0.493791 0.715254 -0.538481
C41   C     C_3   0.064369 0.581088 0.784898 -0.192619
H23   H     H_    0.092941 0.656942 0.776015 0.101680
H24   H     H_    0.069946 0.571451 0.877255 0.185946
H25   H     H_    0.001013 0.583655 0.765947 0.241280
O18   O     O_3   0.897477 0.404099 0.649709 -0.545010
C42   C     C_3   0.927248 0.302566 0.625008 -0.217071
H26   H     H_    0.890489 0.247821 0.563209 0.107414
H27   H     H_    0.929835 0.270412 0.707300 0.205394
H28   H     H_    0.987895 0.304995 0.591699 0.222177
N5    N     N_R   0.578884 0.807239 0.355712 0.156502
O19   O     O_R   0.638214 0.751667 0.376266 -0.321479
O20   O     O_R   0.552588 0.800433 0.250100 -0.307418
N6    N     N_R   0.422281 0.192957 0.645153 0.156195
O21   O     O_R   0.449220 0.200543 0.750486 -0.307390
O22   O     O_R   0.362561 0.247968 0.624879 -0.284959
N7    N     N_R   0.632820 0.991648 0.312975 0.168508
O23   O     O_R   0.637226 0.005654 0.205203 -0.272439
O24   O     O_R   0.694912 0.963108 0.363034 -0.304034
N8    N     N_R   0.369103 0.008963 0.689347 0.169321
O25   O     O_R   0.306510 0.037047 0.640139 -0.290029
O26   O     O_R   0.365615 0.995437 0.797343 -0.277366

loop_
_geom_bond_atom_site_label_1
_geom_bond_atom_site_label_2
_geom_bond_distance
_ccdc_geom_bond_type
C37   H12   1.113535 S    
N7    O23   1.301355 A    
C20   C23   1.388549 A    
C7    H1    1.083240 S    
C27   C28   1.435100 A    
N5    O19   1.301740 A    
C39   H19   1.111909 S    
O15   C39   1.410486 S    
N8    O26   1.301354 A    
C40   H20   1.110811 S    
C29   C31   1.408714 A    
C35   C36   1.416332 A    
O5    C3    1.296817 A    
N2    C31   1.359436 A    
O1    C1    1.288805 A    
C9    C11   1.394312 A    
C14   C16   1.400870 A    
C41   H24   1.109290 S    
C5    C15   1.414433 A    
C37   H13   1.109378 S    
C33   H8    1.077956 S    
O4    Cu1   1.971392 S    
C21   C28   1.422328 A    
N4    O12   1.301234 A    
C3    C5    1.473743 S    
C4    C6    1.469429 S    
O14   C38   1.412534 S    
C8    H2    1.083397 S    
C34   H7    1.077628 S    
C26   C28   1.414967 A    
C37   H11   1.110406 S    
C11   C17   1.476436 S    
N3    O9    1.301263 A    
N7    O24   1.301246 A    
C12   C18   1.478229 S    
Cu1   Cu2   2.673896 S    
C32   H9    1.082015 S    
C22   C27   1.422427 A    
O2    C2    1.289331 A    
C9    H4    1.083803 S    
N8    O25   1.301232 A    
C40   H21   1.109123 S    
C34   C36   1.420097 A    
C6    C16   1.416988 A    
C30   C35   1.419685 A    
N3    O10   1.300396 A    
C19   C26   1.404394 A    
C20   C25   1.404381 A    
C39   H17   1.111368 S    
Cu2   N2    2.008957 S    
C17   O16   1.395328 S    
C42   H26   1.115391 S    
C38   H15   1.114416 S    
C41   H23   1.115424 S    
C25   N6    1.435853 S    
N1    C34   1.365389 A    
C21   N7    1.434352 S    
O17   C41   1.412708 S    
N2    C33   1.364504 A    
C41   H25   1.108387 S    
C31   H10   1.082074 S    
C33   C35   1.419793 A    
O7    Cu2   1.947132 S    
N4    O11   1.301248 A    
C42   H27   1.109322 S    
C30   N4    1.436590 S    
O5    Cu1   1.950043 S    
O6    C4    1.296413 A    
C1    C20   1.451822 S    
O7    C3    1.293915 A    
O3    Cu2   1.971389 S    
O8    C4    1.291902 A    
C29   C36   1.420823 A    
O4    C2    1.290009 A    
C10   C12   1.398452 A    
N6    O21   1.301236 A    
N6    O22   1.301754 A    
C11   C13   1.413171 A    
C12   C14   1.410054 A    
O1    Cu1   1.972892 S    
C26   N5    1.436143 S    
C40   H22   1.113425 S    
C5    C7    1.404102 A    
O6    Cu2   1.950041 S    
C21   C23   1.385282 A    
C16   O13   1.383828 S    
C39   H18   1.109088 S    
O16   C40   1.410556 S    
O3    C1    1.290494 A    
O8    Cu1   1.947134 S    
C14   O18   1.385743 S    
C38   H16   1.108192 S    
N5    O20   1.301308 A    
C19   C24   1.388584 A    
C2    C19   1.451852 S    
C22   N8    1.434305 S    
C23   H6    1.084919 S    
C22   C24   1.384888 A    
C24   H5    1.085058 S    
C42   H28   1.108785 S    
Cu1   N1    2.008958 S    
O18   C42   1.412186 S    
N1    C32   1.359567 A    
C30   C32   1.408716 A    
C7    C9    1.383868 A    
C8    C10   1.389907 A    
C13   C15   1.408785 A    
O2    Cu2   1.972894 S    
C29   N3    1.436593 S    
C38   H14   1.108935 S    
C25   C27   1.414623 A    
C6    C8    1.401534 A    
O13   C37   1.411313 S    
C13   O17   1.385563 S    
C17   C18   1.348380 D    
C15   O14   1.382557 S    
C18   O15   1.400177 S    
C10   H3    1.083358 S    
