data_mof_unit_41741.cif
_audit_creation_date              2012-12-11T15:47:03-0500
_audit_creation_method            fapswitch 2.2
_symmetry_space_group_name_H-M    P1
_symmetry_Int_Tables_number       1
_space_group_crystal_system       triclinic
_cell_length_a                    11.545407
_cell_length_b                    11.533062
_cell_length_c                    19.573844
_cell_angle_alpha                 90.356467
_cell_angle_beta                  89.987372
_cell_angle_gamma                 59.997802
_cell_volume                      2257.04069922

loop_
_atom_site_label
_atom_site_type_symbol
_atom_type_description
_atom_site_fract_x
_atom_site_fract_y
_atom_site_fract_z
_atom_type_partial_charge
C1    C     C_R   0.640344 0.117148 0.599343 0.546583
C2    C     C_1   0.652918 0.149399 0.668708 0.003809
C3    C     C_R   0.651362 0.683484 0.188980 -0.001936
C4    C     C_R   0.612352 0.746091 0.598691 0.544931
C5    C     C_R   0.539210 0.699843 0.225031 0.079460
C6    C     C_R   0.534597 0.711389 0.294328 -0.004808
C7    C     C_R   0.742540 0.712872 0.294405 -0.162349
C8    C     C_R   0.747644 0.702192 0.223239 -0.173131
C9    C     C_3   0.477460 0.611538 0.227936 0.138593
C10   C     C_3   0.469752 0.629075 0.304746 -0.266617
C11   C     C_R   0.639873 0.707343 0.330471 0.005852
C12   C     C_1   0.641022 0.704015 0.668055 0.004657
C13   C     C_R   0.157243 0.190702 0.188369 0.005435
C14   C     C_R   0.185511 0.277464 0.225069 0.033793
C15   C     C_R   0.210697 0.259859 0.293591 0.043675
C16   C     C_R   0.241106 0.145148 0.598247 0.546129
C17   C     C_R   0.204476 0.054465 0.290452 -0.153911
C18   C     C_R   0.177574 0.072752 0.220270 -0.135888
C19   C     C_3   0.108142 0.426766 0.232948 -0.269901
C20   C     C_3   0.137420 0.406623 0.308613 -0.281019
C21   C     C_R   0.209823 0.155141 0.328721 0.002612
C22   C     C_R   0.666116 0.174185 0.189268 0.011877
C23   C     C_1   0.126563 0.199089 0.859253 0.007905
C24   C     C_R   0.754062 0.052276 0.220690 0.011038
C25   C     C_R   0.746324 0.035125 0.289367 0.021289
C26   C     C_R   0.546840 0.250499 0.296908 -0.160700
C27   C     C_R   0.553456 0.267358 0.226388 -0.171319
C28   C     C_R   0.642460 0.110488 0.401083 0.544636
C29   C     C_3   0.903745 0.971578 0.222056 -0.209480
C30   C     C_3   0.893977 0.953583 0.297876 -0.253736
C31   C     C_R   0.651575 0.138247 0.329832 0.016614
C32   C     C_R   0.081643 0.231314 0.928538 0.549424
C33   C     C_R   0.684019 0.604361 0.929462 0.544540
C34   C     C_1   0.171637 0.170128 0.727751 -0.029521
C35   C     C_R   0.708547 0.206808 0.930054 0.542493
C36   C     C_R   0.084596 0.235188 0.124658 0.545413
C37   C     C_R   0.681199 0.614427 0.124397 0.537408
C38   C     C_R   0.707052 0.209312 0.125961 0.534357
C39   C     C_R   0.615667 0.741910 0.401556 0.548880
C40   C     C_R   0.248474 0.138659 0.399995 0.544663
C41   C     C_1   0.670574 0.646375 0.860085 0.007458
C42   C     C_1   0.654639 0.683740 0.728453 -0.029932
C43   C     C_1   0.663514 0.666627 0.799675 -0.028552
C44   C     C_1   0.150111 0.182439 0.798945 -0.028109
C45   C     C_1   0.195489 0.160595 0.667450 0.004036
C46   C     C_1   0.678767 0.191443 0.860709 0.006796
C47   C     C_1   0.658584 0.167029 0.729047 -0.029607
C48   C     C_1   0.665825 0.180930 0.800317 -0.028045
Cr1   Cr    Cr6+3 0.404720 0.198220 0.499960 1.025672
Cr2   Cr    Cr6+3 0.698290 0.897110 0.500380 1.026441
Cr3   Cr    Cr6+3 0.396970 0.904720 0.499610 1.028784
Cr4   Cr    Cr6+3 0.926290 0.152010 0.028150 1.064995
Cr5   Cr    Cr6+3 0.921440 0.451830 0.027490 1.047790
Cr6   Cr    Cr6+3 0.626370 0.446880 0.028730 1.104671
H1    H     H_    0.157702 0.476015 0.207130 0.185631
H2    H     H_    0.000325 0.469529 0.221428 0.152996
H3    H     H_    0.820008 0.721375 0.321064 0.132723
H4    H     H_    0.205227 0.442968 0.326348 0.137067
H5    H     H_    0.927843 0.848379 0.312036 0.139122
H6    H     H_    0.935113 0.004553 0.329853 0.142392
H7    H     H_    0.548870 0.507069 0.212177 0.112810
H8    H     H_    0.180741 0.687385 0.260963 0.329085
H9    H     H_    0.368077 0.689624 0.326855 0.180028
H10   H     H_    0.535227 0.534481 0.332401 0.094201
H11   H     H_    0.046556 0.438613 0.340561 0.137191
H12   H     H_    0.462673 0.326758 0.325603 0.134372
H13   H     H_    0.476595 0.356771 0.202488 0.176072
H14   H     H_    0.951705 0.032089 0.211055 0.170598
H15   H     H_    0.942561 0.877023 0.192142 0.186263
H16   H     H_    0.832332 0.696188 0.196188 0.135084
H17   H     H_    0.215685 0.965393 0.314813 0.169108
H18   H     H_    0.162037 0.000728 0.192481 0.215461
O1    O     O_R   0.267750 0.231960 0.575440 -0.505214
O2    O     O_R   0.596230 0.579400 0.952760 -0.490013
O3    O     O_R   0.639160 0.321170 0.958690 -0.490585
O4    O     O_R   0.527290 0.186640 0.570530 -0.494217
O5    O     O_R   0.821370 0.124220 0.104400 -0.519367
O6    O     O_R   0.037020 0.167050 0.097880 -0.500364
O7    O     O_R   0.056310 0.349620 0.102920 -0.507997
O8    O     O_R   0.797790 0.564880 0.097980 -0.514408
O9    O     O_R   0.596000 0.584270 0.104310 -0.468501
O10   O     O_R   0.638950 0.325690 0.099180 -0.491190
O11   O     O_3   0.824700 0.350240 0.028120 -0.274935
O12   O     O_R   0.685950 0.784660 0.430010 -0.508367
O13   O     O_R   0.728110 0.003450 0.576380 -0.504334
O14   O     O_R   0.682980 0.789190 0.570500 -0.494390
O15   O     O_R   0.499300 0.771880 0.575540 -0.505136
O16   O     O_R   0.285350 0.030870 0.569740 -0.493432
O17   O     O_R   0.270960 0.227070 0.423890 -0.517090
O18   O     O_R   0.530270 0.182120 0.430040 -0.508226
O19   O     O_R   0.731320 0.998570 0.424830 -0.516492
O20   O     O_2   0.309750 0.782100 0.132884 -0.247673
O21   O     O_2   0.307413 0.574124 0.148599 -0.315744
O22   O     O_3   0.191904 0.759879 0.240897 -0.591448
O23   O     O_R   0.502510 0.767000 0.423980 -0.517048
O24   O     O_R   0.288320 0.026340 0.429250 -0.505405
O25   O     O_3   0.499990 0.000020 0.499980 -0.255159
O26   O     O_R   0.821590 0.119350 0.952850 -0.501056
O27   O     O_R   0.037230 0.162540 0.957390 -0.487860
O28   O     O_R   0.056530 0.344750 0.951370 -0.499276
O29   O     O_R   0.798000 0.560370 0.957490 -0.496086
S1    S     S_3+6 0.319044 0.682826 0.185077 -0.023333

loop_
_geom_bond_atom_site_label_1
_geom_bond_atom_site_label_2
_ccdc_geom_bond_type
C19   H2    S    
C25   C31   A    
Cr3   O25   S    
C10   H9    S    
Cr1   O18   S    
C33   O29   A    
Cr2   O12   S    
C7    C8    A    
C4    O15   A    
C7    C11   A    
C35   O3    A    
C26   C27   A    
C13   C18   A    
C9    H7    S    
Cr5   O7    S    
C39   O12   A    
C5    C6    A    
C4    O14   A    
C22   C38   S    
C1    C2    S    
C24   C29   S    
C12   C42   T    
Cr2   O13   S    
Cr6   O2    S    
C19   C20   S    
Cr5   O29   S    
C9    S1    S    
C30   H6    S    
C40   O17   A    
C4    C12   S    
C35   O26   A    
C9    C10   S    
O20   S1    D    
Cr3   O24   S    
C26   C31   A    
C13   C14   A    
C38   O10   A    
C1    O13   A    
C41   C43   T    
C37   O9    A    
C40   O24   A    
Cr4   O6    S    
Cr6   O11   S    
C29   H15   S    
Cr5   O28   S    
C18   H18   S    
C15   C20   S    
C37   O8    A    
C46   C48   T    
C16   O1    A    
C26   H12   S    
C20   H11   S    
Cr5   O8    S    
C34   C44   S    
C24   C25   A    
C13   C36   S    
C3    C8    A    
Cr3   O15   S    
C6    C11   A    
C17   C21   A    
C23   C44   T    
C32   O28   A    
O21   S1    D    
Cr4   O11   S    
C5    C9    S    
C29   C30   S    
C29   H14   S    
Cr2   O19   S    
C47   C48   S    
C30   H5    S    
C17   C18   A    
Cr1   O4    S    
C34   C45   T    
C11   C39   S    
C39   O23   A    
C17   H17   S    
C22   C27   A    
H8    O22   S    
Cr1   O1    S    
C42   C43   S    
C20   H4    S    
Cr4   O5    S    
Cr6   O10   S    
C19   H1    S    
C25   C30   S    
Cr2   O25   S    
C1    O4    A    
C14   C19   S    
C28   C31   S    
C10   H10   S    
Cr1   O17   S    
C3    C5    A    
C36   O7    A    
Cr3   O16   S    
C6    C10   S    
C38   O5    A    
C2    C47   T    
Cr4   O27   S    
C8    H16   S    
C32   O27   A    
Cr5   O11   S    
C33   C41   S    
C23   C32   S    
C36   O6    A    
C21   C40   S    
Cr4   O26   S    
C28   O19   A    
C22   C24   A    
C27   H13   S    
Cr2   O14   S    
C16   C45   S    
Cr1   O25   S    
Cr6   O3    S    
C33   O2    A    
C15   C21   A    
C3    C37   S    
C16   O16   A    
C14   C15   A    
C28   O18   A    
C35   C46   S    
C7    H3    S    
Cr6   O9    S    
O22   S1    S    
Cr3   O23   S    
