data_mof_unit_47056.cif
_audit_creation_date              2012-12-10T17:23:41-0500
_audit_creation_method            fapswitch 2.2
_symmetry_space_group_name_H-M    P1
_symmetry_Int_Tables_number       1
_space_group_crystal_system       triclinic
_cell_length_a                    9.627917
_cell_length_b                    10.754268
_cell_length_c                    17.256508
_cell_angle_alpha                 91.681266
_cell_angle_beta                  84.138688
_cell_angle_gamma                 90.617984
_cell_volume                      1776.59867808

loop_
_atom_site_label
_atom_site_type_symbol
_atom_type_description
_atom_site_fract_x
_atom_site_fract_y
_atom_site_fract_z
_atom_type_partial_charge
C1    C     C_R   0.500115 0.737212 0.502163 0.759580
C2    C     C_R   0.360592 0.451423 0.777351 -0.237640
C3    C     C_R   0.446286 0.446954 0.143892 -0.125309
C4    C     C_R   0.441006 0.437655 0.224171 -0.156848
C5    C     C_R   0.626297 0.591948 0.227223 -0.102912
C6    C     C_R   0.631946 0.601137 0.146657 -0.161326
C7    C     C_R   0.540260 0.530501 0.104800 0.166317
C8    C     C_2   0.432017 0.530143 0.982051 -0.209191
C9    C     C_2   0.545942 0.544163 0.020263 -0.218008
C10   C     C_R   0.531032 0.509927 0.266018 0.026826
C11   C     C_R   0.345139 0.874665 0.630788 -0.204319
C12   C     C_R   0.479705 0.504813 0.649709 0.758996
C13   C     C_R   0.268707 0.941705 0.690721 -0.134973
C14   C     C_R   0.266756 0.071005 0.690095 -0.139719
C15   C     C_R   0.341297 0.134033 0.629558 -0.181105
C16   C     C_R   0.418060 0.067940 0.567609 0.098421
C17   C     C_R   0.419861 0.936572 0.568183 0.089289
C18   C     C_R   0.499818 0.871216 0.507089 -0.089192
C19   C     C_R   0.578783 0.934170 0.448106 -0.200841
C20   C     C_R   0.576359 0.062348 0.447354 -0.222660
C21   C     C_R   0.496455 0.129195 0.506004 -0.094700
C22   C     C_R   0.876040 0.320784 0.406553 0.402828
C23   C     C_R   0.498974 0.262890 0.501650 0.782631
C24   C     C_R   0.935014 0.202382 0.405831 -0.254287
C25   C     C_R   0.080318 0.196346 0.405597 0.258642
C26   C     C_R   0.152905 0.307001 0.419940 -0.182884
C27   C     C_R   0.081014 0.408486 0.458296 0.157623
C28   C     C_R   0.933031 0.411088 0.455912 0.103870
C29   C     C_R   0.919536 0.585881 0.541544 -0.028947
C30   C     C_R   0.067457 0.586673 0.540835 -0.046824
C31   C     C_R   0.519699 0.503053 0.350393 0.809931
C32   C     C_R   0.464291 0.520201 0.734303 -0.091722
C33   C     C_R   0.551757 0.603520 0.772188 0.254852
C34   C     C_R   0.538131 0.608960 0.854035 -0.167032
C35   C     C_R   0.439735 0.533797 0.896809 0.130292
C36   C     C_R   0.348338 0.458340 0.858166 -0.166797
Cu1   Cu    Cu3+1 0.359340 0.500010 0.500010 0.934203
Cu2   Cu    Cu3+1 0.640660 0.499990 0.499990 0.987555
H1    H     H_    0.705291 0.665566 0.117204 0.132988
H2    H     H_    0.639761 0.883566 0.401374 0.151502
H3    H     H_    0.346634 0.774566 0.634833 0.136004
H4    H     H_    0.211948 0.893145 0.738266 0.136574
H5    H     H_    0.208453 0.122812 0.737149 0.132774
H6    H     H_    0.339416 0.234479 0.632532 0.147160
H7    H     H_    0.634664 0.109851 0.399852 0.164853
H8    H     H_    0.859249 0.656086 0.575830 0.144327
H9    H     H_    0.881950 0.124293 0.380555 0.174554
H10   H     H_    0.367283 0.373486 0.253628 0.152284
H11   H     H_    0.261260 0.310873 0.399414 0.188265
H12   H     H_    0.116993 0.657598 0.574531 0.131342
H13   H     H_    0.693394 0.650994 0.259384 0.162119
H14   H     H_    0.646596 0.566260 0.989240 0.148433
H15   H     H_    0.270484 0.401448 0.890616 0.135876
H16   H     H_    0.377885 0.387848 0.112689 0.134126
H17   H     H_    0.291650 0.389441 0.748364 0.150704
H18   H     H_    0.331644 0.507929 0.013394 0.150050
H19   H     H_    0.601712 0.672803 0.884905 0.136668
N1    N     N_R   0.852190 0.498790 0.499250 -0.196290
N2    N     N_R   0.148060 0.498710 0.499220 -0.180750
O1    O     O_R   0.381190 0.680360 0.500010 -0.583487
O2    O     O_R   0.618760 0.680340 0.500000 -0.586594
O3    O     O_R   0.367440 0.500030 0.613600 -0.594383
O4    O     O_R   0.605010 0.500010 0.613590 -0.560455
O5    O     O_R   0.381240 0.319660 0.500000 -0.606942
O6    O     O_R   0.618810 0.319640 0.499990 -0.586885
O7    O     O_R   0.394990 0.499990 0.386410 -0.603420
O8    O     O_R   0.632560 0.499970 0.386400 -0.507359
N3    N     N_2   0.648432 0.681892 0.726948 -0.417796
H20   H     H_    0.609614 0.721790 0.680055 0.245128
C37   C     C_3   0.746829 0.759741 0.764496 -0.710693
H21   H     H_    0.819933 0.804273 0.719382 0.223645
H22   H     H_    0.809440 0.702739 0.800578 0.233312
H23   H     H_    0.690782 0.834101 0.800798 0.227849
S1    S     S_3+6 0.868170 0.363166 0.308629 -0.006931
O9    O     O_2   0.735463 0.313181 0.280416 -0.329726
O10   O     O_2   0.877473 0.502032 0.301758 -0.309211
O11   O     O_3   0.003411 0.300166 0.251824 -0.539600
H24   H     H_    0.992839 0.328690 0.198698 0.370617
N4    N     N_2   0.153785 0.085439 0.380978 -0.397194
H25   H     H_    0.260147 0.097310 0.368520 0.251773
C38   C     C_3   0.119324 0.979176 0.429044 -0.641985
H26   H     H_    0.181003 0.897584 0.405053 0.236662
H27   H     H_    0.006838 0.954779 0.429803 0.228746
H28   H     H_    0.144911 0.999390 0.489543 0.226745

loop_
_geom_bond_atom_site_label_1
_geom_bond_atom_site_label_2
_ccdc_geom_bond_type
C8    C9    D    
C31   O7    A    
C16   C21   A    
C35   C36   A    
C8    H18   S    
Cu1   O3    S    
O11   H24   S    
C31   O8    A    
C1    C18   S    
Cu1   Cu2   S    
S1    O10   D    
C15   H6    S    
C18   C19   A    
C3    C7    A    
C2    H17   S    
C5    C6    A    
C3    H16   S    
C15   C16   A    
C2    C32   A    
C34   C35   A    
C36   H15   S    
Cu2   N1    S    
C10   C31   S    
C19   C20   A    
C16   C17   A    
S1    O11   S    
C34   H19   S    
C37   H21   S    
C20   H7    S    
Cu2   O2    S    
C30   H12   S    
C22   C28   A    
C13   C14   A    
C12   C32   S    
C9    H14   S    
C13   H4    S    
C38   H27   S    
C33   C34   A    
S1    O9    D    
C24   C25   A    
C1    O1    A    
N4    C38   S    
C12   O4    A    
N3    H20   S    
C25   C26   A    
C38   H26   S    
Cu1   O5    S    
C8    C35   S    
C29   C30   A    
C12   O3    A    
C14   C15   A    
Cu2   O6    S    
C30   N2    A    
C37   H23   S    
C17   C18   A    
C26   C27   A    
C20   C21   A    
Cu1   N2    S    
C23   O5    A    
C21   C23   S    
C22   C24   A    
C26   H11   S    
C22   S1    S    
C4    C10   A    
C3    C4    A    
C38   H28   S    
C29   N1    A    
Cu2   O4    S    
C4    H10   S    
C2    C36   A    
C7    C9    S    
C11   C17   A    
C25   N4    S    
C24   H9    S    
C1    O2    A    
C6    C7    A    
C28   N1    A    
C29   H8    S    
C32   C33   A    
C23   O6    A    
C5    C10   A    
C27   N2    A    
C11   C13   A    
C11   H3    S    
Cu1   O7    S    
Cu1   O1    S    
C19   H2    S    
N4    H25   S    
Cu2   O8    S    
N3    C37   S    
C27   C28   A    
C6    H1    S    
C5    H13   S    
C37   H22   S    
C33   N3    S    
C14   H5    S    
