data_mof_unit_32864.cif
_audit_creation_date              2013-03-05T15:49:57-0500
_audit_creation_method            fapswitch 2.2
_symmetry_space_group_name_H-M    P1
_symmetry_Int_Tables_number       1
_space_group_crystal_system       triclinic
_cell_length_a                    6.942917
_cell_length_b                    19.948069
_cell_length_c                    23.711338
_cell_angle_alpha                 93.551859
_cell_angle_beta                  91.431676
_cell_angle_gamma                 88.256418
_cell_volume                      3275.26386707

loop_
_atom_site_label
_atom_site_type_symbol
_atom_site_description
_atom_site_fract_x
_atom_site_fract_y
_atom_site_fract_z
_atom_type_partial_charge
O1    O     O_R   0.620100 0.812200 0.810870 -0.594900
O2    O     O_R   0.379900 0.187800 0.189130 -0.594897
O3    O     O_R   0.296960 0.671650 0.794750 -0.589675
O4    O     O_R   0.703040 0.328350 0.205250 -0.589675
O5    O     O_R   0.120160 0.687800 0.689130 -0.596578
O6    O     O_R   0.879840 0.312200 0.310870 -0.596579
C1    C     C_R   0.469104 0.646874 0.804302 0.927945
C2    C     C_R   0.530896 0.353126 0.195698 0.927943
O7    O     O_R   0.290810 0.810670 0.817290 -0.597748
O8    O     O_R   0.709190 0.189330 0.182710 -0.597747
O9    O     O_R   0.113980 0.827820 0.711840 -0.590637
O10   O     O_R   0.886020 0.172180 0.288160 -0.590636
C3    C     C_R   0.459343 0.831704 0.834215 0.937556
C4    C     C_R   0.540656 0.168296 0.165785 0.937558
O11   O     O_R   0.626290 0.672180 0.788160 -0.590685
O12   O     O_R   0.373710 0.327820 0.211840 -0.590685
O13   O     O_3   0.451520 0.755460 0.715370 -0.274612
O14   O     O_3   0.548480 0.244540 0.284630 -0.274612
V1    V     V_3+5 0.179200 0.748980 0.756420 1.150950
V2    V     V_3+5 0.820800 0.251020 0.243580 1.150949
O15   O     O_R   0.783880 0.828350 0.705250 -0.592028
O16   O     O_R   0.216120 0.171650 0.294750 -0.592026
C5    C     C_R   0.948619 0.852981 0.695007 0.943496
C6    C     C_R   0.051380 0.147020 0.304994 0.943491
O17   O     O_R   0.790030 0.689320 0.682700 -0.599436
O18   O     O_R   0.209970 0.310680 0.317300 -0.599437
C7    C     C_R   0.959084 0.668191 0.665730 0.940406
C8    C     C_R   0.040916 0.331808 0.334270 0.940403
V3    V     V_3+5 0.678400 0.751010 0.743570 1.151579
V4    V     V_3+5 0.321600 0.248990 0.256430 1.151581
O19   O     O_3   0.955950 0.744540 0.784620 -0.270725
O20   O     O_3   0.044050 0.255460 0.215380 -0.270724
C9    C     C_R   0.172834 0.429302 0.393018 -0.252500
C10   C     C_R   0.827166 0.570698 0.606982 -0.252500
C11   C     C_R   0.030857 0.381039 0.383667 -0.122653
C12   C     C_R   0.969143 0.618961 0.616333 -0.122653
C13   C     C_R   0.877446 0.380682 0.420911 -0.249218
C14   C     C_R   0.122554 0.619318 0.579089 -0.249217
C15   C     C_R   0.866146 0.427275 0.467629 0.126966
C16   C     C_R   0.133854 0.572725 0.532371 0.126966
C17   C     C_R   0.007284 0.476407 0.476618 0.011063
C18   C     C_R   0.992716 0.523592 0.523382 0.011062
C19   C     C_R   0.162497 0.478212 0.438800 0.045183
C20   C     C_R   0.837503 0.521788 0.561199 0.045183
C21   C     C_R   0.714386 0.424995 0.505220 -0.247843
C22   C     C_R   0.285614 0.575005 0.494781 -0.247844
C23   C     C_R   0.697441 0.471283 0.552424 0.194582
C24   C     C_R   0.302559 0.528717 0.447576 0.194581
H1    H     H_    0.288713 0.428785 0.363355 0.123019
H2    H     H_    0.711287 0.571214 0.636645 0.123019
H3    H     H_    0.767695 0.343334 0.413879 0.130948
H4    H     H_    0.232304 0.656665 0.586121 0.130948
H5    H     H_    0.609623 0.386401 0.496972 0.152378
H6    H     H_    0.390377 0.613598 0.503028 0.152378
C25   C     C_R   0.938872 0.914997 0.663633 -0.167495
C26   C     C_R   0.061124 0.085004 0.336369 -0.167497
C27   C     C_R   0.778590 0.024545 0.653653 0.206203
C28   C     C_R   0.221347 0.975443 0.346340 0.206208
C29   C     C_R   0.825641 0.968922 0.685420 -0.169696
C30   C     C_R   0.174322 0.031072 0.314577 -0.169691
C31   C     C_R   0.009444 0.916106 0.608844 -0.251357
C32   C     C_R   0.990570 0.083900 0.391160 -0.251346
C33   C     C_R   0.964886 0.970810 0.574239 0.094024
C34   C     C_R   0.035111 0.029192 0.425763 0.094022
C35   C     C_R   0.851011 0.025788 0.597908 0.075800
C36   C     C_R   0.148957 0.974208 0.402091 0.075792
C37   C     C_R   0.025231 0.971902 0.516472 0.079013
C38   C     C_R   0.974769 0.028101 0.483530 0.079016
C39   C     C_R   0.867421 0.081836 0.509687 -0.190494
C40   C     C_R   0.132568 0.918165 0.490314 -0.190496
C41   C     C_R   0.808111 0.080709 0.564993 -0.241206
C42   C     C_R   0.191857 0.919287 0.435006 -0.241192
H7    H     H_    0.726500 0.124318 0.581421 0.127924
H8    H     H_    0.273452 0.875675 0.418576 0.127922
H9    H     H_    0.908907 0.127908 0.406053 0.114671
H10   H     H_    0.091140 0.872106 0.593956 0.114684
H11   H     H_    0.229500 0.034401 0.272639 0.135777
H12   H     H_    0.770454 0.965590 0.727357 0.135769
H13   H     H_    0.825280 0.126354 0.488568 0.126979
H14   H     H_    0.174702 0.873645 0.511433 0.126976
C43   C     C_R   0.490952 0.585508 0.835467 -0.100188
C44   C     C_R   0.509048 0.414492 0.164533 -0.100187
C45   C     C_R   0.605039 0.470057 0.837702 -0.178093
C46   C     C_R   0.394961 0.529943 0.162298 -0.178094
C47   C     C_R   0.566112 0.526988 0.807896 -0.160981
C48   C     C_R   0.433888 0.473012 0.192104 -0.160981
C49   C     C_R   0.455574 0.586973 0.893592 -0.249624
C50   C     C_R   0.544426 0.413027 0.106408 -0.249624
C51   C     C_R   0.499195 0.530014 0.925488 0.108867
C52   C     C_R   0.500804 0.469986 0.074512 0.108868
C53   C     C_R   0.574194 0.471179 0.896020 0.186378
C54   C     C_R   0.425806 0.528821 0.103980 0.186379
C55   C     C_R   0.474648 0.529647 0.985432 0.062381
C56   C     C_R   0.525352 0.470353 0.014568 0.062381
C57   C     C_R   0.597917 0.413363 0.982757 -0.200529
C58   C     C_R   0.402083 0.586637 0.017243 -0.200529
C59   C     C_R   0.621153 0.413940 0.924860 -0.240706
C60   C     C_R   0.378847 0.586060 0.075140 -0.240708
H15   H     H_    0.678370 0.368965 0.902401 0.132784
H16   H     H_    0.321630 0.631035 0.097599 0.132784
H17   H     H_    0.599334 0.366099 0.087381 0.103571
H18   H     H_    0.400666 0.633901 0.912619 0.103573
H19   H     H_    0.403778 0.474382 0.236802 0.103844
H20   H     H_    0.596223 0.525618 0.763198 0.103844
H21   H     H_    0.663220 0.425272 0.815231 0.116678
H22   H     H_    0.336781 0.574728 0.184769 0.116678
H23   H     H_    0.639364 0.367043 0.001304 0.129613
H24   H     H_    0.360636 0.632957 0.998696 0.129612
C61   C     C_R   0.664959 0.066254 0.110819 -0.221836
C62   C     C_R   0.335021 0.933738 0.889188 -0.221897
C63   C     C_R   0.530636 0.119324 0.116298 -0.150627
C64   C     C_R   0.469363 0.880674 0.883704 -0.150615
C65   C     C_R   0.385043 0.125249 0.075287 -0.227907
C66   C     C_R   0.614966 0.874752 0.924712 -0.227907
C67   C     C_R   0.372479 0.079369 0.027463 0.085922
C68   C     C_R   0.627513 0.920626 0.972541 0.085916
C69   C     C_R   0.506213 0.023851 0.023240 -0.064007
C70   C     C_R   0.493774 0.976141 0.976766 -0.063971
C71   C     C_R   0.654902 0.017124 0.065191 0.093099
C72   C     C_R   0.345076 0.982865 0.934818 0.093075
C73   C     C_R   0.229909 0.088330 0.984074 0.117535
C74   C     C_R   0.770064 0.911658 0.015934 0.117505
C75   C     C_R   0.210217 0.038184 0.938977 0.125777
C76   C     C_R   0.789745 0.961799 0.061037 0.125784
H25   H     H_    0.773638 0.063720 0.143966 0.140315
H26   H     H_    0.226333 0.936271 0.856043 0.140373
H27   H     H_    0.283273 0.166806 0.081685 0.144978
H28   H     H_    0.716755 0.833202 0.918308 0.144978
C77   C     C_3   0.109064 0.153774 0.983732 -0.369384
C78   C     C_3   0.929242 0.151261 0.019325 -0.886946
H29   H     H_    0.830749 0.112702 0.000815 0.256905
H30   H     H_    0.967529 0.139254 0.063317 0.262833
H31   H     H_    0.851455 0.200766 0.020393 0.246691
H32   H     H_    0.196404 0.197354 0.998593 0.179423
H33   H     H_    0.065466 0.166555 0.940391 0.199619
C79   C     C_3   0.890891 0.846210 0.016274 -0.369391
C80   C     C_3   0.070755 0.848729 0.980700 -0.886949
H34   H     H_    0.032513 0.860728 0.936703 0.262828
H35   H     H_    0.169213 0.887295 0.999216 0.256906
H36   H     H_    0.148562 0.799227 0.979644 0.246690
H37   H     H_    0.934433 0.833415 0.059616 0.199631
H38   H     H_    0.803559 0.802634 0.001397 0.179423
C81   C     C_3   0.044341 0.043232 0.895569 -0.342234
C82   C     C_3   0.110187 0.072397 0.841271 -0.929569
H39   H     H_    0.160204 0.124375 0.850131 0.256401
H40   H     H_    0.229871 0.041726 0.821900 0.264030
H41   H     H_    0.988222 0.073668 0.810223 0.254132
H42   H     H_    0.979028 0.993585 0.886143 0.181508
H43   H     H_    0.920712 0.074020 0.912082 0.200458
C83   C     C_3   0.955558 0.956724 0.104465 -0.342238
C84   C     C_3   0.889592 0.927543 0.158744 -0.929504
H44   H     H_    0.770150 0.958293 0.178162 0.263998
H45   H     H_    0.839192 0.875618 0.149845 0.256409
H46   H     H_    0.011603 0.926129 0.189770 0.254124
H47   H     H_    0.079188 0.925930 0.087959 0.200449
H48   H     H_    0.020916 0.006360 0.113915 0.181485
C85   C     C_3   0.534216 0.467244 0.594047 -0.349778
C86   C     C_3   0.391987 0.410812 0.581642 -0.906849
H49   H     H_    0.319152 0.415725 0.539890 0.263539
H50   H     H_    0.467269 0.360981 0.582913 0.254201
H51   H     H_    0.279632 0.414071 0.614303 0.254556
H52   H     H_    0.598549 0.460614 0.636812 0.181081
H53   H     H_    0.450030 0.515483 0.595606 0.198086
C87   C     C_3   0.465785 0.532756 0.405953 -0.349778
C88   C     C_3   0.608014 0.589188 0.418358 -0.906850
H54   H     H_    0.532732 0.639019 0.417087 0.254201
H55   H     H_    0.680848 0.584274 0.460111 0.263539
H56   H     H_    0.720369 0.585929 0.385697 0.254556
H57   H     H_    0.549969 0.484516 0.404395 0.198086
H58   H     H_    0.401452 0.539386 0.363188 0.181081
C89   C     C_3   0.645322 0.081396 0.677483 -0.372073
C90   C     C_3   0.555501 0.071455 0.734622 -0.922347
H59   H     H_    0.469403 0.025270 0.732270 0.262154
H60   H     H_    0.668393 0.068724 0.768403 0.255294
H61   H     H_    0.457331 0.114929 0.745987 0.258904
H62   H     H_    0.726858 0.128609 0.681579 0.188324
H63   H     H_    0.523114 0.088223 0.646981 0.196825
C91   C     C_3   0.354537 0.918573 0.322499 -0.372094
C92   C     C_3   0.444291 0.928493 0.265347 -0.922322
H64   H     H_    0.331350 0.931256 0.231581 0.255295
H65   H     H_    0.530486 0.974656 0.267689 0.262144
H66   H     H_    0.542355 0.884993 0.253964 0.258895
H67   H     H_    0.476781 0.911732 0.352986 0.196823
H68   H     H_    0.272948 0.871369 0.318415 0.188325

loop_
_geom_bond_atom_site_label_1
_geom_bond_atom_site_label_2
_geom_bond_distance
_ccdc_geom_bond_type
V4    O20   2.141057 S    
C89   C90   1.531939 S    
C33   C35   1.426854 A    
C55   C56   1.436656 A    
C67   C73   1.425250 A    
C52   C56   1.436233 A    
C25   C29   1.393563 A    
O13   V3    1.697787 S    
C17   C18   1.412875 A    
C87   H58   1.111576 S    
O4    C2    1.299391 A    
V1    O19   1.710247 S    
C64   C66   1.392555 A    
C50   H17   1.076902 S    
C54   C60   1.393050 A    
C15   C17   1.410095 A    
C71   C76   1.425627 A    
C16   C22   1.400563 A    
C80   H35   1.107725 S    
O9    V1    1.983567 S    
C88   H54   1.110635 S    
C68   C74   1.425248 A    
C2    C44   1.470627 S    
C34   C38   1.443994 A    
O16   C6    1.292857 A    
C87   C88   1.530021 S    
C11   C13   1.400962 A    
C46   C48   1.390503 A    
C3    C64   1.481235 S    
O3    C1    1.299391 A    
C69   C71   1.424770 A    
V2    O20   1.710248 S    
C13   H3    1.084563 S    
C27   C29   1.405146 A    
C14   H4    1.084564 S    
C28   C30   1.405160 A    
C81   C82   1.530846 S    
C77   H33   1.106790 S    
C31   C33   1.427406 A    
C84   H46   1.108864 S    
C39   C41   1.385991 A    
O7    C3    1.300705 A    
C79   H38   1.109549 S    
C86   H51   1.110560 S    
C9    C11   1.402892 A    
O5    C7    1.296249 A    
O7    V1    1.995004 S    
C85   C86   1.530022 S    
C36   C42   1.404489 A    
C63   C65   1.392551 A    
C8    C11   1.482748 S    
O8    V2    1.995006 S    
C38   C39   1.407573 A    
C67   C69   1.423720 A    
C58   C60   1.387052 A    
C46   H22   1.083975 S    
C84   H44   1.108635 S    
O3    V1    1.983403 S    
O14   V4    1.697787 S    
C51   C53   1.419911 A    
C19   C24   1.423896 A    
C85   H53   1.109698 S    
O14   V2    2.158998 S    
C91   H67   1.111788 S    
C20   C23   1.423897 A    
C43   C47   1.395649 A    
C15   C21   1.400563 A    
C92   H66   1.110668 S    
C73   C77   1.530554 S    
C16   C18   1.410093 A    
C58   H24   1.076017 S    
C21   H5    1.080877 S    
C2    O12   1.292539 A    
C83   H48   1.109630 S    
C92   H65   1.111185 S    
C86   H50   1.110634 S    
C17   C19   1.421725 A    
C22   H6    1.080876 S    
C87   H57   1.109698 S    
C81   H42   1.109619 S    
C18   C20   1.421725 A    
C82   H41   1.108845 S    
C48   H19   1.083920 S    
C29   H12   1.081105 S    
C59   H15   1.084432 S    
C90   H60   1.109215 S    
O11   V3    1.995313 S    
C33   C37   1.443991 A    
C21   C23   1.411075 A    
C31   H10   1.076131 S    
O17   V3    1.993988 S    
C4    C63   1.481235 S    
C13   C15   1.403362 A    
C80   H36   1.110256 S    
C22   C24   1.411078 A    
C30   H11   1.081107 S    
C10   H2    1.081191 S    
C40   H14   1.075625 S    
C37   C38   1.435464 A    
C9    C19   1.415590 A    
C91   C92   1.531939 S    
C10   C20   1.415590 A    
C42   H8    1.081015 S    
O8    C4    1.300705 A    
C62   C72   1.415944 A    
C41   H7    1.081004 S    
C79   C80   1.528131 S    
C1    O11   1.292539 A    
C35   C41   1.404488 A    
O15   V3    2.004441 S    
C45   H21   1.083975 S    
C34   C36   1.426876 A    
C89   H62   1.111436 S    
C78   H30   1.108766 S    
C79   H37   1.106793 S    
C49   H18   1.076902 S    
C66   H28   1.078704 S    
C52   C54   1.419912 A    
C62   C64   1.391496 A    
O10   V2    1.983568 S    
O1    V3    1.990257 S    
C28   C91   1.531176 S    
C53   C59   1.393050 A    
C74   C79   1.530560 S    
C43   C49   1.404346 A    
C47   H20   1.083920 S    
C57   H23   1.076016 S    
C62   H26   1.078257 S    
O5    V1    1.989899 S    
C82   H40   1.108641 S    
C88   H56   1.110559 S    
C45   C47   1.390503 A    
C50   C52   1.424370 A    
O18   V4    1.993987 S    
C55   C58   1.411775 A    
C60   H16   1.084432 S    
C83   H47   1.105525 S    
O15   C5    1.292855 A    
C86   H49   1.108800 S    
C26   C32   1.401546 A    
C32   H9    1.076153 S    
C39   H13   1.075621 S    
C78   H31   1.110261 S    
O1    C3    1.296641 A    
O12   V4    1.995313 S    
C74   C76   1.425244 A    
C12   C14   1.400962 A    
O6    V2    1.989897 S    
C90   H59   1.111174 S    
C61   C71   1.415941 A    
C90   H61   1.110644 S    
C28   C36   1.427819 A    
C77   C78   1.528126 S    
C23   C85   1.528435 S    
C61   H25   1.078244 S    
C76   C83   1.530524 S    
C57   C59   1.387052 A    
O16   V4    2.004439 S    
C1    C43   1.470627 S    
C27   C35   1.427805 A    
C82   H39   1.109552 S    
C66   C68   1.415103 A    
C72   C75   1.425610 A    
C5    C25   1.481499 S    
C65   H27   1.078704 S    
C7    C12   1.482748 S    
C6    C26   1.481497 S    
C45   C53   1.403274 A    
C80   H34   1.108763 S    
O10   C6    1.302370 A    
O18   C8    1.299873 A    
O2    V4    1.990256 S    
C37   C40   1.407579 A    
C61   C63   1.391502 A    
C32   C34   1.427410 A    
V3    O19   2.141058 S    
C44   C48   1.395649 A    
C69   C70   1.413458 A    
C14   C16   1.403363 A    
C24   C87   1.528435 S    
C44   C50   1.404348 A    
C25   C31   1.401537 A    
O9    C5    1.302371 A    
O13   V1    2.158997 S    
C68   C70   1.423711 A    
C78   H29   1.107720 S    
C10   C12   1.402892 A    
C84   H45   1.109587 S    
C51   C55   1.436231 A    
C56   C57   1.411775 A    
O2    C4    1.296640 A    
C70   C72   1.424760 A    
C77   H32   1.109546 S    
C73   C75   1.425223 A    
C92   H64   1.109225 S    
O4    V2    1.983402 S    
C26   C30   1.393588 A    
O6    C8    1.296249 A    
C81   H43   1.105521 S    
C88   H55   1.108802 S    
C75   C81   1.530482 S    
C49   C51   1.424372 A    
C83   C84   1.530872 S    
C89   H63   1.111781 S    
C40   C42   1.385998 A    
C46   C54   1.403274 A    
C27   C89   1.531127 S    
C9    H1    1.081192 S    
C85   H52   1.111576 S    
C91   H68   1.111451 S    
C65   C67   1.415096 A    
O17   C7    1.299873 A    
