data_mof_unit_41984.cif
_audit_creation_date              2012-12-10T17:44:27-0500
_audit_creation_method            fapswitch 2.2
_symmetry_space_group_name_H-M    P1
_symmetry_Int_Tables_number       1
_space_group_crystal_system       triclinic
_cell_length_a                    9.934125
_cell_length_b                    10.697585
_cell_length_c                    15.35937
_cell_angle_alpha                 92.899271
_cell_angle_beta                  68.230209
_cell_angle_gamma                 88.269607
_cell_volume                      1511.79704116

loop_
_atom_site_label
_atom_site_type_symbol
_atom_type_description
_atom_site_fract_x
_atom_site_fract_y
_atom_site_fract_z
_atom_type_partial_charge
C1    C     C_R   0.497777 0.740259 0.497384 0.915909
C2    C     C_R   0.746889 0.472396 0.025378 0.096127
C3    C     C_R   0.608216 0.428160 0.078539 0.036508
C4    C     C_R   0.410092 0.492828 0.675787 0.922626
C5    C     C_R   0.837450 0.521908 0.070102 0.500813
C6    C     C_R   0.786833 0.524471 0.169325 -0.340653
C7    C     C_R   0.561476 0.437249 0.176237 -0.264498
C8    C     C_R   0.214325 0.900873 0.561813 -0.170106
C9    C     C_R   0.089737 0.972914 0.617164 -0.143971
C10   C     C_R   0.101484 0.093133 0.650892 -0.134831
C11   C     C_R   0.236662 0.144659 0.622436 -0.125937
C12   C     C_R   0.446113 0.402011 0.897447 0.056659
C13   C     C_R   0.362627 0.074901 0.561236 0.102076
C14   C     C_R   0.354888 0.947296 0.540062 0.109939
C15   C     C_R   0.488741 0.874522 0.497304 -0.110849
C16   C     C_R   0.498427 0.261414 0.506256 0.859103
C17   C     C_R   0.621304 0.931514 0.463460 -0.192024
C18   C     C_R   0.624376 0.059039 0.471017 -0.196615
C19   C     C_R   0.495735 0.130341 0.517585 -0.111888
C20   C     C_R   0.777354 0.628619 0.657968 0.148874
C21   C     C_R   0.810779 0.657737 0.737446 -0.414729
C22   C     C_R   0.954589 0.669341 0.728946 0.487751
C23   C     C_R   0.314664 0.344174 0.943619 0.115241
C24   C     C_R   0.061275 0.629723 0.643528 -0.233872
C25   C     C_R   0.031065 0.564399 0.571997 0.031386
C26   C     C_R   0.885157 0.565644 0.574172 0.134101
C27   C     C_R   0.970395 0.438990 0.430366 -0.130853
C28   C     C_R   0.590794 0.497359 0.323816 0.893417
C29   C     C_R   0.113030 0.438571 0.430650 -0.081205
C30   C     C_R   0.363036 0.454296 0.772659 -0.105141
C31   C     C_R   0.648492 0.486006 0.221306 -0.099222
C32   C     C_R   0.213234 0.332402 0.899155 0.194351
C33   C     C_R   0.237013 0.389336 0.814620 -0.213742
C34   C     C_R   0.553417 0.407777 0.937129 0.093448
C35   C     C_R   0.463934 0.461245 0.815626 -0.267109
C36   C     C_3   0.050798 0.622774 0.062485 0.050406
C37   C     C_3   0.182996 0.681952 0.993251 -0.279075
C38   C     C_3   0.292928 0.714523 0.037626 -0.955816
C39   C     C_3   0.892586 0.785801 0.876660 0.134698
C40   C     C_3   0.847905 0.914437 0.852807 -0.395753
C41   C     C_3   0.730518 0.982739 0.938099 -0.876138
C42   C     C_R   0.515184 0.386353 0.032709 0.096229
C43   C     C_R   0.383851 0.327516 0.078667 -0.251175
C44   C     C_R   0.287951 0.302704 0.033322 -0.211661
C45   C     C_R   0.697339 0.435570 0.884037 -0.273700
C46   C     C_R   0.792588 0.467095 0.927455 -0.175229
H1    H     H_    0.189309 0.257544 0.071508 0.182020
H2    H     H_    0.454398 0.411103 0.219230 0.156785
H3    H     H_    0.168615 0.654558 0.633711 0.231800
H4    H     H_    0.200419 0.387682 0.374020 0.133115
H5    H     H_    0.850987 0.559503 0.207797 0.142281
H6    H     H_    0.900821 0.491265 0.883818 0.217882
H7    H     H_    0.159909 0.379036 0.780510 0.162520
H8    H     H_    0.556435 0.516492 0.785208 0.186182
H9    H     H_    0.354274 0.296730 0.148860 0.145785
H10   H     H_    0.738177 0.431858 0.808200 0.167441
H11   H     H_    0.088461 0.548488 0.097733 0.165842
H12   H     H_    0.723094 0.877216 0.429154 0.166476
H13   H     H_    0.985694 0.699037 0.114452 0.129807
H14   H     H_    0.236225 0.616383 0.931023 0.258819
H15   H     H_    0.147832 0.768594 0.968947 0.223164
H16   H     H_    0.242698 0.782773 0.099155 0.263885
H17   H     H_    0.387268 0.756848 0.985250 0.273364
H18   H     H_    0.332539 0.628770 0.060520 0.268769
H19   H     H_    0.940575 0.802984 0.930566 0.182478
H20   H     H_    0.798905 0.728255 0.911448 0.133396
H21   H     H_    0.944489 0.972133 0.828864 0.257654
H22   H     H_    0.806046 0.904330 0.795321 0.235045
H23   H     H_    0.194803 0.813835 0.532085 0.169414
H24   H     H_    0.631228 0.928283 0.961553 0.257838
H25   H     H_    0.702515 0.076238 0.919230 0.283650
H26   H     H_    0.769726 0.996117 0.996736 0.275181
H27   H     H_    0.983853 0.935275 0.633419 0.152577
H28   H     H_    0.005391 0.148250 0.695935 0.150749
H29   H     H_    0.241878 0.239554 0.647869 0.145738
H30   H     H_    0.726980 0.102043 0.438167 0.164720
H31   H     H_    0.951031 0.388667 0.373595 0.137006
H32   H     H_    0.723163 0.688354 0.802357 0.184093
I1    I     I_    0.608135 0.768719 0.678692 -0.403716
I2    I     I_    0.031548 0.219235 0.949221 -0.475438
N1    N     N_R   0.856800 0.501200 0.500850 -0.102290
N2    N     N_R   0.142390 0.501280 0.500880 -0.102545
O1    O     O_R   0.385310 0.683220 0.500000 -0.655242
O2    O     O_3   0.001171 0.721003 0.797946 -0.636044
O3    O     O_R   0.614640 0.683250 0.500010 -0.581146
O4    O     O_R   0.319840 0.499980 0.632240 -0.639016
O5    O     O_R   0.549160 0.500000 0.632250 -0.595561
O6    O     O_R   0.385360 0.316750 0.499990 -0.619741
O7    O     O_R   0.614690 0.316780 0.500000 -0.614444
O8    O     O_R   0.450840 0.500000 0.367750 -0.617884
O9    O     O_R   0.680160 0.500020 0.367760 -0.618800
O10   O     O_3   0.969308 0.569049 0.013148 -0.657865
Zn1   Zn    Zn3+2 0.346880 0.499980 0.499990 0.927712
Zn2   Zn    Zn3+2 0.653120 0.500020 0.500010 0.962672

loop_
_geom_bond_atom_site_label_1
_geom_bond_atom_site_label_2
_ccdc_geom_bond_type
C3    C42   A    
C27   C29   A    
C11   C13   A    
C34   C42   A    
C36   H13   S    
C4    O5    A    
C45   C46   A    
C2    C46   A    
C12   C23   A    
C8    H23   S    
C30   C35   A    
C36   C37   S    
C39   O2    S    
C3    C7    A    
C5    C6    A    
C4    O4    A    
C7    H2    S    
O1    Zn1   S    
O5    Zn2   S    
C46   H6    S    
C18   C19   A    
O7    Zn2   S    
C45   H10   S    
C8    C9    A    
C40   H21   S    
C21   H32   S    
C8    C14   A    
C1    C15   S    
C6    H5    S    
C9    C10   A    
C30   C33   A    
C44   H1    S    
C17   H12   S    
C41   H25   S    
C36   O10   S    
C6    C31   A    
C16   O7    A    
N2    Zn1   S    
C21   C22   A    
C35   H8    S    
C1    O3    A    
C39   H19   S    
C9    H27   S    
C38   H18   S    
C29   H4    S    
C33   H7    S    
C7    C31   A    
C13   C19   A    
C37   H14   S    
C27   N1    A    
C24   C25   A    
C36   H11   S    
C39   C40   S    
C25   C26   A    
C23   C44   A    
C22   O2    S    
C43   C44   A    
C37   C38   S    
O4    Zn1   S    
C32   I2    S    
O3    Zn2   S    
C17   C18   A    
C34   C45   A    
C12   C35   A    
C41   H26   S    
C43   H9    S    
C40   C41   S    
C26   N1    A    
C25   N2    A    
C39   H20   S    
C22   C24   A    
C2    C5    A    
C42   C43   A    
C12   C34   A    
O8    Zn1   S    
C38   H17   S    
C24   H3    S    
C15   C17   A    
O6    Zn1   S    
C18   H30   S    
C20   I1    S    
C28   C31   S    
C27   H31   S    
C37   H15   S    
C1    O1    A    
C32   C33   A    
C2    C3    A    
C29   N2    A    
C11   H29   S    
C23   C32   A    
O9    Zn2   S    
N1    Zn2   S    
C10   H28   S    
C20   C26   A    
C16   C19   S    
C28   O9    A    
C5    O10   S    
C10   C11   A    
C20   C21   A    
C40   H22   S    
C16   O6    A    
C14   C15   A    
C28   O8    A    
C13   C14   A    
C4    C30   S    
C41   H24   S    
C38   H16   S    
