data_mof_unit_46088.cif
_audit_creation_date              2012-10-26T20:00:13-0400
_audit_creation_method            fapswitch 2.2
_symmetry_space_group_name_H-M    P1
_symmetry_Int_Tables_number       1
_space_group_crystal_system       triclinic
_cell_length_a                    23.531145
_cell_length_b                    10.950753
_cell_length_c                    9.635211
_cell_angle_alpha                 90.418464
_cell_angle_beta                  89.831096
_cell_angle_gamma                 90.344367
_cell_volume                      2482.71583365

loop_
_atom_site_label
_atom_site_type_symbol
_atom_type_description
_atom_site_fract_x
_atom_site_fract_y
_atom_site_fract_z
_atom_type_partial_charge
C1    C     C_R   0.497418 0.265753 0.499224 0.575356
C2    C     C_R   0.120979 0.631097 0.539216 0.475103
C3    C     C_R   0.240603 0.573465 0.395432 0.222719
C4    C     C_R   0.390953 0.500711 0.500360 0.544838
C5    C     C_R   0.299843 0.564247 0.393808 -0.154339
C6    C     C_R   0.328625 0.506500 0.501852 -0.082745
C7    C     C_R   0.297849 0.457141 0.613032 -0.151020
C8    C     C_R   0.238336 0.466967 0.618187 0.285203
C9    C     C_R   0.209738 0.523291 0.507738 0.229380
C10   C     C_R   0.763521 0.481615 0.376106 0.282511
C11   C     C_R   0.704454 0.455521 0.383728 0.189351
C12   C     C_R   0.969436 0.307585 0.483279 -0.074931
C13   C     C_R   0.672403 0.502559 0.498010 -0.046506
C14   C     C_R   0.701311 0.559766 0.609912 0.198267
C15   C     C_R   0.760335 0.562210 0.611701 -0.094470
C16   C     C_R   0.501558 0.735355 0.501717 0.526375
C17   C     C_R   0.791607 0.525949 0.495739 0.127129
C18   C     C_2   0.496059 0.932821 0.392154 -0.122935
C19   C     C_2   0.505925 0.868956 0.508391 0.257140
C20   C     C_2   0.500863 0.066282 0.387531 -0.131854
C21   C     C_2   0.488761 0.135657 0.498523 -0.062735
C22   C     C_2   0.466640 0.428112 0.920410 0.384801
C23   C     C_R   0.028727 0.305330 0.473922 0.266171
C24   C     C_2   0.460265 0.449050 0.077289 -0.050407
C25   C     C_R   0.609309 0.498231 0.499531 0.610921
C26   C     C_R   0.880819 0.637258 0.516735 0.468584
C27   C     C_R   0.880952 0.419515 0.501259 0.461234
C28   C     C_R   0.940237 0.417996 0.499171 -0.000267
C29   C     C_R   0.970555 0.528736 0.513338 -0.075811
C30   C     C_R   0.940968 0.641027 0.528612 0.031952
C31   C     C_3   0.653392 0.725313 0.696178 0.031556
C32   C     C_3   0.698730 0.821052 0.733359 -0.276001
C33   C     C_3   0.675438 0.950230 0.719984 -0.412134
C34   C     C_R   0.059915 0.415191 0.490773 0.043113
C35   C     C_3   0.504003 0.895987 0.754898 0.008460
C36   C     C_3   0.438229 0.892108 0.759543 -0.272347
C37   C     C_3   0.417279 0.832081 0.892929 -0.458042
C38   C     C_3   0.399811 0.264415 0.926872 -0.019642
C39   C     C_3   0.429313 0.169800 0.018707 -0.282446
C40   C     C_3   0.386198 0.102396 0.109051 -0.473468
C41   C     C_3   0.047318 0.144294 0.328786 0.035699
C42   C     C_3   0.086146 0.034086 0.309111 -0.215038
C43   C     C_3   0.076817 0.972574 0.168340 -0.430610
C44   C     C_3   0.224322 0.436262 0.856191 0.030958
C45   C     C_R   0.030615 0.526263 0.513411 -0.075041
C46   C     C_3   0.237995 0.316769 0.929969 -0.268454
C47   C     C_3   0.252572 0.337529 0.082658 -0.457266
C48   C     C_R   0.061402 0.634690 0.537027 -0.003335
C49   C     C_R   0.032464 0.744352 0.558864 -0.096886
C50   C     C_R   0.973056 0.750353 0.553827 0.251041
C51   C     C_R   0.119755 0.418118 0.485013 0.458640
Cu1   Cu    Cu3+1 0.500010 0.500020 0.638630 1.030021
Cu2   Cu    Cu3+1 0.499990 0.499980 0.361370 0.981640
H1    H     H_    0.946294 0.222002 0.476686 0.187387
H2    H     H_    0.323753 0.604024 0.308977 0.170722
H3    H     H_    0.320042 0.408546 0.693797 0.137023
H4    H     H_    0.608552 0.208893 0.273348 0.355308
H5    H     H_    0.615654 0.741289 0.762826 0.163992
H6    H     H_    0.639038 0.737360 0.586808 0.123707
H7    H     H_    0.713190 0.806860 0.841740 0.207397
H8    H     H_    0.735873 0.811262 0.662836 0.202652
H9    H     H_    0.660977 0.966564 0.612062 0.195522
H10   H     H_    0.709303 0.017605 0.745844 0.197897
H11   H     H_    0.639215 0.963976 0.792525 0.166457
H12   H     H_    0.782177 0.596784 0.702850 0.171832
H13   H     H_    0.517878 0.966256 0.831414 0.140155
H14   H     H_    0.523092 0.810896 0.794337 0.150034
H15   H     H_    0.421190 0.986226 0.754623 0.140197
H16   H     H_    0.420015 0.839808 0.671145 0.172468
H17   H     H_    0.428955 0.733935 0.893137 0.159907
H18   H     H_    0.370301 0.839120 0.899899 0.171979
H19   H     H_    0.436360 0.877416 0.985189 0.136702
H20   H     H_    0.373050 0.212993 0.851511 0.146226
H21   H     H_    0.369690 0.323299 0.984754 0.103218
H22   H     H_    0.452022 0.103409 0.951734 0.162128
H23   H     H_    0.485217 0.886598 0.295556 0.101103
H24   H     H_    0.461505 0.212885 0.087262 0.171957
H25   H     H_    0.365386 0.167301 0.181977 0.157163
H26   H     H_    0.408097 0.031607 0.170590 0.149270
H27   H     H_    0.353362 0.057283 0.043480 0.164040
H28   H     H_    0.057618 0.212412 0.246701 0.133031
H29   H     H_    0.002443 0.113280 0.317148 0.166944
H30   H     H_    0.131246 0.064028 0.317300 0.215228
H31   H     H_    0.077525 0.966713 0.392199 0.215051
H32   H     H_    0.032217 0.939724 0.159154 0.189333
H33   H     H_    0.105586 0.893026 0.157693 0.226642
H34   H     H_    0.514041 0.107439 0.290360 0.128136
H35   H     H_    0.086183 0.037613 0.083220 0.162957
H36   H     H_    0.889198 0.018812 0.469547 0.385356
H37   H     H_    0.145667 0.515255 0.193396 0.330071
H38   H     H_    0.188535 0.481193 0.911617 0.197162
H39   H     H_    0.261177 0.500523 0.863151 0.141912
H40   H     H_    0.200754 0.254065 0.923235 0.201707
H41   H     H_    0.274269 0.272019 0.876791 0.150026
H42   H     H_    0.287322 0.405863 0.093972 0.166101
H43   H     H_    0.266463 0.250223 0.129074 0.152904
H44   H     H_    0.214661 0.369746 0.140405 0.177872
H45   H     H_    0.470987 0.097661 0.592198 0.151102
H46   H     H_    0.783189 0.481765 0.997857 0.371950
H47   H     H_    0.517232 0.573508 0.895450 0.159038
H48   H     H_    0.423116 0.415515 0.131412 0.137284
H49   H     H_    0.536917 0.521874 0.104882 0.240336
H50   H     H_    0.056660 0.826741 0.579358 0.197048
N1    N     N_R   0.852649 0.527926 0.504009 -0.379100
N2    N     N_R   0.148718 0.524793 0.509433 -0.361797
N3    N     N_2   0.499380 0.498660 0.846910 -0.305543
N4    N     N_2   0.499370 0.498630 0.153040 -0.366467
O1    O     O_R   0.500010 0.321960 0.617040 -0.432728
O2    O     O_R   0.582130 0.500060 0.617050 -0.451095
O3    O     O_R   0.582110 0.500020 0.382900 -0.439102
O4    O     O_2   0.850264 0.740624 0.514180 -0.393780
O5    O     O_2   0.644966 0.419200 0.148765 -0.242453
O6    O     O_2   0.716399 0.265104 0.203390 -0.188390
O7    O     O_3   0.623734 0.264577 0.345885 -0.526055
O8    O     O_3   0.672700 0.605800 0.724339 -0.521178
O9    O     O_3   0.528289 0.929433 0.624960 -0.595044
O10   O     O_3   0.439126 0.333469 0.848518 -0.522749
O11   O     O_3   0.056242 0.194189 0.462696 -0.486907
O12   O     O_2   0.851515 0.313269 0.499330 -0.448730
O13   O     O_2   0.900244 0.887747 0.702286 -0.221060
O14   O     O_2   0.987533 0.988557 0.624892 -0.276963
O15   O     O_3   0.909995 0.944367 0.440877 -0.469456
O16   O     O_2   0.203875 0.784989 0.296408 -0.221144
O17   O     O_2   0.241748 0.640112 0.127150 -0.338172
O18   O     O_3   0.140883 0.599883 0.227888 -0.511462
O19   O     O_3   0.205944 0.409118 0.719465 -0.537753
O20   O     O_2   0.848634 0.564958 0.213365 -0.263918
O21   O     O_2   0.828226 0.345858 0.204213 -0.204611
O22   O     O_3   0.758921 0.493799 0.080964 -0.442940
O23   O     O_2   0.149116 0.315865 0.454526 -0.441877
O24   O     O_2   0.151062 0.732984 0.570085 -0.452639
O25   O     O_R   0.499990 0.321920 0.382900 -0.490146
O26   O     O_R   0.417890 0.499980 0.617100 -0.473469
O27   O     O_R   0.417870 0.499940 0.382950 -0.514772
O28   O     O_R   0.500010 0.678080 0.617100 -0.530455
O29   O     O_R   0.499990 0.678040 0.382960 -0.520890
S1    S     S_3+6 0.672847 0.350049 0.263998 0.087937
S2    S     S_3+6 0.942615 0.896491 0.585593 0.052450
S3    S     S_3+6 0.207146 0.652037 0.257875 0.003307
S4    S     S_3+6 0.802103 0.470366 0.216868 0.106085

loop_
_geom_bond_atom_site_label_1
_geom_bond_atom_site_label_2
_ccdc_geom_bond_type
Cu2   O3    S    
C22   O10   S    
C1    C21   S    
C41   C42   S    
O17   S3    D    
C35   C36   S    
C1    O25   A    
C23   O11   S    
C7    C8    A    
O18   S3    S    
C46   H40   S    
C12   C23   A    
C44   O19   S    
C34   C51   A    
C12   C28   A    
C43   H35   S    
C39   H24   S    
C31   H5    S    
C36   C37   S    
C17   N1    S    
C32   H8    S    
C24   H48   S    
C16   C19   S    
C38   C39   S    
H36   O15   S    
C10   C17   A    
C9    N2    S    
C14   O8    S    
C15   H12   S    
C20   H34   S    
O16   S3    D    
C27   N1    A    
C18   C19   D    
O7    S1    S    
C31   H6    S    
C26   N1    A    
C38   O10   S    
C33   H9    S    
C47   H43   S    
C40   H27   S    
C39   H22   S    
C41   O11   S    
C18   C20   S    
C44   H39   S    
C25   O2    A    
C30   C50   A    
Cu1   N3    S    
C13   C14   A    
Cu1   O26   S    
C13   C25   S    
Cu2   O29   S    
C10   S4    S    
C7    H3    S    
C31   O8    S    
C51   O23   S    
C44   C46   S    
H46   O22   S    
C43   H32   S    
C35   O9    S    
C42   H31   S    
O15   S2    S    
C4    C6    S    
C39   C40   S    
Cu2   O25   S    
C8    C9    A    
C35   H13   S    
C2    C48   A    
C22   N3    D    
C29   C45   A    
O14   S2    D    
C29   C30   A    
C3    C9    A    
Cu2   N4    S    
C31   C32   S    
C46   H41   S    
C35   H14   S    
C33   H10   S    
C23   C34   A    
C41   H28   S    
C36   H15   S    
C2    O24   S    
C40   H26   S    
H49   N4    S    
C24   N4    D    
Cu1   Cu2   S    
Cu1   O2    S    
C6    C7    A    
C44   H38   S    
C34   C45   A    
C25   O3    A    
C8    O19   S    
C48   C49   A    
C26   C30   A    
C37   H18   S    
C22   C24   S    
C3    S3    S    
C42   C43   S    
C32   H7    S    
C16   O29   A    
C36   H16   S    
C4    O27   A    
C38   H21   S    
C45   C48   A    
C15   C17   A    
C46   C47   S    
C28   C29   A    
C18   H23   S    
C43   H33   S    
O5    S1    D    
C5    H2    S    
Cu2   O27   S    
C3    C5    A    
C49   H50   S    
C50   S2    S    
H4    O7    S    
C27   O12   S    
C2    N2    A    
H47   N3    S    
C47   H44   S    
O6    S1    D    
C32   C33   S    
C42   H30   S    
C21   H45   S    
C11   C13   A    
C5    C6    A    
O22   S4    S    
C19   O9    S    
C33   H11   S    
C41   H29   S    
H37   O18   S    
C40   H25   S    
O21   S4    D    
C51   N2    A    
C10   C11   A    
C1    O1    A    
C11   S1    S    
O13   S2    D    
C20   C21   D    
Cu1   O1    S    
C49   C50   A    
O20   S4    D    
C37   H19   S    
C27   C28   A    
Cu1   O28   S    
C47   H42   S    
C14   C15   A    
C37   H17   S    
C16   O28   A    
C26   O4    S    
C12   H1    S    
C4    O26   A    
C38   H20   S    
