data_mof_unit_48721.cif
_audit_creation_date              2012-12-11T15:56:42-0500
_audit_creation_method            fapswitch 2.2
_symmetry_space_group_name_H-M    P1
_symmetry_Int_Tables_number       1
_space_group_crystal_system       triclinic
_cell_length_a                    17.400211
_cell_length_b                    24.481626
_cell_length_c                    14.895712
_cell_angle_alpha                 89.936736
_cell_angle_beta                  125.834808
_cell_angle_gamma                 90.008273
_cell_volume                      5144.2292152

loop_
_atom_site_label
_atom_site_type_symbol
_atom_type_description
_atom_site_fract_x
_atom_site_fract_y
_atom_site_fract_z
_atom_type_partial_charge
C1    C     C_R   0.307671 0.122141 0.907372 -0.233749
C2    C     C_R   0.557153 0.151090 0.906441 -0.074275
C3    C     C_R   0.807758 0.366223 0.998470 -0.156863
C4    C     C_R   0.578462 0.999898 0.374509 -0.003549
C5    C     C_R   0.078461 0.499898 0.374509 -0.003548
C6    C     C_R   0.198074 0.000147 0.627733 -0.301128
C7    C     C_R   0.698074 0.500147 0.627733 -0.301128
C8    C     C_R   0.520918 0.045733 0.752730 -0.134274
C9    C     C_R   0.521117 0.954148 0.753170 -0.125262
C10   C     C_R   0.020918 0.545733 0.752730 -0.134274
C11   C     C_R   0.021117 0.454148 0.753170 -0.125262
C12   C     C_R   0.769657 0.953974 0.249576 -0.129143
C13   C     C_R   0.054440 0.348050 0.907008 -0.093542
C14   C     C_R   0.769714 0.045945 0.249770 -0.127219
C15   C     C_R   0.269657 0.453975 0.249576 -0.129143
C16   C     C_R   0.269714 0.545945 0.249770 -0.127219
C17   C     C_R   0.057153 0.651091 0.906441 -0.074282
C18   C     C_R   0.551960 0.999893 0.727534 0.129348
C19   C     C_R   0.051961 0.499893 0.727534 0.129347
C20   C     C_R   0.824609 0.999948 0.273871 0.037040
C21   C     C_R   0.324609 0.499948 0.273871 0.037040
C22   C     C_R   0.622811 0.181243 0.996847 0.001344
C23   C     C_R   0.617423 0.816954 0.997535 -0.003033
C24   C     C_R   0.122810 0.681244 0.996847 0.001343
C25   C     C_R   0.306494 0.879833 0.906917 -0.211336
C26   C     C_R   0.117422 0.316954 0.997535 -0.003033
C27   C     C_3   0.031148 0.955326 0.501314 -0.161272
C28   C     C_3   0.030936 0.044979 0.500506 -0.162439
C29   C     C_3   0.531149 0.455326 0.501314 -0.161272
C30   C     C_3   0.530936 0.544979 0.500506 -0.162438
C31   C     C_3   0.959481 0.000167 0.475883 -0.145252
C32   C     C_3   0.459481 0.500167 0.475883 -0.145254
C33   C     C_3   0.926121 0.999941 0.355212 0.188221
C34   C     C_3   0.426121 0.499941 0.355212 0.188221
C35   C     C_3   0.996874 0.954909 0.379458 -0.166299
C36   C     C_R   0.807670 0.622141 0.907372 -0.233749
C37   C     C_3   0.996664 0.044937 0.378643 -0.165343
C38   C     C_3   0.496874 0.454909 0.379458 -0.166299
C39   C     C_3   0.496664 0.544937 0.378643 -0.165343
C40   C     C_3   0.070125 0.999903 0.405124 -0.135144
C41   C     C_3   0.570125 0.499903 0.405124 -0.135143
C42   C     C_R   0.398549 0.879188 0.091088 0.497029
C43   C     C_R   0.402665 0.125845 0.092363 0.477535
C44   C     C_R   0.898549 0.379188 0.091088 0.497027
C45   C     C_R   0.902664 0.625845 0.092363 0.477534
C46   C     C_3   0.102543 0.000140 0.525401 0.199014
C47   C     C_R   0.806494 0.379834 0.906917 -0.211335
C48   C     C_3   0.602543 0.500139 0.525401 0.199013
C49   C     C_3   0.229614 0.824503 0.082748 -0.406145
C50   C     C_3   0.238976 0.177136 0.090619 -0.351297
C51   C     C_3   0.729608 0.324505 0.082740 -0.406143
C52   C     C_3   0.738974 0.677135 0.090616 -0.351299
C53   C     C_3   0.668858 0.275630 0.072103 -0.500316
C54   C     C_3   0.678316 0.725208 0.083326 -0.528797
C55   C     C_3   0.168863 0.775630 0.072109 -0.500319
C56   C     C_3   0.178317 0.225208 0.083328 -0.528798
C57   C     C_3   0.812986 0.267531 0.021271 -0.403745
C58   C     C_R   0.652524 0.151033 0.090639 -0.159454
C59   C     C_3   0.806174 0.735759 0.009745 -0.409211
C60   C     C_3   0.312982 0.767531 0.021263 -0.403748
C61   C     C_3   0.306172 0.235759 0.009743 -0.409211
C62   C     C_3   0.155207 0.813002 0.880055 -0.531374
C63   C     C_3   0.151805 0.183747 0.885404 -0.548075
C64   C     C_3   0.655211 0.312999 0.880051 -0.531376
C65   C     C_3   0.651806 0.683749 0.885402 -0.548079
C66   C     C_3   0.251893 0.819596 0.995878 0.404379
C67   C     C_3   0.252805 0.181953 0.996649 0.388643
C68   C     C_3   0.751893 0.319596 0.995878 0.404379
C69   C     C_R   0.649590 0.848114 0.090846 -0.138544
C70   C     C_3   0.752805 0.681953 0.996648 0.388646
C71   C     C_3   0.665163 0.232286 0.993648 0.274703
C72   C     C_3   0.661821 0.766753 0.994566 0.274027
C73   C     C_3   0.165162 0.732287 0.993649 0.274704
C74   C     C_3   0.161821 0.266753 0.994566 0.274027
C75   C     C_3   0.767464 0.218077 0.034397 -0.412742
C76   C     C_3   0.759073 0.784178 0.022770 -0.410322
C77   C     C_3   0.267460 0.718076 0.034389 -0.412739
C78   C     C_3   0.259071 0.284178 0.022767 -0.410321
C79   C     C_3   0.609086 0.258360 0.874922 0.376507
C80   C     C_R   0.152523 0.651033 0.090639 -0.159452
C81   C     C_3   0.601624 0.736975 0.879171 0.387991
C82   C     C_3   0.109081 0.758363 0.874925 0.376508
C83   C     C_3   0.101622 0.236973 0.879173 0.387992
C84   C     C_3   0.625293 0.051012 0.647426 0.427723
C85   C     C_3   0.617762 0.946188 0.641833 0.402682
C86   C     C_3   0.125293 0.551012 0.647426 0.427723
C87   C     C_3   0.117762 0.446188 0.641832 0.402682
C88   C     C_R   0.556396 0.044890 0.308583 -0.101580
C89   C     C_R   0.558249 0.954991 0.309214 -0.107454
C90   C     C_R   0.056396 0.544891 0.308583 -0.101579
C91   C     C_R   0.149589 0.348113 0.090846 -0.138544
C92   C     C_R   0.058249 0.454991 0.309214 -0.107456
C93   C     C_3   0.630516 0.051540 0.547094 -0.569933
C94   C     C_3   0.632867 0.949014 0.549548 -0.551790
C95   C     C_3   0.130516 0.551540 0.547094 -0.569934
C96   C     C_3   0.132867 0.449014 0.549548 -0.551789
C97   C     C_3   0.468344 0.002116 0.529689 -0.639683
C98   C     C_3   0.968344 0.502116 0.529689 -0.639683
C99   C     C_3   0.568517 0.999746 0.641141 0.184090
C100  C     C_3   0.068517 0.499746 0.641141 0.184092
C101  C     C_3   0.580894 0.999845 0.474997 0.326443
C102  C     C_R   0.554440 0.848050 0.907008 -0.093540
C103  C     C_3   0.080894 0.499845 0.474997 0.326442
C104  C     C_3   0.475651 0.999237 0.432991 -0.373754
C105  C     C_3   0.975651 0.499237 0.432991 -0.373754
C106  C     C_R   0.245245 0.954662 0.691757 0.451925
C107  C     C_R   0.245060 0.045540 0.691962 0.457131
C108  C     C_R   0.745245 0.454662 0.691757 0.451923
C109  C     C_R   0.745060 0.545540 0.691961 0.457130
C110  C     C_R   0.311225 0.137281 0.999849 -0.083361
C111  C     C_R   0.307758 0.866223 0.998470 -0.156863
C112  C     C_R   0.811225 0.637281 0.999849 -0.083361
H1    H     H_    0.250207 0.126967 0.821447 0.183231
H2    H     H_    0.807364 0.678248 0.173721 0.230544
H3    H     H_    0.923402 0.467693 0.523120 0.199974
H4    H     H_    0.575851 0.086165 0.337913 0.121308
H5    H     H_    0.579236 0.913531 0.338012 0.157497
H6    H     H_    0.075852 0.586165 0.337913 0.121307
H7    H     H_    0.079236 0.413531 0.338012 0.157497
H8    H     H_    0.436424 0.034428 0.376551 0.185148
H9    H     H_    0.440396 0.961233 0.384931 0.169516
H10   H     H_    0.936425 0.534428 0.376552 0.185149
H11   H     H_    0.940396 0.461233 0.384931 0.169516
H12   H     H_    0.194368 0.902747 0.572092 0.317653
H13   H     H_    0.095917 0.789717 0.038815 0.162335
H14   H     H_    0.194124 0.097731 0.572516 0.317256
H15   H     H_    0.694368 0.402747 0.572092 0.317653
H16   H     H_    0.694124 0.597731 0.572516 0.317256
H17   H     H_    0.792964 0.911938 0.265597 0.098530
H18   H     H_    0.793213 0.087916 0.266302 0.099443
H19   H     H_    0.292964 0.411938 0.265597 0.098530
H20   H     H_    0.293213 0.587916 0.266302 0.099443
H21   H     H_    0.109045 0.209826 0.061220 0.168608
H22   H     H_    0.595911 0.289717 0.038804 0.162334
H23   H     H_    0.609043 0.709826 0.061216 0.168608
H24   H     H_    0.885816 0.271943 0.098672 0.200239
H25   H     H_    0.881557 0.734673 0.082866 0.195258
H26   H     H_    0.385813 0.771942 0.098661 0.200233
H27   H     H_    0.381555 0.234674 0.082862 0.195256
H28   H     H_    0.107463 0.847589 0.865013 0.147440
H29   H     H_    0.248896 0.875930 0.820899 0.181980
H30   H     H_    0.110002 0.147737 0.879508 0.149851
H31   H     H_    0.607465 0.347586 0.865000 0.147440
H32   H     H_    0.610002 0.647738 0.879503 0.149852
H33   H     H_    0.820652 0.260184 0.953114 0.158641
H34   H     H_    0.806459 0.742000 0.935878 0.153622
H35   H     H_    0.320642 0.760185 0.953102 0.158642
H36   H     H_    0.306456 0.241999 0.935874 0.153622
H37   H     H_    0.768840 0.182814 0.988212 0.181315
H38   H     H_    0.751989 0.818398 0.969061 0.172539
H39   H     H_    0.268832 0.682815 0.988200 0.181317
H40   H     H_    0.750206 0.626967 0.821447 0.183231
H41   H     H_    0.251986 0.318397 0.969056 0.172539
H42   H     H_    0.586179 0.088569 0.640126 0.088891
H43   H     H_    0.569736 0.910929 0.622455 0.051359
H44   H     H_    0.086180 0.588569 0.640127 0.088889
H45   H     H_    0.069735 0.410929 0.622455 0.051357
H46   H     H_    0.594380 0.089188 0.498446 0.162410
H47   H     H_    0.605221 0.910490 0.501471 0.146515
H48   H     H_    0.094381 0.589187 0.498446 0.162410
H49   H     H_    0.105221 0.410490 0.501470 0.146515
H50   H     H_    0.526950 0.087982 0.737238 0.118217
H51   H     H_    0.748895 0.375932 0.820899 0.181980
H52   H     H_    0.527954 0.911819 0.738918 0.115507
H53   H     H_    0.026950 0.587982 0.737238 0.118214
H54   H     H_    0.027954 0.411819 0.738919 0.115505
H55   H     H_    0.697297 0.164608 0.175699 0.092465
H56   H     H_    0.694555 0.835027 0.176252 0.095315
H57   H     H_    0.197297 0.664608 0.175699 0.092465
H58   H     H_    0.194555 0.335027 0.176252 0.095314
H59   H     H_    0.505745 0.835438 0.821970 0.165490
H60   H     H_    0.509384 0.164043 0.821313 0.152363
H61   H     H_    0.005745 0.335438 0.821970 0.165492
H62   H     H_    0.118297 0.999807 0.379155 0.114974
H63   H     H_    0.009383 0.664043 0.821313 0.152369
H64   H     H_    0.912379 0.000263 0.503445 0.115623
H65   H     H_    0.412379 0.500262 0.503445 0.115623
H66   H     H_    0.045234 0.918742 0.553006 0.132312
H67   H     H_    0.044775 0.081753 0.551491 0.132884
H68   H     H_    0.545234 0.418742 0.553006 0.132311
H69   H     H_    0.544775 0.581753 0.551491 0.132884
H70   H     H_    0.980303 0.918186 0.327410 0.115140
H71   H     H_    0.979912 0.081466 0.325906 0.116078
H72   H     H_    0.480303 0.418186 0.327410 0.115140
H73   H     H_    0.618297 0.499807 0.379154 0.114974
H74   H     H_    0.479912 0.581466 0.325906 0.116078
H75   H     H_    0.192511 0.863590 0.072028 0.154032
H76   H     H_    0.204012 0.137742 0.083768 0.148922
H77   H     H_    0.692500 0.363591 0.072012 0.154033
H78   H     H_    0.704009 0.637742 0.083763 0.148922
H79   H     H_    0.699763 0.258470 0.155876 0.178299
H80   H     H_    0.715435 0.744347 0.166428 0.183710
H81   H     H_    0.199770 0.758468 0.155881 0.178298
H82   H     H_    0.215438 0.244348 0.166430 0.183710
H83   H     H_    0.810249 0.205962 0.123335 0.172972
H84   H     H_    0.295233 0.822892 0.168028 0.196346
H85   H     H_    0.805600 0.799158 0.109780 0.174578
H86   H     H_    0.310248 0.705960 0.123327 0.172973
H87   H     H_    0.305599 0.299159 0.109777 0.174578
H88   H     H_    0.162690 0.813130 0.811245 0.188119
H89   H     H_    0.153111 0.182296 0.812064 0.188839
H90   H     H_    0.662701 0.313123 0.811246 0.188122
H91   H     H_    0.653114 0.682299 0.812063 0.188840
H92   H     H_    0.396463 0.885744 0.215967 0.290580
H93   H     H_    0.512234 0.154914 0.225158 0.298575
H94   H     H_    0.896464 0.385743 0.215968 0.290581
H95   H     H_    0.307367 0.178249 0.173722 0.230545
H96   H     H_    0.012233 0.654913 0.225159 0.298575
H97   H     H_    0.035237 0.766938 0.846726 0.080065
H98   H     H_    0.031384 0.226166 0.860169 0.087099
H99   H     H_    0.535240 0.266935 0.846719 0.080064
H100  H     H_    0.531385 0.726167 0.860165 0.087098
H101  H     H_    0.667245 0.219198 0.812970 0.334164
H102  H     H_    0.645502 0.776477 0.801522 0.325030
H103  H     H_    0.167234 0.719204 0.812962 0.334163
H104  H     H_    0.145498 0.276475 0.801519 0.325030
H105  H     H_    0.759301 0.029637 0.747536 0.359094
H106  H     H_    0.795224 0.322896 0.168024 0.196337
H107  H     H_    0.722696 0.899027 0.746742 0.310103
H108  H     H_    0.259301 0.529637 0.747536 0.359095
H109  H     H_    0.222694 0.399026 0.746742 0.310102
H110  H     H_    0.705000 0.053621 0.573724 0.175179
H111  H     H_    0.709714 0.951236 0.585554 0.187368
H112  H     H_    0.205000 0.553621 0.573725 0.175179
H113  H     H_    0.209714 0.451236 0.585554 0.187368
H114  H     H_    0.431466 0.040633 0.523647 0.198241
H115  H     H_    0.423402 0.967692 0.523120 0.199974
H116  H     H_    0.931467 0.540633 0.523648 0.198241
N1    N     N_R   0.392450 0.103580 0.942190 -0.051942
N2    N     N_R   0.525490 0.971610 0.207550 -0.046837
N3    N     N_R   0.025490 0.528390 0.207550 -0.054847
N4    N     N_R   0.025490 0.471610 0.207550 -0.046837
N5    N     N_R   0.317450 0.971190 0.792000 -0.097011
N6    N     N_R   0.317450 0.028810 0.792000 -0.095225
N7    N     N_R   0.817450 0.471190 0.792000 -0.097012
N8    N     N_R   0.817450 0.528810 0.792000 -0.095225
N9    N     N_R   0.473900 0.028390 0.792280 -0.045417
N10   N     N_R   0.473900 0.971610 0.792280 -0.046819
N11   N     N_R   0.973900 0.528390 0.792280 -0.045416
N12   N     N_R   0.392450 0.896420 0.942190 -0.055639
N13   N     N_R   0.973900 0.471610 0.792280 -0.046819
N14   N     N_R   0.682310 0.971180 0.208170 -0.041673
N15   N     N_R   0.682310 0.028820 0.208170 -0.043642
N16   N     N_R   0.182310 0.471180 0.208170 -0.041673
N17   N     N_R   0.182310 0.528820 0.208170 -0.043642
N18   N     N_R   0.606470 0.103570 0.057210 -0.038448
N19   N     N_R   0.606470 0.896430 0.057210 -0.038814
N20   N     N_R   0.106470 0.603570 0.057210 -0.038448
N21   N     N_R   0.106470 0.396430 0.057210 -0.038814
N22   N     N_R   0.549740 0.896000 0.943240 -0.043521
N23   N     N_R   0.892450 0.603580 0.942190 -0.051942
N24   N     N_R   0.549740 0.104000 0.943240 -0.040737
N25   N     N_R   0.049740 0.396000 0.943240 -0.043521
N26   N     N_R   0.049740 0.604000 0.943240 -0.040737
N27   N     N_R   0.892450 0.396420 0.942190 -0.055638
N28   N     N_R   0.450490 0.896000 0.057360 -0.070805
N29   N     N_R   0.450490 0.104000 0.057360 -0.102046
N30   N     N_R   0.950490 0.396000 0.057360 -0.070805
N31   N     N_R   0.950490 0.604000 0.057360 -0.102046
N32   N     N_R   0.525490 0.028390 0.207550 -0.054847
Ni1   Ni    Ni4+2 0.433780 0.065390 0.868430 0.247285
Ni2   Ni    Ni4+2 0.433780 0.934610 0.868430 0.248723
Ni3   Ni    Ni4+2 0.933780 0.565390 0.868430 0.247286
Ni4   Ni    Ni4+2 0.933780 0.434610 0.868430 0.248724
Ni5   Ni    Ni4+2 0.565800 0.934190 0.131570 0.222072
Ni6   Ni    Ni4+2 0.565800 0.065810 0.131570 0.187376
Ni7   Ni    Ni4+2 0.065800 0.434190 0.131570 0.222071
Ni8   Ni    Ni4+2 0.065800 0.565810 0.131570 0.187376
O1    O     O_3   0.436422 0.866411 0.198819 -0.807747
O2    O     O_3   0.703954 0.937439 0.745863 -0.753969
O3    O     O_3   0.215309 0.554424 0.749563 -0.727367
O4    O     O_3   0.203953 0.437439 0.745863 -0.753969
O5    O     O_3   0.239554 0.902465 0.653871 -0.777761
O6    O     O_3   0.239182 0.097860 0.654309 -0.779822
O7    O     O_3   0.739554 0.402465 0.653871 -0.777760
O8    O     O_3   0.739182 0.597860 0.654309 -0.779821
O9    O     O_3   0.445065 0.148364 0.195504 -0.814988
O10   O     O_3   0.936422 0.366410 0.198819 -0.807747
O11   O     O_3   0.945065 0.648363 0.195504 -0.814988
O12   O     O_3   0.603223 0.223427 0.795681 -0.775294
O13   O     O_3   0.584609 0.769759 0.791165 -0.782944
O14   O     O_3   0.103214 0.723432 0.795678 -0.775296
O15   O     O_3   0.084605 0.269756 0.791165 -0.782944
O16   O     O_3   0.715308 0.054425 0.749562 -0.727366

loop_
_geom_bond_atom_site_label_1
_geom_bond_atom_site_label_2
_ccdc_geom_bond_type
H96   O11   S    
C71   C75   S    
N28   Ni5   S    
C5    C103  S    
N21   N25   A    
C16   C21   A    
C25   H29   S    
C106  N5    A    
C57   H33   S    
C23   C69   A    
C3    C68   S    
N15   Ni6   S    
N1    N29   A    
C74   C83   S    
C72   C76   S    
C108  O7    S    
C50   H76   S    
C97   H115  S    
C77   H39   S    
C71   C79   S    
C56   H21   S    
C45   C112  A    
H102  O13   S    
C39   C41   S    
N18   N24   A    
C16   N17   A    
N16   N17   A    
C35   H70   S    
C13   H61   S    
C84   O16   S    
C11   C19   A    
N7    Ni4   S    
C98   C105  S    
C54   H80   S    
C90   H6    S    
C30   C48   S    
C61   H36   S    
C86   O3    S    
C87   C100  S    
C29   C32   S    
C76   H85   S    
C14   H18   S    
C87   O4    S    
N20   N26   A    
C24   C73   S    
C23   C102  A    
C59   H25   S    
C65   C70   S    
C37   H71   S    
C36   N23   A    
C38   H72   S    
C96   H49   S    
C105  H11   S    
C85   H43   S    
N14   Ni5   S    
C107  O6    S    
H108  O3    S    
C86   H44   S    
C5    C92   A    
N22   Ni2   S    
N31   Ni8   S    
N23   N31   A    
C4    C88   A    
C39   H74   S    
C84   H42   S    
C24   C80   A    
N6    Ni1   S    
C44   O10   S    
C92   N4    A    
C55   H13   S    
C94   C101  S    
C52   C54   S    
C79   O12   S    
C45   O11   S    
C29   H68   S    
C43   O9    S    
C29   C38   S    
C36   C112  A    
C11   H54   S    
N7    N8    A    
C80   N20   A    
C57   H24   S    
C93   H110  S    
C43   C110  A    
C76   H38   S    
C66   C111  S    
C30   C32   S    
C86   C100  S    
N5    N6    A    
C61   C78   S    
C5    C90   A    
C51   H77   S    
C87   H45   S    
C75   H83   S    
C51   C68   S    
C82   H97   S    
C47   H51   S    
H92   O1    S    
C97   H114  S    
H14   O6    S    
N27   N30   A    
C60   C66   S    
C10   N11   A    
C34   C38   S    
N3    Ni8   S    
C87   C96   S    
N3    N4    A    
N11   Ni3   S    
C106  O5    S    
C1    H1    S    
C80   H57   S    
C1    N1    A    
N30   Ni7   S    
C105  H10   S    
C97   C99   S    
C95   C103  S    
C9    C18   A    
C45   N31   A    
C98   H116  S    
C31   H64   S    
C51   H106  S    
C3    C44   A    
C63   C67   S    
C60   C77   S    
N12   N28   A    
C17   C24   A    
C56   C74   S    
C49   C66   S    
C62   C66   S    
C29   C48   S    
N9    Ni1   S    
C34   C39   S    
C97   C104  S    
H104  O15   S    
C14   C20   A    
C32   H65   S    
C58   N18   A    
C81   O13   S    
C63   H89   S    
C38   C41   S    
C103  C105  S    
C54   C72   S    
C12   H17   S    
C93   C101  S    
C65   H32   S    
C88   N32   A    
C61   H27   S    
H105  O16   S    
C21   C34   S    
C25   N12   A    
C27   C35   S    
C26   C91   A    
C8    N9    A    
C27   C31   S    
C107  N6    A    
N13   Ni4   S    
C94   H47   S    
C50   C56   S    
C95   H48   S    
C50   C67   S    
C63   C83   S    
C63   H30   S    
C51   C53   S    
C32   C34   S    
C85   O2    S    
C88   H4    S    
C9    H52   S    
C40   C46   S    
C42   C111  A    
C109  N8    A    
C2    C22   A    
N21   Ni7   S    
C85   C99   S    
C2    N24   A    
C1    C110  A    
H94   O10   S    
N29   Ni6   S    
C85   C94   S    
C61   C67   S    
C67   C110  S    
C65   C81   S    
C49   H75   S    
C42   N28   A    
C10   C19   A    
C6    C107  A    
C13   N25   A    
C4    C101  S    
C12   C20   A    
C31   C33   S    
N14   N15   A    
C6    C106  A    
H103  O14   S    
C41   H73   S    
N11   N13   A    
C52   H78   S    
N19   Ni5   S    
C58   H55   S    
C53   H79   S    
C73   C82   S    
H109  O4    S    
C70   C112  S    
N24   Ni1   S    
C56   H82   S    
C20   C33   S    
N25   Ni4   S    
C47   N27   A    
C60   H35   S    
H12   O5    S    
N2    N32   A    
N26   Ni3   S    
C89   H5    S    
C101  C104  S    
C12   N14   A    
C64   H31   S    
H16   O8    S    
C94   H111  S    
C89   N2    A    
C30   H69   S    
C13   C26   A    
N10   Ni2   S    
N17   Ni8   S    
C69   N19   A    
C78   H87   S    
C8    C18   A    
C57   C68   S    
N32   Ni6   S    
C83   O15   S    
C53   C71   S    
C64   C68   S    
C22   C71   S    
C43   N29   A    
C27   C46   S    
C4    C89   A    
C91   N21   A    
N19   N22   A    
N18   Ni6   S    
C102  H59   S    
C104  H9    S    
C64   H90   S    
C15   N16   A    
C6    C46   S    
C91   H58   S    
C55   H81   S    
C102  N22   A    
C84   C99   S    
H15   O7    S    
C23   C72   S    
C92   H7    S    
C28   C31   S    
C36   H40   S    
C53   H22   S    
C72   C81   S    
C77   H86   S    
N12   Ni2   S    
C18   C99   S    
C22   C58   A    
H93   O9    S    
C19   C100  S    
C78   H41   S    
C108  N7    A    
N20   Ni8   S    
C49   H84   S    
C52   H2    S    
C37   C40   S    
C98   C100  S    
C95   H112  S    
N4    Ni7   S    
C28   C46   S    
N16   Ni7   S    
C7    C48   S    
H107  O2    S    
C42   O1    S    
C35   C40   S    
C69   H56   S    
C62   H88   S    
N23   Ni3   S    
C49   C55   S    
C90   N3    A    
C96   H113  S    
C40   H62   S    
C79   H99   S    
C33   C35   S    
C57   C75   S    
C98   H3    S    
C28   C37   S    
C75   H37   S    
C10   H53   S    
C11   N13   A    
C54   H23   S    
C3    C47   A    
C64   C79   S    
C41   C48   S    
C30   C39   S    
C84   C93   S    
C62   C82   S    
C93   H46   S    
C16   H20   S    
C28   H67   S    
C33   C37   S    
H101  O12   S    
C109  O8    S    
C52   C70   S    
C86   C95   S    
C25   C111  A    
C59   C70   S    
C44   N30   A    
C14   N15   A    
C55   C73   S    
C59   H34   S    
C7    C109  A    
C83   H98   S    
C15   C21   A    
C81   H100  S    
C15   H19   S    
N27   Ni4   S    
N8    Ni3   S    
C26   C74   S    
C74   C78   S    
C96   C103  S    
C60   H26   S    
C9    N10   A    
C65   H91   S    
C73   C77   S    
C7    C108  A    
C27   H66   S    
C8    H50   S    
N1    Ni1   S    
C17   N26   A    
C62   H28   S    
C50   H95   S    
N9    N10   A    
C59   C76   S    
C17   H63   S    
C2    H60   S    
N5    Ni2   S    
C104  H8    S    
N2    Ni5   S    
C82   O14   S    
