data_mof_unit_58007.cif
_audit_creation_date              2012-12-10T17:36:36-0500
_audit_creation_method            fapswitch 2.2
_symmetry_space_group_name_H-M    P1
_symmetry_Int_Tables_number       1
_space_group_crystal_system       triclinic
_cell_length_a                    12.000479
_cell_length_b                    12.836084
_cell_length_c                    15.722858
_cell_angle_alpha                 90.386292
_cell_angle_beta                  86.382561
_cell_angle_gamma                 93.554469
_cell_volume                      2412.45074035

loop_
_atom_site_label
_atom_site_type_symbol
_atom_type_description
_atom_site_fract_x
_atom_site_fract_y
_atom_site_fract_z
_atom_type_partial_charge
C1    C     C_R   0.522291 0.700275 0.500093 0.962538
C2    C     C_R   0.542678 0.024315 0.472223 -0.290078
C3    C     C_R   0.954305 0.407112 0.416406 0.602268
C4    C     C_R   0.045674 0.592643 0.583788 0.602248
C5    C     C_R   0.838314 0.415736 0.425043 0.556725
C6    C     C_R   0.161672 0.584080 0.575097 0.555090
C7    C     C_R   0.857791 0.539372 0.536751 0.721653
C8    C     C_R   0.142202 0.460567 0.463300 0.722048
C9    C     C_R   0.975554 0.533555 0.530682 -0.449904
C10   C     C_R   0.024432 0.466295 0.469442 -0.449705
C11   C     C_R   0.500287 0.500244 0.662011 0.905545
C12   C     C_R   0.477707 0.299726 0.499964 0.961610
C13   C     C_R   0.499675 0.499744 0.337966 0.901088
C14   C     C_3   0.434515 0.572822 0.032265 0.055828
C15   C     C_3   0.557719 0.418569 0.968291 0.072924
C16   C     C_3   0.540064 0.589187 0.970885 0.071201
C17   C     C_3   0.452136 0.402907 0.029968 0.062614
C18   C     C_1   0.500120 0.499502 0.750777 -0.138333
C19   C     C_1   0.498954 0.498287 0.249185 -0.118602
C20   C     C_3   0.389319 0.480154 0.978194 0.077085
C21   C     C_3   0.603109 0.511477 0.021948 0.070885
C22   C     C_3   0.494759 0.496551 0.917141 0.026630
C23   C     C_R   0.626113 0.965561 0.432236 0.759900
C24   C     C_3   0.497464 0.495746 0.082946 0.002706
C25   C     C_1   0.497840 0.498366 0.826065 -0.077320
C26   C     C_1   0.498424 0.496904 0.173991 -0.070525
C27   C     C_R   0.463501 0.188553 0.502485 -0.295706
C28   C     C_R   0.536507 0.811456 0.497679 -0.296735
C29   C     C_3   0.586010 0.692008 0.928812 -0.387723
C30   C     C_3   0.634514 0.770671 0.992764 -0.367582
C31   C     C_3   0.651813 0.879737 0.954263 -0.835787
C32   C     C_3   0.404640 0.303097 0.076198 -0.388078
C33   C     C_3   0.359694 0.218161 0.016066 -0.372585
C34   C     C_R   0.373979 0.034481 0.568053 0.759768
C35   C     C_3   0.342076 0.112833 0.060963 -0.825601
C36   C     C_3   0.362306 0.654161 0.077125 -0.414245
C37   C     C_3   0.326351 0.737204 0.016233 -0.354650
C38   C     C_3   0.225269 0.791649 0.054359 -0.831516
C39   C     C_3   0.624108 0.334793 0.921208 -0.417042
C40   C     C_3   0.675871 0.260775 0.981619 -0.347344
C41   C     C_3   0.750251 0.186176 0.932117 -0.837952
C42   C     C_3   0.718956 0.528768 0.057978 -0.403980
C43   C     C_3   0.814836 0.537060 0.988550 -0.348561
C44   C     C_3   0.925979 0.568834 0.026461 -0.848632
C45   C     C_R   0.622577 0.859121 0.445142 -0.377221
C46   C     C_3   0.266041 0.462895 0.956769 -0.418513
C47   C     C_3   0.250730 0.402173 0.873487 -0.339706
C48   C     C_3   0.129380 0.361183 0.867146 -0.842627
C49   C     C_R   0.377509 0.140925 0.555122 -0.379111
C50   C     C_R   0.456634 0.869231 0.541533 0.684816
C51   C     C_R   0.543361 0.130763 0.458645 0.684429
C52   C     C_R   0.457369 0.975704 0.528024 -0.289665
F1    F     F_    0.621910 0.179123 0.403709 -0.540423
F2    F     F_    0.003046 0.658013 0.643996 -0.547904
F3    F     F_    0.378008 0.820832 0.596384 -0.539995
F4    F     F_    0.709665 0.009786 0.379546 -0.571067
F5    F     F_    0.290483 0.990279 0.620804 -0.571683
F6    F     F_    0.191878 0.396139 0.405791 -0.573578
F7    F     F_    0.808121 0.603831 0.594238 -0.573774
F8    F     F_    0.228448 0.640411 0.627053 -0.540159
F9    F     F_    0.771529 0.359276 0.373176 -0.539521
F10   F     F_    0.996919 0.341581 0.356317 -0.548042
H1    H     H_    0.315859 0.186708 0.588903 0.210016
H2    H     H_    0.422991 0.086826 0.081037 0.260562
H3    H     H_    0.282853 0.118445 0.117791 0.281481
H4    H     H_    0.306783 0.053576 0.016662 0.252944
H5    H     H_    0.278031 0.239408 0.994316 0.239815
H6    H     H_    0.418268 0.209702 0.959477 0.227395
H7    H     H_    0.471619 0.273151 0.113231 0.218266
H8    H     H_    0.335779 0.323726 0.122671 0.220448
H9    H     H_    0.152155 0.734695 0.064359 0.262182
H10   H     H_    0.244636 0.828722 0.116174 0.268776
H11   H     H_    0.203311 0.853125 0.010085 0.259707
H12   H     H_    0.684273 0.813364 0.411392 0.211574
H13   H     H_    0.395763 0.797309 0.004022 0.233342
H14   H     H_    0.305578 0.702392 0.954027 0.237684
H15   H     H_    0.287487 0.611483 0.108458 0.220206
H16   H     H_    0.409618 0.693600 0.127974 0.198130
H17   H     H_    0.700711 0.138390 0.887026 0.266975
H18   H     H_    0.820173 0.230553 0.896095 0.264576
H19   H     H_    0.785965 0.133016 0.977202 0.259684
H20   H     H_    0.726973 0.305582 0.027237 0.238070
H21   H     H_    0.609088 0.213702 0.018352 0.237149
H22   H     H_    0.567714 0.288901 0.879684 0.196356
H23   H     H_    0.709321 0.878678 0.896119 0.280945
H24   H     H_    0.690606 0.374418 0.878559 0.210001
H25   H     H_    0.922109 0.646578 0.057605 0.261616
H26   H     H_    0.945994 0.510325 0.074046 0.274420
H27   H     H_    0.993983 0.573416 0.975095 0.255627
H28   H     H_    0.823132 0.460715 0.956255 0.230880
H29   H     H_    0.798383 0.595465 0.940034 0.238999
H30   H     H_    0.719551 0.600903 0.097331 0.204429
H31   H     H_    0.731941 0.463321 0.101352 0.218459
H32   H     H_    0.103984 0.305552 0.919688 0.258976
H33   H     H_    0.073089 0.426836 0.870483 0.271054
H34   H     H_    0.570600 0.908550 0.937592 0.257935
H35   H     H_    0.120408 0.319875 0.805438 0.260873
H36   H     H_    0.273617 0.454854 0.818586 0.252752
H37   H     H_    0.305695 0.335673 0.868531 0.218395
H38   H     H_    0.219698 0.421214 0.011082 0.212438
H39   H     H_    0.228492 0.538971 0.951120 0.210724
H40   H     H_    0.689055 0.934364 0.001249 0.256230
H41   H     H_    0.578260 0.774197 0.051329 0.227437
H42   H     H_    0.716654 0.746492 0.011292 0.235148
H43   H     H_    0.651925 0.675236 0.878721 0.214546
H44   H     H_    0.517164 0.725751 0.896278 0.217577
N1    N     N_R   0.207800 0.519340 0.515560 -0.258913
N2    N     N_R   0.792200 0.480660 0.484440 -0.258937
O1    O     O_R   0.421700 0.658830 0.504150 -0.546428
O2    O     O_R   0.578300 0.341170 0.495850 -0.546979
O3    O     O_R   0.609310 0.646410 0.494170 -0.600211
O4    O     O_R   0.390690 0.353590 0.505830 -0.600748
O5    O     O_R   0.406210 0.506220 0.628210 -0.583480
O6    O     O_R   0.593790 0.493780 0.371790 -0.578368
O7    O     O_R   0.593830 0.493800 0.618230 -0.584947
O8    O     O_R   0.406170 0.506200 0.381770 -0.585892
Zn1   Zn    Zn3+2 0.374730 0.508290 0.506660 1.074630
Zn2   Zn    Zn3+2 0.625270 0.491710 0.493340 1.077054

loop_
_geom_bond_atom_site_label_1
_geom_bond_atom_site_label_2
_ccdc_geom_bond_type
C11   C18   S    
C16   C21   S    
C31   H23   S    
C48   H33   S    
C42   H31   S    
O2    Zn2   S    
C41   H18   S    
C12   O2    A    
O1    Zn1   S    
C23   F4    S    
C48   H35   S    
C29   C30   S    
C47   H36   S    
C48   H32   S    
O3    Zn2   S    
C23   C45   A    
C36   C37   S    
C24   C26   S    
C39   H22   S    
C36   H15   S    
C14   C36   S    
C30   C31   S    
C38   H11   S    
C35   H3    S    
C31   H34   S    
C17   C20   S    
C47   H37   S    
O8    Zn1   S    
C15   C17   S    
C14   C24   S    
C19   C26   T    
C8    F6    S    
C46   C47   S    
C28   C50   A    
C15   C22   S    
C22   C25   S    
C30   H41   S    
C34   F5    S    
C50   C52   A    
C6    N1    A    
C35   H2    S    
C44   H25   S    
C11   O7    A    
C9    C10   A    
C13   O6    A    
C1    O1    A    
C37   H13   S    
C40   H21   S    
C29   H43   S    
C18   C25   T    
C7    F7    S    
C27   C51   A    
C49   H1    S    
C46   H39   S    
C38   H10   S    
C28   C45   A    
C17   C24   S    
C13   C19   S    
C12   C27   S    
C43   H28   S    
C31   H40   S    
N2    Zn2   S    
C4    C6    A    
C6    F8    S    
C39   C40   S    
C32   H8    S    
C35   H4    S    
C16   C29   S    
C43   H29   S    
C45   H12   S    
C51   F1    S    
C43   C44   S    
C37   C38   S    
C14   C20   S    
C1    C28   S    
C40   H20   S    
C47   C48   S    
O7    Zn2   S    
C41   H19   S    
C5    F9    S    
C15   C39   S    
O6    Zn2   S    
C2    C52   A    
O5    Zn1   S    
C40   C41   S    
C37   H14   S    
C20   C22   S    
C14   C16   S    
C29   H44   S    
C42   C43   S    
C8    N1    A    
C12   O4    A    
C33   H5    S    
C3    F10   S    
C7    C9    A    
C46   H38   S    
C38   H9    S    
C34   C49   A    
C16   C22   S    
C4    F2    S    
C3    C5    A    
C41   H17   S    
C32   H7    S    
C34   C52   A    
C50   F3    S    
C32   C33   S    
C3    C10   A    
C36   H16   S    
C1    O3    A    
O4    Zn1   S    
C33   C35   S    
C42   H30   S    
C11   O5    A    
C13   O8    A    
C2    C51   A    
C21   C42   S    
C15   C21   S    
C8    C10   A    
C21   C24   S    
C30   H42   S    
C2    C23   A    
C17   C32   S    
C7    N2    A    
C39   H24   S    
C4    C9    A    
C44   H26   S    
N1    Zn1   S    
C20   C46   S    
C44   H27   S    
C27   C49   A    
C33   H6    S    
C5    N2    A    
