data_mof_unit_28000.cif
_audit_creation_date              2012-12-11T16:20:00-0500
_audit_creation_method            fapswitch 2.2
_symmetry_space_group_name_H-M    P1
_symmetry_Int_Tables_number       1
_space_group_crystal_system       triclinic
_cell_length_a                    13.519622
_cell_length_b                    14.0493
_cell_length_c                    30.073728
_cell_angle_alpha                 97.728933
_cell_angle_beta                  90.056908
_cell_angle_gamma                 118.681267
_cell_volume                      4951.70863612

loop_
_atom_site_label
_atom_site_type_symbol
_atom_type_description
_atom_site_fract_x
_atom_site_fract_y
_atom_site_fract_z
_atom_type_partial_charge
C1    C     C_R   0.720058 0.098180 0.568963 0.544932
C2    C     C_R   0.316913 0.645284 0.670908 -0.029698
C3    C     C_R   0.224128 0.623689 0.641790 0.280056
C4    C     C_R   0.244787 0.659876 0.599384 0.289050
C5    C     C_R   0.227266 0.629105 0.827783 -0.090129
C6    C     C_R   0.223137 0.619508 0.873364 -0.104866
C7    C     C_R   0.368261 0.564631 0.867538 -0.137808
C8    C     C_R   0.371993 0.574085 0.821901 -0.118229
C9    C     C_R   0.299457 0.603582 0.801863 0.046472
C10   C     C_1   0.300551 0.610076 0.754856 -0.000310
C11   C     C_1   0.304437 0.621079 0.715930 -0.000065
C12   C     C_R   0.382356 0.786629 0.550520 0.576531
C13   C     C_R   0.291198 0.583972 0.893428 0.019133
C14   C     C_3   0.290731 0.054401 0.715975 0.156577
C15   C     C_3   0.270114 0.227165 0.714623 0.148996
C16   C     C_3   0.248556 0.224265 0.765422 -0.162790
C17   C     C_1   0.296206 0.202868 0.876619 -0.020930
C18   C     C_3   0.344223 0.170820 0.701576 0.092956
C19   C     C_3   0.277651 0.062323 0.767379 -0.193660
C20   C     C_3   0.319837 0.182497 0.788543 0.000571
C21   C     C_3   0.445946 0.253107 0.779419 -0.220577
C22   C     C_3   0.461363 0.242439 0.728178 -0.181308
C23   C     C_R   0.398099 0.119056 0.569300 0.547991
C24   C     C_1   0.306866 0.189750 0.837018 -0.082872
C25   C     C_1   0.355256 0.156539 0.652858 -0.047739
C26   C     C_1   0.368702 0.139789 0.613681 -0.023169
C27   C     C_3   0.716543 0.146103 0.725765 -0.244320
C28   C     C_3   0.924624 0.275062 0.719882 0.143690
C29   C     C_3   0.942190 0.287271 0.772611 0.157623
C30   C     C_1   0.899698 0.204688 0.878673 0.007946
C31   C     C_3   0.823393 0.157235 0.702161 0.071961
C32   C     C_3   0.731980 0.152632 0.777469 0.144985
C33   C     C_3   0.854912 0.180458 0.790251 0.006326
C34   C     C_R   0.719609 0.094974 0.442581 0.539913
C35   C     C_3   0.873390 0.084824 0.766914 -0.187966
C36   C     C_3   0.848195 0.064094 0.713800 0.564642
C37   C     C_1   0.874557 0.192684 0.839248 0.012284
C38   C     C_1   0.796977 0.144116 0.653478 -0.001281
C39   C     C_1   0.767826 0.128407 0.614228 -0.013839
C40   C     C_3   0.361781 0.790016 0.270305 -0.270365
C41   C     C_3   0.237377 0.587893 0.270615 -0.215635
C42   C     C_3   0.230184 0.567770 0.218560 -0.259724
C43   C     C_1   0.308376 0.606472 0.111067 -0.008397
C44   C     C_3   0.352202 0.688362 0.289118 0.053451
C45   C     C_R   0.382497 0.784760 0.424818 0.550656
C46   C     C_3   0.352685 0.770170 0.218208 -0.214442
C47   C     C_3   0.338969 0.655465 0.200541 0.049445
C48   C     C_3   0.442139 0.647656 0.219300 0.202690
C49   C     C_3   0.450216 0.667889 0.272091 0.215315
C50   C     C_1   0.326759 0.634056 0.151133 -0.040505
C51   C     C_1   0.358984 0.709947 0.338519 -0.035701
C52   C     C_1   0.367208 0.737260 0.378581 -0.008716
C53   C     C_R   0.357706 0.131838 0.400381 0.034877
C54   C     C_R   0.412381 0.235552 0.385785 0.279356
C55   C     C_R   0.392578 0.242608 0.340772 -0.093349
C56   C     C_R   0.396174 0.114651 0.442974 0.563243
C57   C     C_R   0.323651 0.147767 0.310644 -0.004603
C58   C     C_R   0.264410 0.046810 0.325622 -0.141961
C59   C     C_R   0.280122 0.039020 0.370380 -0.182714
C60   C     C_R   0.237063 0.091603 0.147770 -0.121466
C61   C     C_R   0.230447 0.111150 0.104006 -0.129658
C62   C     C_R   0.410620 0.279025 0.119496 -0.137015
C63   C     C_R   0.416884 0.259266 0.163293 -0.122460
C64   C     C_R   0.328120 0.167757 0.177744 0.040922
C65   C     C_1   0.324940 0.158132 0.224305 -0.032839
C66   C     C_1   0.322445 0.152721 0.263683 -0.030228
C67   C     C_R   0.357567 0.724201 0.588457 -0.010377
C68   C     C_R   0.314689 0.207674 0.090148 0.022052
C69   C     C_R   0.777894 0.131853 0.401920 0.024684
C70   C     C_R   0.796646 0.059073 0.370842 -0.129108
C71   C     C_R   0.823179 0.082005 0.327409 -0.111272
C72   C     C_R   0.831958 0.177934 0.314924 0.033439
C73   C     C_R   0.822762 0.255031 0.346603 -0.121393
C74   C     C_R   0.796513 0.232466 0.390086 -0.126111
C75   C     C_R   0.854569 0.290194 0.163690 0.254888
C76   C     C_R   0.881371 0.299359 0.118748 0.269535
C77   C     C_R   0.863800 0.116933 0.108973 -0.176585
C78   C     C_R   0.447547 0.741276 0.617445 -0.190934
C79   C     C_R   0.841401 0.109114 0.153967 0.232713
C80   C     C_R   0.841219 0.197499 0.181674 -0.001895
C81   C     C_1   0.838860 0.196132 0.229164 0.045364
C82   C     C_1   0.837678 0.190663 0.268586 -0.013441
C83   C     C_R   0.893419 0.214849 0.092021 -0.078866
C84   C     C_R   0.283577 0.233301 0.922475 0.544045
C85   C     C_R   0.264599 0.544588 0.937185 0.540217
C86   C     C_R   0.945800 0.222217 0.923485 0.535556
C87   C     C_R   0.292434 0.243099 0.049240 0.540047
C88   C     C_R   0.274889 0.558194 0.064978 0.546606
C89   C     C_R   0.426871 0.700883 0.657981 -0.193791
C90   C     C_R   0.953086 0.232670 0.050174 0.554336
Cr1   Cr    Cr6+3 0.583400 0.162540 0.509180 1.031724
Cr2   Cr    Cr6+3 0.584070 0.916690 0.495550 1.029013
Cr3   Cr    Cr6+3 0.332550 0.920810 0.495240 1.018955
Cr4   Cr    Cr6+3 0.086700 0.177000 0.983690 1.012516
Cr5   Cr    Cr6+3 0.336880 0.419130 0.994740 1.009825
Cr6   Cr    Cr6+3 0.084850 0.422220 0.995960 1.048399
H1    H     H_    0.162517 0.634399 0.892293 0.130516
H2    H     H_    0.268888 0.307363 0.782902 0.172718
H3    H     H_    0.505238 0.325366 0.717955 0.136746
H4    H     H_    0.718270 0.219876 0.795228 0.120905
H5    H     H_    0.698828 0.212309 0.718659 0.038150
H6    H     H_    0.025547 0.291550 0.779117 0.188081
H7    H     H_    0.293625 0.807730 0.282420 0.122427
H8    H     H_    0.154629 0.570138 0.205249 0.164217
H9    H     H_    0.218094 0.484081 0.206630 0.125914
H10   H     H_    0.530801 0.744584 0.284751 0.134992
H11   H     H_    0.429373 0.835329 0.205662 0.176448
H12   H     H_    0.237796 0.958461 0.380530 0.141521
H13   H     H_    0.434255 0.320996 0.328787 0.113880
H14   H     H_    0.829735 0.329589 0.337063 0.104851
H15   H     H_    0.782941 0.981037 0.378955 0.127961
H16   H     H_    0.866596 0.048901 0.088408 0.158472
H17   H     H_    0.429053 0.555419 0.802009 0.121644
H18   H     H_    0.187103 0.011004 0.773426 0.068236
O1    O     O_R   0.494060 0.188820 0.559230 -0.507954
O2    O     O_R   0.480140 0.824500 0.445020 -0.493417
O3    O     O_R   0.308480 0.808690 0.440220 -0.512882
O4    O     O_R   0.340970 0.020670 0.455610 -0.519303
O5    O     O_3   0.500010 0.000010 0.499990 -0.252457
O6    O     O_R   0.969690 0.151000 0.934080 -0.513344
O7    O     O_R   0.187530 0.180840 0.938210 -0.494892
O8    O     O_R   0.358160 0.327300 0.941250 -0.515186
O9    O     O_R   0.323950 0.507710 0.953980 -0.504327
O10   O     O_R   0.170530 0.527770 0.952070 -0.514438
O11   O     O_R   0.987720 0.318450 0.945940 -0.495271
O12   O     O_R   0.678470 0.153390 0.554100 -0.498528
O13   O     O_R   0.976400 0.159230 0.032040 -0.529260
O14   O     O_R   0.193740 0.188470 0.029020 -0.503090
O15   O     O_R   0.364860 0.335530 0.039220 -0.521498
O16   O     O_R   0.330170 0.515340 0.044800 -0.502153
O17   O     O_R   0.177230 0.536000 0.050040 -0.484833
O18   O     O_R   0.993930 0.326080 0.036750 -0.451826
O19   O     O_3   0.169480 0.339450 0.991460 -0.247547
O20   O     O_R   0.697870 0.003940 0.549410 -0.501046
O21   O     O_R   0.480980 0.827230 0.535590 -0.505161
O22   O     O_R   0.309390 0.811640 0.537920 -0.486504
O23   O     O_R   0.341810 0.023400 0.546180 -0.499588
O24   O     O_R   0.493150 0.185870 0.461540 -0.467935
O25   O     O_R   0.677630 0.150660 0.463530 -0.506355
O26   O     O_R   0.696960 0.000990 0.451710 -0.518342
H19   H     H_    0.205111 0.003940 0.697779 0.068441
O27   O     O_3   0.325440 0.339516 0.708537 -0.566943
C91   C     C_3   0.318694 0.353223 0.663153 -0.107073
H20   H     H_    0.240661 0.287817 0.643191 0.102120
H21   H     H_    0.394610 0.359234 0.646843 0.126020
H22   H     H_    0.320383 0.432620 0.662458 0.150592
H23   H     H_    0.186329 0.180827 0.695243 0.143233
H24   H     H_    0.157261 0.169647 0.768849 0.086058
H25   H     H_    0.517051 0.205379 0.720656 0.142318
H26   H     H_    0.499567 0.227347 0.796894 0.097643
O28   O     O_3   0.362737 0.008632 0.704836 -0.583740
C92   C     C_3   0.300597 0.893447 0.695929 -0.145388
H27   H     H_    0.249805 0.866810 0.663248 0.114000
H28   H     H_    0.245976 0.858519 0.723528 0.090530
H29   H     H_    0.361304 0.861568 0.693298 0.162462
H30   H     H_    0.325552 0.029027 0.783872 0.137018
H31   H     H_    0.171959 0.653461 0.812494 0.099390
H32   H     H_    0.475508 0.340793 0.793215 0.128871
O29   O     O_3   0.028164 0.292078 0.701731 -0.542871
C93   C     C_3   0.036885 0.317208 0.657450 -0.054747
H33   H     H_    0.124454 0.381487 0.654463 0.175271
H34   H     H_    0.979597 0.348065 0.647374 0.133751
H35   H     H_    0.021331 0.243535 0.633315 0.138182
H36   H     H_    0.901882 0.336072 0.710457 0.098545
O30   O     O_3   0.955309 0.384887 0.799857 -0.572377
C94   C     C_3   0.896681 0.434707 0.783413 -0.133125
H37   H     H_    0.811219 0.375455 0.767652 0.072729
H38   H     H_    0.948120 0.490379 0.759732 0.116536
H39   H     H_    0.885851 0.486374 0.812171 0.136744
O31   O     O_3   0.750903 0.961932 0.695275 -0.560853
C95   C     C_3   0.723565 0.870932 0.717682 -0.142134
H40   H     H_    0.659436 0.863619 0.741986 0.164535
H41   H     H_    0.796812 0.872006 0.734733 0.074339
H42   H     H_    0.686407 0.795789 0.692233 0.118085
O32   O     O_3   0.946293 0.078346 0.691233 -0.532091
C96   C     C_3   0.965360 0.987470 0.687842 -0.115811
H43   H     H_    0.896247 0.913696 0.667129 0.156131
H44   H     H_    0.981760 0.971526 0.721510 0.075807
H45   H     H_    0.041875 0.006631 0.669385 0.096246
H46   H     H_    0.822212 0.012379 0.783452 0.140166
O33   O     O_3   0.114136 0.556950 0.651683 -0.575106
C97   C     C_3   0.078339 0.616903 0.682658 -0.148648
H47   H     H_    0.092118 0.694313 0.671592 0.072985
H48   H     H_    0.119287 0.634336 0.716896 0.121523
H49   H     H_    0.986034 0.566123 0.684952 0.120858
H50   H     H_    0.640864 0.067450 0.711391 0.205724
O34   O     O_3   0.656299 0.050003 0.790650 -0.571564
C98   C     C_3   0.551433 0.044224 0.799652 -0.147564
H51   H     H_    0.515296 0.061963 0.770750 0.158367
H52   H     H_    0.560149 0.101300 0.830693 0.111127
H53   H     H_    0.491236 0.959585 0.805280 0.146059
H54   H     H_    0.962164 0.104899 0.774830 0.072645
H55   H     H_    0.278808 0.776100 0.205455 0.117213
H56   H     H_    0.226768 0.513400 0.283714 0.173802
H57   H     H_    0.166798 0.602320 0.282151 0.121265
O35   O     O_3   0.157316 0.622685 0.566310 -0.534623
C99   C     C_3   0.089230 0.672462 0.576599 -0.069916
H58   H     H_    0.136428 0.757163 0.595754 0.087046
H59   H     H_    0.016322 0.619489 0.594735 0.142605
H60   H     H_    0.054102 0.679069 0.544519 0.133332
O36   O     O_3   0.442814 0.575024 0.288909 -0.590060
C100  C     C_3   0.551543 0.589430 0.298904 -0.143763
H61   H     H_    0.595284 0.654971 0.328308 0.121633
H62   H     H_    0.603476 0.608439 0.269430 0.112189
H63   H     H_    0.542614 0.511852 0.307902 0.132615
O37   O     O_3   0.543679 0.728486 0.204175 -0.582752
C101  C     C_3   0.592557 0.679720 0.174139 -0.129193
H64   H     H_    0.533933 0.629689 0.144001 0.120496
H65   H     H_    0.618248 0.628563 0.191096 0.091616
H66   H     H_    0.669704 0.745789 0.162506 0.174170
H67   H     H_    0.443901 0.863878 0.282843 0.125282
H68   H     H_    0.426174 0.561820 0.208062 0.126381
H69   H     H_    0.155786 0.054466 0.082098 0.123508
H70   H     H_    0.168347 0.020388 0.158897 0.097715
H71   H     H_    0.210320 0.973205 0.302277 0.116187
O38   O     O_3   0.481679 0.328764 0.416176 -0.540945
C102  C     C_3   0.591361 0.382899 0.401058 -0.104265
H72   H     H_    0.594796 0.435281 0.375909 0.094855
H73   H     H_    0.621587 0.324604 0.387110 0.105329
H74   H     H_    0.650864 0.437796 0.430180 0.142005
H75   H     H_    0.534434 0.790296 0.609791 0.171012
H76   H     H_    0.487732 0.318375 0.186538 0.093268
H77   H     H_    0.476843 0.353909 0.109772 0.119081
O39   O     O_3   0.907912 0.396587 0.103278 -0.508831
C103  C     C_3   0.813288 0.381326 0.077144 -0.085466
H78   H     H_    0.740185 0.364072 0.097834 0.102163
H79   H     H_    0.788565 0.314704 0.047898 0.101020
H80   H     H_    0.835739 0.458331 0.063652 0.133095
O40   O     O_3   0.855338 0.378485 0.190767 -0.540733
C104  C     C_3   0.743250 0.351622 0.199937 -0.122579
H81   H     H_    0.712196 0.295525 0.225465 0.115902
H82   H     H_    0.684055 0.314748 0.169110 0.099153
H83   H     H_    0.742100 0.428123 0.214144 0.129324
H84   H     H_    0.783486 0.290483 0.413442 0.119932
O41   O     O_3   0.819645 0.014820 0.171116 -0.547269
C105  C     C_3   0.922496 0.014094 0.178083 -0.123125
H85   H     H_    0.985312 0.089519 0.200487 0.122145
H86   H     H_    0.958455 0.004286 0.145631 0.108370
H87   H     H_    0.905739 0.942800 0.194938 0.134774
H88   H     H_    0.830421 0.022078 0.302877 0.123269
H89   H     H_    0.420761 0.535812 0.881776 0.132282
H90   H     H_    0.497228 0.717259 0.680528 0.132532

loop_
_geom_bond_atom_site_label_1
_geom_bond_atom_site_label_2
_ccdc_geom_bond_type
C44   C49   S    
C15   C18   S    
C95   H40   S    
C21   H32   S    
O30   C94   S    
Cr1   O12   S    
C2    C89   A    
C41   C42   S    
C14   C18   S    
C35   C36   S    
C45   O2    A    
C88   O16   A    
C57   C66   S    
Cr3   O22   S    
O39   C103  S    
Cr4   O19   S    
C81   C82   T    
C53   C59   A    
O41   C105  S    
C7    C8    A    
C53   C54   A    
C76   O39   S    
C102  H74   S    
C54   O38   S    
C95   H41   S    
C40   H67   S    
C28   H36   S    
C35   H54   S    
C100  H62   S    
C104  H83   S    
C98   H53   S    
C43   C88   S    
C28   C29   S    
Cr2   O5    S    
C27   H50   S    
C69   C70   A    
C31   C36   S    
C5    C6    A    
O31   C95   S    
C77   C83   A    
C84   O8    A    
C91   H20   S    
C15   O27   S    
C29   C33   S    
C34   O25   A    
Cr5   O19   S    
C103  H80   S    
C105  H85   S    
C85   O10   A    
C98   H52   S    
C32   C33   S    
C73   C74   A    
C23   C26   S    
C29   O30   S    
C99   H59   S    
C60   H70   S    
C97   H47   S    
C27   H5    S    
C46   C47   S    
Cr4   O6    S    
C96   H45   S    
C48   H68   S    
C105  H86   S    
C8    C9    A    
C6    C13   A    
C12   O21   A    
C14   O28   S    
Cr6   O11   S    
Cr5   O16   S    
C90   O13   A    
C70   C71   A    
C30   C86   S    
C9    C10   S    
Cr6   O18   S    
C90   O18   A    
C58   H71   S    
C96   H44   S    
C14   H19   S    
C18   C22   S    
C21   C22   S    
C55   H13   S    
C86   O11   A    
C94   H38   S    
C19   H30   S    
C63   H76   S    
C99   H58   S    
C67   C78   A    
C61   H69   S    
C2    C11   S    
C76   C83   A    
C87   O14   A    
C12   C67   S    
C60   C64   A    
C47   C50   S    
C77   C79   A    
C78   C89   A    
C103  H79   S    
C95   H42   S    
C49   O36   S    
C17   C24   T    
C100  H61   S    
Cr6   O10   S    
C63   C64   A    
C27   C31   S    
C101  H64   S    
C93   H35   S    
C20   C24   S    
C73   H14   S    
O38   C102  S    
C41   H56   S    
C75   O40   S    
C70   H15   S    
C91   H22   S    
O37   C101  S    
C80   C81   S    
C19   H18   S    
C58   C59   A    
O33   C97   S    
C100  H63   S    
C28   O29   S    
C33   C37   S    
C4    O35   S    
C51   C52   T    
C30   C37   T    
C98   H51   S    
C97   H49   S    
C93   H34   S    
C99   H60   S    
C40   C46   S    
C75   C76   A    
C6    H1    S    
C5    C9    A    
O40   C104  S    
C77   H16   S    
C101  H66   S    
Cr1   O24   S    
C56   O24   A    
O29   C93   S    
C92   H29   S    
C7    C13   A    
C16   C20   S    
C46   H11   S    
C7    H89   S    
C62   C63   A    
C103  H78   S    
C69   C74   A    
C21   H26   S    
C1    O12   A    
C104  H82   S    
Cr2   O2    S    
C34   C69   S    
C49   H10   S    
C8    H17   S    
C3    O33   S    
Cr6   O17   S    
Cr1   O25   S    
C44   C51   S    
C48   C49   S    
C102  H72   S    
C92   H28   S    
C5    H31   S    
C55   C57   A    
C94   H37   S    
C41   C44   S    
Cr1   O5    S    
Cr2   O21   S    
C74   H84   S    
Cr3   O4    S    
C13   C85   S    
C3    C4    A    
Cr2   O26   S    
C1    O20   A    
Cr5   O8    S    
C46   H55   S    
Cr5   O15   S    
C75   C80   A    
C53   C56   S    
C45   O3    A    
C35   H46   S    
C91   H21   S    
C83   C90   S    
C54   C55   A    
C96   H43   S    
C22   H3    S    
C32   O34   S    
C27   C32   S    
C89   H90   S    
C56   O4    A    
C14   C19   S    
C23   O23   A    
C28   C31   S    
Cr2   O20   S    
C94   H39   S    
O35   C99   S    
C47   C48   S    
C42   H8    S    
C4    C67   A    
C86   O6    A    
C105  H87   S    
C43   C50   T    
Cr6   O19   S    
Cr4   O14   S    
C102  H73   S    
C36   O31   S    
C59   H12   S    
C45   C52   S    
C31   C38   S    
C62   C68   A    
C16   H24   S    
C17   C84   S    
C93   H33   S    
C87   O15   A    
C19   C20   S    
C2    C3    A    
C25   C26   T    
C79   O41   S    
C71   C72   A    
C41   H57   S    
O32   C96   S    
C18   C25   S    
C64   C65   S    
C40   H7    S    
C15   H23   S    
C61   C68   A    
C16   H2    S    
C57   C58   A    
C38   C39   T    
C72   C73   A    
C34   O26   A    
C33   C35   S    
Cr1   O1    S    
C29   H6    S    
C85   O9    A    
C42   C47   S    
Cr4   O13   S    
C104  H81   S    
C42   H9    S    
C97   H48   S    
C22   H25   S    
Cr3   O23   S    
C10   C11   T    
C1    C39   S    
C78   H75   S    
C23   O1    A    
C79   C80   A    
Cr4   O7    S    
C32   H4    S    
C40   C44   S    
Cr3   O3    S    
O36   C100  S    
C36   O32   S    
C20   C21   S    
C65   C66   T    
C12   O22   A    
C48   O37   S    
C101  H65   S    
C68   C87   S    
O27   C91   S    
C60   C61   A    
O34   C98   S    
C92   H27   S    
Cr3   O5    S    
C88   O17   A    
C62   H77   S    
O28   C92   S    
C71   H88   S    
C72   C82   S    
C15   C16   S    
Cr5   O9    S    
C84   O7    A    
