data_mof_unit_67386.cif
_audit_creation_date              2013-03-05T16:11:00-0500
_audit_creation_method            fapswitch 2.2
_symmetry_space_group_name_H-M    P1
_symmetry_Int_Tables_number       1
_space_group_crystal_system       triclinic
_cell_length_a                    17.633406
_cell_length_b                    28.388028
_cell_length_c                    9.041316
_cell_angle_alpha                 90.034306
_cell_angle_beta                  106.400748
_cell_angle_gamma                 89.898037
_cell_volume                      4341.71680669

loop_
_atom_site_label
_atom_site_type_symbol
_atom_site_description
_atom_site_fract_x
_atom_site_fract_y
_atom_site_fract_z
_atom_type_partial_charge
P1    P     P_3+3 0.171820 0.553000 0.158080 0.688686
P2    P     P_3+3 0.171820 0.447000 0.658080 0.688766
P3    P     P_3+3 0.671820 0.053000 0.158080 0.688683
P4    P     P_3+3 0.671820 0.947000 0.658080 0.688742
O1    O     O_2   0.163830 0.569270 0.980510 -0.269418
O2    O     O_2   0.163830 0.430730 0.480510 -0.266551
O3    O     O_2   0.663830 0.069270 0.980510 -0.269383
O4    O     O_2   0.663830 0.930730 0.480510 -0.266494
O5    O     O_3   0.095420 0.524330 0.188510 -0.325605
O6    O     O_3   0.095420 0.475670 0.688510 -0.328048
O7    O     O_3   0.595420 0.024330 0.188510 -0.325619
O8    O     O_3   0.595420 0.975670 0.688510 -0.328059
O9    O     O_3   0.028940 0.612400 0.656050 -0.279025
O10   O     O_3   0.028940 0.387600 0.156050 -0.277855
O11   O     O_3   0.528940 0.112400 0.656050 -0.279014
O12   O     O_3   0.528940 0.887600 0.156050 -0.277874
O13   O     O_2   0.160556 0.645379 0.817212 -0.226135
O14   O     O_2   0.160623 0.354622 0.316828 -0.227233
O15   O     O_2   0.660553 0.145383 0.817178 -0.226118
O16   O     O_2   0.660637 0.854639 0.316858 -0.227222
O17   O     O_3   0.270679 0.529822 0.218464 -0.503860
O18   O     O_3   0.270331 0.469422 0.713833 -0.506859
O19   O     O_3   0.770698 0.029852 0.218478 -0.503876
O20   O     O_3   0.770331 0.969426 0.713881 -0.506832
O21   O     O_3   0.065485 0.710798 0.695018 -0.537763
O22   O     O_3   0.065278 0.289394 0.194702 -0.537950
O23   O     O_3   0.565468 0.210800 0.695016 -0.537755
O24   O     O_3   0.565290 0.789408 0.194742 -0.537941
C1    C     C_3   0.970278 0.774265 0.649708 0.717121
C2    C     C_3   0.969179 0.226631 0.147163 0.720602
C3    C     C_3   0.470265 0.274266 0.649690 0.717120
C4    C     C_3   0.469182 0.726652 0.147168 0.720634
P5    P     P_3+3 0.829210 0.554130 0.532500 0.607168
P6    P     P_3+3 0.829210 0.445870 0.032500 0.607975
P7    P     P_3+3 0.329210 0.054130 0.532500 0.607170
P8    P     P_3+3 0.329210 0.945870 0.032500 0.607979
P9    P     P_3+3 0.897268 0.653097 0.025821 0.617903
P10   P     P_3+3 0.897389 0.346946 0.525377 0.618404
P11   P     P_3+3 0.397270 0.153097 0.025810 0.617916
P12   P     P_3+3 0.397393 0.846945 0.525378 0.618408
O25   O     O_2   0.837400 0.570350 0.710350 -0.314330
O26   O     O_2   0.837400 0.429650 0.210350 -0.312881
O27   O     O_2   0.337400 0.070350 0.710350 -0.314311
O28   O     O_2   0.337400 0.929650 0.210350 -0.312889
O29   O     O_3   0.972820 0.612580 0.035550 -0.318409
O30   O     O_3   0.972820 0.387420 0.535550 -0.318146
O31   O     O_3   0.472820 0.112580 0.035550 -0.318420
O32   O     O_3   0.472820 0.887420 0.535550 -0.318139
O33   O     O_2   0.837241 0.641303 0.870419 -0.264214
O34   O     O_2   0.837271 0.359034 0.370354 -0.264213
O35   O     O_2   0.337245 0.141301 0.870409 -0.264200
O36   O     O_2   0.337272 0.859035 0.370360 -0.264217
O37   O     O_3   0.746855 0.516642 0.487465 -0.495726
O38   O     O_3   0.746974 0.483624 0.987900 -0.496172
O39   O     O_3   0.246857 0.016640 0.487469 -0.495731
O40   O     O_3   0.246970 0.983621 0.987894 -0.496172
O41   O     O_3   0.933668 0.708841 0.995783 -0.447742
O42   O     O_3   0.933754 0.291226 0.494057 -0.447702
O43   O     O_3   0.433679 0.208836 0.995754 -0.447722
O44   O     O_3   0.433768 0.791229 0.494046 -0.447701
C5    C     C_3   0.005246 0.720299 0.108589 0.463325
C6    C     C_3   0.005190 0.279361 0.606732 0.466987
C7    C     C_3   0.505254 0.220295 0.108569 0.463285
C8    C     C_3   0.505201 0.779365 0.606728 0.467026
H1    H     H_    0.019779 0.694937 0.204775 0.026543
H2    H     H_    0.020028 0.304644 0.703014 0.027979
H3    H     H_    0.519789 0.194932 0.204752 0.026513
H4    H     H_    0.520040 0.804650 0.703004 0.028008
C9    C     C_3   0.002771 0.771517 0.171052 0.700724
C10   C     C_3   0.002293 0.228096 0.668375 0.693549
C11   C     C_3   0.502766 0.271510 0.171041 0.700801
C12   C     C_3   0.502302 0.728101 0.668373 0.693468
C13   C     C_3   0.770381 0.529947 0.032104 0.171894
C14   C     C_3   0.770023 0.470262 0.531706 0.172219
C15   C     C_3   0.270370 0.029944 0.032113 0.171894
C16   C     C_3   0.270028 0.970261 0.531712 0.172229
H5    H     H_    0.791169 0.532207 0.159792 0.039321
H6    H     H_    0.790614 0.467983 0.659408 0.038456
H7    H     H_    0.291153 0.032201 0.159802 0.039328
H8    H     H_    0.290629 0.967984 0.659414 0.038478
H9    H     H_    0.817856 0.542007 0.982520 0.103848
H10   H     H_    0.817596 0.458025 0.482458 0.103759
H11   H     H_    0.317849 0.042008 0.982542 0.103837
H12   H     H_    0.317595 0.958024 0.482447 0.103761
C17   C     C_3   0.700150 0.563196 0.971680 0.531227
C18   C     C_3   0.699636 0.437271 0.470878 0.531891
C19   C     C_3   0.200136 0.063191 0.971685 0.531237
C20   C     C_3   0.199640 0.937268 0.470910 0.531847
H13   H     H_    0.720148 0.599901 0.995955 -0.031287
H14   H     H_    0.719445 0.400500 0.495236 -0.031939
H15   H     H_    0.220132 0.099897 0.995963 -0.031296
H16   H     H_    0.219456 0.900498 0.495248 -0.031917
Ba1   Ba    Ba6+2 0.000400 0.534870 0.845190 1.838542
Ba2   Ba    Ba6+2 0.000400 0.465130 0.345190 1.837614
Ba3   Ba    Ba6+2 0.500400 0.034870 0.845190 1.838541
Ba4   Ba    Ba6+2 0.500400 0.965130 0.345190 1.837613
C21   C     C_3   0.283643 0.483379 0.178874 0.749794
C22   C     C_3   0.284241 0.516108 0.678538 0.761734
C23   C     C_3   0.783710 0.983418 0.178869 0.749977
C24   C     C_3   0.784208 0.016107 0.678489 0.761717
C25   C     C_3   0.371212 0.466441 0.251145 0.688063
C26   C     C_3   0.374564 0.530039 0.747615 0.672037
C27   C     C_3   0.871313 0.966513 0.251157 0.687496
C28   C     C_3   0.874508 0.030083 0.747592 0.671837
O45   O     O_3   0.904940 0.476110 0.001150 -0.350265
O46   O     O_3   0.904940 0.523890 0.501150 -0.349972
O47   O     O_3   0.404940 0.976110 0.001150 -0.350256
O48   O     O_3   0.404940 0.023890 0.501150 -0.349969
P13   P     P_3+3 0.099919 0.344880 0.160330 0.652300
P14   P     P_3+3 0.099791 0.655110 0.660642 0.652833
P15   P     P_3+3 0.599936 0.844891 0.160364 0.652328
P16   P     P_3+3 0.599778 0.155116 0.660622 0.652833
C29   C     C_3   0.985559 0.720988 0.618137 0.866787
C30   C     C_3   0.985353 0.279728 0.116731 0.865911
C31   C     C_3   0.485546 0.220990 0.618116 0.866785
C32   C     C_3   0.485367 0.779746 0.116748 0.865918
H17   H     H_    0.034728 0.772433 0.295498 0.063819
H18   H     H_    0.033889 0.227011 0.792978 0.068564
H19   H     H_    0.534731 0.272428 0.295482 0.063802
H20   H     H_    0.533897 0.727016 0.792977 0.068623
C33   C     C_2   0.864842 0.384735 0.789037 0.123741
C34   C     C_2   0.864967 0.615296 0.289624 0.122055
C35   C     C_2   0.364847 0.884735 0.789039 0.123757
C36   C     C_2   0.364966 0.115294 0.289612 0.122038
C37   C     C_R   0.137036 0.616139 0.398102 -0.394660
C38   C     C_R   0.137076 0.383838 0.897399 -0.398842
C39   C     C_R   0.637020 0.116143 0.398083 -0.394781
C40   C     C_R   0.637078 0.883842 0.897417 -0.398856
C41   C     C_2   0.744410 0.368198 0.866930 -0.167762
C42   C     C_2   0.744917 0.632303 0.368831 -0.167151
C43   C     C_2   0.244420 0.868192 0.866942 -0.167729
C44   C     C_2   0.244916 0.132301 0.368816 -0.167137
C45   C     C_2   0.814947 0.393519 0.897733 0.165855
C46   C     C_2   0.815205 0.606639 0.398592 0.165645
C47   C     C_2   0.314952 0.893517 0.897736 0.165850
C48   C     C_2   0.315204 0.106637 0.398583 0.165633
C49   C     C_2   0.843826 0.350742 0.676644 0.080069
C50   C     C_2   0.843815 0.649284 0.177274 0.078052
C51   C     C_2   0.343835 0.850739 0.676652 0.080082
C52   C     C_2   0.343816 0.149284 0.177263 0.078083
C53   C     C_3   0.779847 0.318675 0.681002 -0.033246
C54   C     C_3   0.779997 0.681539 0.182092 -0.033091
C55   C     C_3   0.279861 0.818669 0.681019 -0.033266
C56   C     C_3   0.279995 0.181537 0.182073 -0.033060
C57   C     C_3   0.717111 0.342758 0.724914 0.156177
C58   C     C_3   0.717405 0.657827 0.227106 0.159600
C59   C     C_3   0.217123 0.842750 0.724929 0.156185
C60   C     C_3   0.217404 0.157823 0.227087 0.159539
C61   C     C_2   0.747915 0.279764 0.558096 0.217131
C62   C     C_2   0.747775 0.720213 0.058603 0.214498
C63   C     C_2   0.247933 0.779755 0.558119 0.217163
C64   C     C_2   0.247771 0.220210 0.058581 0.214465
C65   C     C_2   0.231398 0.735400 0.600277 0.391783
C66   C     C_2   0.231890 0.264766 0.100237 0.392426
C67   C     C_2   0.731382 0.235408 0.600248 0.391782
C68   C     C_2   0.731896 0.764770 0.100260 0.392382
C69   C     C_R   0.243363 0.686346 0.363271 0.299964
C70   C     C_R   0.243225 0.313332 0.862099 0.301638
C71   C     C_R   0.743320 0.186363 0.363218 0.299928
C72   C     C_R   0.743223 0.813333 0.862118 0.301571
C73   C     C_R   0.205379 0.693742 0.488302 -0.237405
C74   C     C_R   0.205527 0.306197 0.987628 -0.233712
C75   C     C_R   0.705352 0.193753 0.488268 -0.237427
C76   C     C_R   0.705530 0.806200 0.987651 -0.233761
C77   C     C_R   0.229285 0.643865 0.262444 0.232664
C78   C     C_R   0.229153 0.355843 0.761309 0.237691
C79   C     C_R   0.729242 0.143881 0.262398 0.232721
C80   C     C_R   0.729149 0.855843 0.761327 0.237670
C81   C     C_R   0.177207 0.610582 0.272631 0.174026
C82   C     C_R   0.177478 0.389400 0.772396 0.168755
C83   C     C_R   0.677188 0.110586 0.272613 0.173998
C84   C     C_R   0.677478 0.889402 0.772410 0.168657
C85   C     C_R   0.150876 0.654559 0.504582 0.236094
C86   C     C_R   0.150866 0.345388 0.003819 0.240576
C87   C     C_R   0.650855 0.154567 0.504553 0.236164
C88   C     C_R   0.650872 0.845393 0.003841 0.240611
H21   H     H_    0.703555 0.374760 0.934664 0.239356
H22   H     H_    0.704212 0.625866 0.436897 0.239303
H23   H     H_    0.203566 0.874751 0.934681 0.239360
H24   H     H_    0.204211 0.125865 0.436883 0.239303
H25   H     H_    0.101907 0.587089 0.417453 0.230407
H26   H     H_    0.101627 0.412873 0.916216 0.228222
H27   H     H_    0.601892 0.087092 0.417433 0.230414
H28   H     H_    0.601634 0.912879 0.916239 0.228214
Cl1   Cl    Cl    0.920001 0.681939 0.674573 -0.447824
Cl2   Cl    Cl    0.919660 0.319012 0.172580 -0.448466
Cl3   Cl    Cl    0.419983 0.181939 0.674529 -0.447844
Cl4   Cl    Cl    0.419666 0.819029 0.172576 -0.448484
Br1   Br    Br    0.617924 0.551376 0.070468 -0.223361
Br2   Br    Br    0.617119 0.449558 0.568895 -0.217644
Br3   Br    Br    0.117905 0.051368 0.070460 -0.223365
Br4   Br    Br    0.117143 0.949546 0.568984 -0.217843
Cl5   Cl    Cl    0.659997 0.558404 0.768052 -0.365319
Cl6   Cl    Cl    0.659866 0.442055 0.267151 -0.370058
Cl7   Cl    Cl    0.159988 0.058402 0.768055 -0.365373
Cl8   Cl    Cl    0.159844 0.942056 0.267189 -0.370008
Cl9   Cl    Cl    0.264067 0.483146 0.988384 -0.623038
Cl10  Cl    Cl    0.254625 0.519935 0.487687 -0.620898
Cl11  Cl    Cl    0.764107 0.983216 0.988377 -0.622923
Cl12  Cl    Cl    0.754656 0.019855 0.487625 -0.620819
Br5   Br    Br    0.210668 0.440194 0.213714 -0.360486
Br6   Br    Br    0.213666 0.559874 0.720941 -0.355225
Br7   Br    Br    0.710764 0.940188 0.213662 -0.360599
Br8   Br    Br    0.713573 0.059873 0.720722 -0.355323
Br9   Br    Br    0.447078 0.516584 0.262879 -0.107014
Br10  Br    Br    0.441691 0.476101 0.829733 -0.108642
Br11  Br    Br    0.947158 0.016781 0.263753 -0.106743
Br12  Br    Br    0.941795 0.976122 0.829109 -0.108426
Cl13  Cl    Cl    0.398522 0.418347 0.147622 -0.360586
Cl14  Cl    Cl    0.417334 0.559296 0.614546 -0.354779
Cl15  Cl    Cl    0.898846 0.918532 0.147225 -0.360128
Cl16  Cl    Cl    0.917147 0.059597 0.614661 -0.354708
Br13  Br    Br    0.391798 0.442423 0.457308 -0.175787
Br14  Br    Br    0.394328 0.573342 0.918587 -0.154199
Br15  Br    Br    0.891764 0.942297 0.457137 -0.175738
Br16  Br    Br    0.894198 0.073218 0.919099 -0.154360
Cl17  Cl    Cl    0.962873 0.709446 0.421536 -0.755596
Cl18  Cl    Cl    0.963804 0.291391 0.920236 -0.757294
Cl19  Cl    Cl    0.462873 0.209448 0.421516 -0.755603
Cl20  Cl    Cl    0.463839 0.791412 0.920255 -0.757310
Cl21  Cl    Cl    0.933381 0.811252 0.488109 -0.380067
Cl22  Cl    Cl    0.931335 0.190653 0.984346 -0.388734
Cl23  Cl    Cl    0.433369 0.311253 0.488093 -0.379986
Cl24  Cl    Cl    0.431339 0.690688 0.984333 -0.388855
Br17  Br    Br    0.901776 0.782325 0.777085 -0.242933
Br18  Br    Br    0.900017 0.218768 0.273237 -0.242058
Br19  Br    Br    0.401761 0.282322 0.777066 -0.242959
Br20  Br    Br    0.399994 0.718788 0.273192 -0.242094
Br21  Br    Br    0.290159 0.635773 0.120652 -0.153933
Br22  Br    Br    0.288930 0.363331 0.617320 -0.155322
Br23  Br    Br    0.790064 0.135825 0.120525 -0.153933
Br24  Br    Br    0.788918 0.863320 0.617333 -0.155276
Cl25  Cl    Cl    0.947918 0.419996 0.802341 -0.604108
Cl26  Cl    Cl    0.948122 0.579947 0.302631 -0.604023
Cl27  Cl    Cl    0.447920 0.919998 0.802338 -0.604087
Cl28  Cl    Cl    0.448114 0.079940 0.302607 -0.604021
Br25  Br    Br    0.709765 0.296617 0.346038 -0.382003
Br26  Br    Br    0.708134 0.702858 0.847286 -0.386877
Br27  Br    Br    0.209795 0.796599 0.346054 -0.381974
Br28  Br    Br    0.208139 0.202855 0.847261 -0.386868
Br29  Br    Br    0.254188 0.726060 0.818980 -0.236410
Br30  Br    Br    0.256265 0.274709 0.318914 -0.235655
Br31  Br    Br    0.754193 0.226063 0.818952 -0.236394
Br32  Br    Br    0.756270 0.774715 0.318934 -0.235693
Br33  Br    Br    0.064356 0.807114 0.754054 -0.297008
Br34  Br    Br    0.062592 0.192681 0.249462 -0.296074
Br35  Br    Br    0.564343 0.307116 0.754038 -0.297017
Br36  Br    Br    0.562586 0.692691 0.249458 -0.296058
Br37  Br    Br    0.094673 0.711248 0.030099 -0.366823
Br38  Br    Br    0.094863 0.288154 0.528898 -0.368168
Br39  Br    Br    0.594683 0.211262 0.030075 -0.366830
Br40  Br    Br    0.594880 0.788155 0.528910 -0.368162
Cl29  Cl    Cl    0.046677 0.817121 0.089210 -0.347193
Cl30  Cl    Cl    0.046303 0.182528 0.585933 -0.349861
Cl31  Cl    Cl    0.546638 0.317126 0.089182 -0.347173
Cl32  Cl    Cl    0.546304 0.682531 0.585923 -0.349923
Cl33  Cl    Cl    0.904909 0.791333 0.144340 -0.450172
Cl34  Cl    Cl    0.904366 0.208409 0.640683 -0.463166
Cl35  Cl    Cl    0.404895 0.291302 0.144350 -0.450119
Cl36  Cl    Cl    0.404375 0.708419 0.640677 -0.463345

loop_
_geom_bond_atom_site_label_1
_geom_bond_atom_site_label_2
_geom_bond_distance
_ccdc_geom_bond_type
O7    Ba4   2.998611 S    
O42   C6    1.418527 S    
O10   P13   1.733797 S    
C23   C27   1.572033 S    
C66   Br30  1.921806 S    
Ba2   O45   3.106248 S    
P1    O17   1.796875 S    
Ba1   Ba2   4.934084 S    
O18   C22   1.401540 S    
C3    Br19  1.903162 S    
C42   C58   1.432172 A    
Ba3   Ba4   4.934084 S    
C39   H27   1.075910 S    
C54   C58   1.446922 A    
P3    O19   1.796853 S    
O37   C14   1.402447 S    
P6    O26   1.639525 D    
O14   P13   1.539363 D    
C1    Br17  1.903156 S    
P11   O43   1.758535 S    
P4    O4    1.637777 D    
C37   C85   1.429319 A    
O13   P14   1.539876 D    
C10   Cl30  1.775706 S    
C69   C77   1.489617 S    
C53   C61   1.555458 S    
C2    Cl22  1.761066 S    
P2    O2    1.637777 D    
O15   P16   1.539855 D    
C1    Cl21  1.767235 S    
C32   Cl4   1.779191 S    
P1    Ba1   3.546765 S    
C15   H7    1.110091 S    
C4    Br36  1.905959 S    
P1    O1    1.638177 D    
C72   C76   1.482475 S    
P11   O31   1.741801 S    
C10   Cl34  1.765206 S    
C27   Br11  1.938692 S    
C9    Cl33  1.764641 S    
C19   H15   1.102549 S    
C20   Cl8   1.781453 S    
O11   Ba3   2.918241 S    
P4    O20   1.784913 S    
O20   C24   1.401517 S    
C39   C83   1.505532 S    
O16   P15   1.539347 D    
P12   C51   1.871646 S    
C35   C51   1.374279 D    
C24   C28   1.588500 S    
C73   C85   1.505492 S    
C6    C10   1.564776 S    
O28   Ba4   2.965145 S    
C11   Cl31  1.775158 S    
C69   C73   1.482355 S    
C33   C49   1.374270 D    
O41   C5    1.418866 S    
C2    Br18  1.903361 S    
C34   C46   1.513365 S    
C49   C53   1.460079 A    
P7    O48   1.676272 S    
C42   H22   1.085047 S    
Ba1   O45   2.992902 S    
P11   O35   1.538648 D    
P4    Ba4   3.545694 S    
C51   C55   1.460079 A    
P5    C46   1.892282 S    
C26   Br14  1.927985 S    
O25   Ba1   2.962162 S    
C4    Br20  1.903380 S    
C25   Br13  1.920843 S    
C62   Br26  1.904621 S    
O30   Ba2   2.923412 S    
P2    O18   1.784886 S    
O27   Ba3   2.962162 S    
C16   H8    1.110125 S    
O8    Ba3   2.994317 S    
C43   C59   1.432850 A    
C28   Br12  1.949004 S    
C32   Cl20  1.740496 S    
C68   Br32  1.921788 S    
C16   C20   1.529098 S    
C41   C57   1.432846 A    
C38   C86   1.429858 A    
C56   C60   1.446916 A    
C8    C12   1.564746 S    
C31   Cl3   1.778729 S    
Ba4   O48   2.988620 S    
C75   C87   1.505498 S    
C78   Br22  1.904504 S    
O40   C15   1.402690 S    
P4    C84   1.922287 S    
P8    O47   1.678878 S    
C77   Br21  1.903773 S    
C3    Br35  1.905886 S    
C42   C46   1.395719 A    
C1    Br33  1.905862 S    
C12   Cl32  1.775701 S    
C63   C65   1.371274 D    
C25   Br9   1.937407 S    
C3    C31   1.575730 S    
C4    Cl24  1.760936 S    
C36   C52   1.374011 D    
O24   P15   1.749821 S    
C77   C81   1.339940 D    
C7    H3    1.102078 S    
C16   H12   1.110111 S    
O12   Ba4   2.915341 S    
O24   C32   1.413713 S    
P10   O34   1.538277 D    
C22   Cl10  1.659268 S    
C29   Cl17  1.739314 S    
P15   C88   1.878156 S    
C44   C60   1.432170 A    
C40   H28   1.075687 S    
C21   Cl9   1.658230 S    
P2    Ba2   3.545694 S    
C6    H2    1.101224 S    
P1    O5    1.663285 S    
P5    O37   1.754506 S    
C34   C50   1.373996 D    
C18   H14   1.102573 S    
C18   Br2   1.936541 S    
C27   Cl15  1.796598 S    
C36   C48   1.513379 S    
P13   C86   1.878197 S    
C26   Cl14  1.794961 S    
C79   C83   1.339944 D    
P1    C81   1.922675 S    
O6    Ba1   2.994317 S    
C25   Cl13  1.795196 S    
P12   O36   1.538277 D    
C40   C88   1.429864 A    
C37   H25   1.075911 S    
P7    O39   1.754513 S    
C14   C18   1.529092 S    
O9    Ba1   2.918241 S    
P7    C48   1.892305 S    
C55   C59   1.447003 A    
O22   C30   1.413720 S    
C70   C74   1.482508 S    
O9    P14   1.734555 S    
P8    O40   1.754661 S    
O21   C29   1.413761 S    
Ba1   O46   3.106475 S    
C80   Br24  1.904391 S    
O38   C13   1.402689 S    
O17   C21   1.401126 S    
O19   C23   1.401157 S    
P8    Ba4   3.548047 S    
C61   Br25  1.904984 S    
C64   Br28  1.904632 S    
C41   C45   1.395932 A    
C6    Br38  1.920391 S    
C44   C48   1.395715 A    
C29   Cl1   1.778727 S    
C12   H20   1.107280 S    
C40   C84   1.505026 S    
C65   Br29  1.921789 S    
C20   H16   1.102577 S    
C4    C32   1.573298 S    
C17   H13   1.102551 S    
C79   Br23  1.903572 S    
C26   Br10  1.948216 S    
O22   P13   1.749850 S    
C28   Br16  1.928655 S    
P9    O33   1.538656 D    
Ba3   O47   2.992902 S    
O21   P14   1.750400 S    
C13   H9    1.110022 S    
C3    Cl23  1.767218 S    
O39   C16   1.402449 S    
C24   Cl12  1.659218 S    
C15   C19   1.528860 S    
C34   Cl26  1.751676 S    
Ba4   O47   3.106248 S    
C64   C66   1.370358 D    
O29   Ba1   2.920548 S    
C78   C82   1.340224 D    
C33   Cl25  1.751563 S    
P9    C50   1.872075 S    
C50   C54   1.459673 A    
C35   Cl27  1.751571 S    
C17   Cl5   1.781361 S    
P8    O28   1.639525 D    
P4    O8    1.660773 S    
C28   Cl16  1.795975 S    
C11   Cl35  1.764585 S    
P9    O29   1.741844 S    
P2    O6    1.660773 S    
P8    C47   1.892812 S    
C8    H4    1.101217 S    
O31   Ba3   2.920548 S    
C15   H11   1.110025 S    
P3    Ba3   3.546765 S    
C37   C81   1.505571 S    
C70   C78   1.490267 S    
C19   Br3   1.935484 S    
C14   H10   1.110108 S    
P14   C85   1.876243 S    
C5    C9    1.564500 S    
P12   O32   1.741810 S    
C1    C29   1.575741 S    
P11   C52   1.872084 S    
Ba2   O46   2.988620 S    
C43   H23   1.085021 S    
C55   C63   1.555467 S    
C2    Br34  1.905939 S    
C35   C47   1.513035 S    
C23   Br7   1.869264 S    
O26   Ba2   2.965145 S    
P6    O45   1.678878 S    
O43   C7    1.418869 S    
O11   P16   1.734540 S    
C66   C74   1.538901 S    
O32   Ba4   2.923412 S    
P5    O46   1.676272 S    
P6    Ba2   3.548047 S    
C7    C11   1.564463 S    
C39   C87   1.429344 A    
P5    Ba1   3.546912 S    
C7    Br39  1.920016 S    
O23   P16   1.750368 S    
C9    Cl29  1.775145 S    
O1    Ba1   2.961921 S    
C12   Cl36  1.765160 S    
C74   C86   1.504629 S    
C21   Br5   1.868941 S    
C20   Br4   1.936548 S    
O3    Ba3   2.961921 S    
C76   C88   1.504633 S    
C43   C47   1.395933 A    
P6    C45   1.892795 S    
C11   H19   1.107319 S    
C44   H24   1.085046 S    
O44   C8    1.418523 S    
C67   C75   1.540173 S    
C54   C62   1.554267 S    
C52   C56   1.459664 A    
C61   C67   1.371277 D    
P7    O27   1.639130 D    
P5    O25   1.639130 D    
C13   C17   1.528849 S    
P2    C82   1.922272 S    
C22   C26   1.588524 S    
C18   Cl6   1.781449 S    
C27   Br15  1.921540 S    
C24   Br8   1.871712 S    
P6    O38   1.754660 S    
P3    C83   1.922734 S    
C41   H21   1.085018 S    
C63   Br27  1.904979 S    
C10   H18   1.107280 S    
C22   Br6   1.871550 S    
O5    Ba2   2.998611 S    
C9    H17   1.107322 S    
C53   C57   1.447004 A    
P10   C49   1.871649 S    
C71   C79   1.489588 S    
C2    C30   1.573348 S    
C71   C75   1.482298 S    
O4    Ba4   2.959021 S    
C72   C80   1.490244 S    
C5    H1    1.102063 S    
C21   C25   1.571778 S    
P10   O30   1.741846 S    
P3    O7    1.663285 S    
Ba3   O48   3.106475 S    
C30   Cl18  1.740470 S    
C19   Cl7   1.781365 S    
C36   Cl28  1.751672 S    
C8    Br40  1.920368 S    
C80   C84   1.340222 D    
P16   C87   1.876209 S    
P3    O3    1.638177 D    
C68   C76   1.538897 S    
C5    Br37  1.920041 S    
C14   H6    1.110125 S    
O2    Ba2   2.959021 S    
C23   Cl11  1.658204 S    
P12   O44   1.758339 S    
C13   H5    1.110087 S    
C30   Cl2   1.779189 S    
C38   H26   1.075676 S    
C62   C68   1.370361 D    
C38   C82   1.505036 S    
C33   C45   1.513028 S    
C17   Br1   1.935457 S    
P10   O42   1.758344 S    
O10   Ba2   2.915341 S    
C65   C73   1.540181 S    
P9    O41   1.758551 S    
C56   C64   1.554272 S    
O12   P15   1.733742 S    
C67   Br31  1.921782 S    
P7    Ba3   3.546912 S    
C31   Cl19  1.739323 S    
O23   C31   1.413743 S    
