data_mof_unit_54387.cif
_audit_creation_date              2012-12-10T19:05:23-0500
_audit_creation_method            fapswitch 2.2
_symmetry_space_group_name_H-M    P1
_symmetry_Int_Tables_number       1
_space_group_crystal_system       triclinic
_cell_length_a                    9.556884
_cell_length_b                    10.811777
_cell_length_c                    17.370468
_cell_angle_alpha                 90.398886
_cell_angle_beta                  86.181051
_cell_angle_gamma                 89.968814
_cell_volume                      1790.80683039

loop_
_atom_site_label
_atom_site_type_symbol
_atom_type_description
_atom_site_fract_x
_atom_site_fract_y
_atom_site_fract_z
_atom_type_partial_charge
C1    C     C_R   0.499965 0.737518 0.499047 0.808122
C2    C     C_R   0.527153 0.506095 0.266050 -0.028377
C3    C     C_R   0.375801 0.936188 0.511821 0.135301
C4    C     C_R   0.481918 0.498475 0.649769 0.797685
C5    C     C_R   0.499100 0.870519 0.492949 -0.090856
C6    C     C_R   0.619164 0.934729 0.464630 -0.200583
C7    C     C_R   0.618718 0.063735 0.464271 -0.211997
C8    C     C_R   0.499007 0.128907 0.493119 -0.090772
C9    C     C_R   0.375788 0.063584 0.512214 0.119352
C10   C     C_3   0.281093 0.069842 0.584233 -0.470064
C11   C     C_3   0.280452 0.929538 0.583328 -0.467506
C12   C     C_R   0.342690 0.499780 0.776015 -0.199284
C13   C     C_R   0.933163 0.436546 0.444518 0.224096
C14   C     C_R   0.920708 0.573985 0.549329 0.033932
C15   C     C_R   0.069361 0.573128 0.549393 -0.116522
C16   C     C_R   0.499997 0.262323 0.499003 0.802407
C17   C     C_R   0.080556 0.437163 0.444179 0.214837
C18   C     C_3   0.089351 0.301935 0.427492 -0.258900
C19   C     C_3   0.930120 0.300913 0.428627 -0.548316
C20   C     C_R   0.518080 0.501073 0.350225 0.793344
C21   C     C_R   0.472922 0.491763 0.733898 -0.028870
C22   C     C_R   0.595354 0.473980 0.772674 -0.184366
C23   C     C_R   0.412069 0.528658 0.147212 -0.139420
C24   C     C_R   0.588182 0.466168 0.852442 -0.146975
C25   C     C_R   0.458497 0.477874 0.894752 0.189918
C26   C     C_R   0.335657 0.492368 0.856122 -0.166442
C27   C     C_1   0.843999 0.654622 0.603152 0.282551
C28   C     C_1   0.158743 0.276278 0.350959 0.293706
C29   C     C_R   0.404811 0.523041 0.227066 -0.173005
C30   C     C_R   0.657376 0.496604 0.224052 -0.194462
C31   C     C_R   0.664518 0.501995 0.143883 -0.165655
C32   C     C_R   0.541785 0.515794 0.105072 0.187986
C33   C     C_2   0.448491 0.475169 0.979212 -0.224115
C34   C     C_2   0.552077 0.517493 0.020611 -0.224986
Cu1   Cu    Cu3+1 0.359330 0.500020 0.500000 0.946816
Cu2   Cu    Cu3+1 0.640670 0.499980 0.500000 0.955523
H1    H     H_    0.696852 0.465031 0.741457 0.156904
H2    H     H_    0.131711 0.247315 0.474429 0.170771
H3    H     H_    0.886510 0.279470 0.372238 0.193905
H4    H     H_    0.882321 0.248673 0.478510 0.206958
H5    H     H_    0.648714 0.552162 0.992252 0.146015
H6    H     H_    0.234683 0.500156 0.888065 0.124061
H7    H     H_    0.316272 0.544678 0.118920 0.124194
H8    H     H_    0.246632 0.512430 0.747240 0.150903
H9    H     H_    0.351835 0.440559 0.007588 0.147754
H10   H     H_    0.684076 0.449584 0.880530 0.124184
H11   H     H_    0.712658 0.111759 0.443581 0.156103
H12   H     H_    0.765509 0.493337 0.112051 0.125082
H13   H     H_    0.753350 0.484370 0.252975 0.152347
H14   H     H_    0.714059 0.885782 0.445112 0.163005
H15   H     H_    0.333425 0.110177 0.633907 0.199727
H16   H     H_    0.176953 0.110154 0.574427 0.193747
H17   H     H_    0.331762 0.888047 0.632667 0.197972
H18   H     H_    0.176658 0.889498 0.571908 0.198100
H19   H     H_    0.121600 0.630324 0.590105 0.139494
H20   H     H_    0.303327 0.532945 0.258180 0.157419
N1    N     N_R   0.852130 0.499070 0.499500 -0.205446
N2    N     N_R   0.148040 0.499110 0.499500 -0.197515
N3    N     N_1   0.783223 0.720014 0.646580 -0.304729
N4    N     N_1   0.213571 0.256020 0.290774 -0.299857
O1    O     O_R   0.381190 0.680360 0.500000 -0.582485
O2    O     O_R   0.618770 0.680320 0.499990 -0.578897
O3    O     O_R   0.367430 0.500040 0.613600 -0.592196
O4    O     O_R   0.605020 0.500000 0.613590 -0.579069
O5    O     O_R   0.381230 0.319680 0.500010 -0.584908
O6    O     O_R   0.618810 0.319640 0.500000 -0.584805
O7    O     O_R   0.394980 0.500000 0.386410 -0.583756
O8    O     O_R   0.632570 0.499960 0.386400 -0.589084

loop_
_geom_bond_atom_site_label_1
_geom_bond_atom_site_label_2
_ccdc_geom_bond_type
Cu1   O3    S    
Cu2   O8    S    
C18   C28   S    
C6    C7    A    
C3    C9    A    
C29   H20   S    
Cu1   O7    S    
C14   C27   S    
C33   H9    S    
C9    C10   S    
C4    O4    A    
C20   O7    A    
Cu1   Cu2   S    
C11   H17   S    
C13   C17   A    
C17   N2    A    
C2    C30   A    
C10   H16   S    
C23   C32   A    
C33   C34   D    
C18   H2    S    
C24   H10   S    
C7    C8    A    
Cu1   O1    S    
C27   N3    T    
C21   C22   A    
C1    O2    A    
C4    C21   S    
C34   H5    S    
C4    O3    A    
C5    C6    A    
C11   H18   S    
C19   H3    S    
C2    C29   A    
C1    C5    S    
C10   H15   S    
C23   C29   A    
C30   H13   S    
C17   C18   S    
C22   C24   A    
C31   H12   S    
C28   N4    T    
C12   C26   A    
C30   C31   A    
C15   N2    A    
Cu2   O6    S    
C3    C11   S    
C10   C11   S    
Cu1   O5    S    
C2    C20   S    
C3    C5    A    
C13   N1    A    
C24   C25   A    
C26   H6    S    
C8    C16   S    
C18   C19   S    
C19   H4    S    
C7    H11   S    
C25   C33   S    
C14   N1    A    
C13   C19   S    
C14   C15   A    
C12   H8    S    
Cu2   N1    S    
Cu1   N2    S    
C16   O5    A    
C32   C34   S    
C25   C26   A    
Cu2   O4    S    
C22   H1    S    
C23   H7    S    
C12   C21   A    
C20   O8    A    
C6    H14   S    
C31   C32   A    
C1    O1    A    
C8    C9    A    
Cu2   O2    S    
C16   O6    A    
C15   H19   S    
