data_mof_unit_35989.cif
_audit_creation_date              2012-12-11T17:06:35-0500
_audit_creation_method            fapswitch 2.2
_symmetry_space_group_name_H-M    P1
_symmetry_Int_Tables_number       1
_space_group_crystal_system       triclinic
_cell_length_a                    6.962667
_cell_length_b                    14.508127
_cell_length_c                    15.957468
_cell_angle_alpha                 90.483462
_cell_angle_beta                  90.002723
_cell_angle_gamma                 90.001299
_cell_volume                      1611.89034543

loop_
_atom_site_label
_atom_site_type_symbol
_atom_type_description
_atom_site_fract_x
_atom_site_fract_y
_atom_site_fract_z
_atom_type_partial_charge
O1    O     O_R   0.494400 0.415450 0.412630 -0.537809
O2    O     O_R   0.823940 0.405730 0.586760 -0.542856
O3    O     O_R   0.994240 0.584550 0.587370 -0.537831
C1    C     C_R   0.655166 0.383599 0.615288 0.696986
O4    O     O_R   0.824110 0.404430 0.413240 -0.541389
O5    O     O_R   0.994420 0.583240 0.412620 -0.537032
C2    C     C_R   0.655390 0.382224 0.384268 0.689362
O6    O     O_R   0.494230 0.416760 0.587380 -0.536572
O7    O     O_3   0.660800 0.558670 0.500000 -0.369114
V1    V     V_3+5 0.935650 0.489120 0.500000 1.386548
O8    O     O_R   0.324140 0.594270 0.413240 -0.541796
C3    C     C_R   0.155157 0.616101 0.384317 0.699122
O9    O     O_R   0.323960 0.595570 0.586760 -0.542369
C4    C     C_R   0.155205 0.617702 0.615573 0.674664
V2    V     V_3+5 0.435660 0.510880 0.500000 1.389534
O10   O     O_3   0.160640 0.441330 0.500000 -0.369646
C5    C     C_3   0.055903 0.667851 0.772260 -0.143285
C6    C     C_3   0.229068 0.716406 0.814814 -0.141624
H1    H     H_    0.308097 0.690693 0.870333 0.099543
H2    H     H_    0.992393 0.601203 0.791766 0.096128
C7    C     C_3   0.121150 0.808821 0.810188 -0.005848
C8    C     C_3   0.947785 0.761070 0.768429 -0.113721
C9    C     C_3   0.036952 0.779777 0.681245 -0.141301
C10   C     C_3   0.210117 0.828331 0.723797 -0.142572
C11   C     C_3   0.318236 0.735110 0.727627 -0.114951
C12   C     C_3   0.144865 0.687359 0.685866 -0.004974
H3    H     H_    0.794924 0.771998 0.785612 0.106384
H4    H     H_    0.957913 0.805499 0.625734 0.098847
H5    H     H_    0.273609 0.894989 0.704300 0.098339
H6    H     H_    0.471098 0.724180 0.710447 0.106319
C13   C     C_R   0.267341 0.745801 0.184027 0.050091
C14   C     C_R   0.117974 0.810196 0.178905 -0.105060
C15   C     C_R   0.969531 0.803446 0.238671 -0.175572
H7    H     H_    0.849103 0.850434 0.236630 0.121254
C16   C     C_R   0.981803 0.740325 0.305305 -0.182521
H8    H     H_    0.869785 0.740159 0.352287 0.127978
C17   C     C_R   0.142271 0.681771 0.313843 -0.136093
C18   C     C_R   0.278624 0.682920 0.249309 0.101422
C19   C     C_3   0.492582 0.689222 0.252367 -0.026767
C20   C     C_3   0.479777 0.758222 0.180741 -0.386472
H9    H     H_    0.545345 0.719845 0.312125 0.139654
H10   H     H_    0.541376 0.733508 0.120303 0.175468
H11   H     H_    0.523071 0.829198 0.199363 0.148012
C21   C     C_R   0.491405 0.251526 0.686981 0.100207
C22   C     C_R   0.647040 0.312227 0.680826 -0.110327
C23   C     C_R   0.799610 0.300744 0.737677 -0.180808
H12   H     H_    0.922470 0.346093 0.735294 0.128643
C24   C     C_R   0.788520 0.235211 0.802097 -0.181339
H13   H     H_    0.903991 0.231351 0.847223 0.128919
C25   C     C_R   0.624019 0.179762 0.811739 -0.108418
C26   C     C_R   0.479989 0.186978 0.750957 0.095828
C27   C     C_3   0.270030 0.202455 0.761994 -0.414847
C28   C     C_3   0.282383 0.272492 0.691976 -0.394765
H14   H     H_    0.236199 0.233899 0.824002 0.170175
H15   H     H_    0.184175 0.140459 0.744985 0.170481
H16   H     H_    0.255005 0.344482 0.713211 0.165364
H17   H     H_    0.204244 0.250868 0.634328 0.173302
C29   C     C_R   0.490868 0.251377 0.308742 0.100974
C30   C     C_R   0.647357 0.311393 0.317009 -0.109464
C31   C     C_R   0.799730 0.300606 0.259746 -0.176888
H18   H     H_    0.922828 0.345747 0.263418 0.132121
C32   C     C_R   0.788219 0.236135 0.193386 -0.181897
H19   H     H_    0.903897 0.232645 0.148288 0.129274
C33   C     C_R   0.623315 0.181147 0.182018 -0.109179
C34   C     C_R   0.479036 0.187886 0.242864 0.097749
C35   C     C_3   0.269505 0.204490 0.231878 -0.415030
C36   C     C_3   0.282343 0.273318 0.303910 -0.395939
H20   H     H_    0.182313 0.142613 0.246929 0.171820
H21   H     H_    0.236881 0.237075 0.170720 0.169925
H22   H     H_    0.203172 0.251104 0.360762 0.173267
H23   H     H_    0.256477 0.345748 0.284670 0.167503
O11   O     O_R   0.771650 0.079500 0.908680 -0.539844
O12   O     O_R   0.441690 0.091800 0.082800 -0.539796
O13   O     O_R   0.271460 0.912980 0.083410 -0.536905
C37   C     C_R   0.610690 0.114329 0.111537 0.691333
O14   O     O_R   0.441930 0.090510 0.909280 -0.540186
O15   O     O_R   0.271690 0.911670 0.908660 -0.536765
C38   C     C_R   0.611007 0.112827 0.880918 0.695574
O16   O     O_R   0.771410 0.080810 0.083440 -0.540744
O17   O     O_3   0.605100 0.937580 0.996050 -0.368430
V3    V     V_3+5 0.330220 0.007110 0.996030 1.391321
O18   O     O_R   0.941980 0.900620 0.909250 -0.541714
C39   C     C_R   0.110756 0.878486 0.880464 0.680071
O19   O     O_R   0.941740 0.901920 0.082770 -0.542034
C40   C     C_R   0.110454 0.880076 0.111705 0.698904
V4    V     V_3+5 0.830220 0.985300 0.996000 1.390367
O20   O     O_3   0.105210 0.054870 0.996020 -0.371904
C41   C     C_3   0.589967 0.598211 0.228204 -0.745264
H24   H     H_    0.524914 0.567741 0.170687 0.202704
H25   H     H_    0.745117 0.610070 0.216676 0.218549
H26   H     H_    0.574961 0.548412 0.280169 0.209631

loop_
_geom_bond_atom_site_label_1
_geom_bond_atom_site_label_2
_ccdc_geom_bond_type
C35   H20   S    
C6    C7    S    
C16   H8    S    
C1    O6    A    
C19   H9    S    
C22   C23   A    
C27   C28   S    
C17   C18   A    
C5    C12   S    
C16   C17   A    
O19   V4    S    
O5    C3    A    
C18   C19   S    
C35   H21   S    
O15   C39   A    
V2    O10   S    
C5    H2    S    
C13   C20   S    
C31   C32   A    
C6    H1    S    
C9    C12   S    
C2    C30   S    
C3    C17   S    
C10   H5    S    
C32   C33   A    
O8    V2    S    
C21   C28   S    
C20   H11   S    
C7    C39   S    
O17   V4    S    
C9    C10   S    
O1    V2    S    
O7    V1    S    
C27   H15   S    
C20   H10   S    
C35   C36   S    
C30   C31   A    
O9    C4    A    
O12   C37   A    
C6    C11   S    
C19   C41   S    
C25   C38   S    
O12   V3    S    
C27   H14   S    
C5    C6    S    
C1    C22   S    
C23   C24   A    
C26   C27   S    
O19   C40   A    
C10   C11   S    
C19   C20   S    
O4    C2    A    
C28   H17   S    
V4    O20   S    
C25   C26   A    
C29   C30   A    
O18   V4    S    
C31   H18   S    
O2    C1    A    
C32   H19   S    
C29   C34   A    
C13   C14   A    
C41   H26   S    
O15   V3    S    
C15   H7    S    
C9    H4    S    
C4    C12   S    
V3    O20   S    
O3    C4    A    
C21   C26   A    
C24   H13   S    
C41   H25   S    
C34   C35   S    
O6    V2    S    
C8    H3    S    
O9    V2    S    
O13   V3    S    
O2    V1    S    
C21   C22   A    
C28   H16   S    
C11   H6    S    
C23   H12   S    
O1    C2    A    
O14   C38   A    
O17   V3    S    
O14   V3    S    
O5    V1    S    
O11   V4    S    
O8    C3    A    
C5    C8    S    
C13   C18   A    
C36   H22   S    
C14   C15   A    
C11   C12   S    
O4    V1    S    
O3    V1    S    
V1    O10   S    
C33   C34   A    
C14   C40   S    
C24   C25   A    
C15   C16   A    
C33   C37   S    
C36   H23   S    
O13   C40   A    
O7    V2    S    
C29   C36   S    
C41   H24   S    
O18   C39   A    
C7    C10   S    
O11   C38   A    
C8    C9    S    
C7    C8    S    
C37   O16   A    
O16   V4    S    
