data_mof_unit_9938.cif
_audit_creation_date              2012-10-26T20:38:01-0400
_audit_creation_method            fapswitch 2.2
_symmetry_space_group_name_H-M    P1
_symmetry_Int_Tables_number       1
_space_group_crystal_system       triclinic
_cell_length_a                    9.949254
_cell_length_b                    11.14647
_cell_length_c                    13.003261
_cell_angle_alpha                 87.389496
_cell_angle_beta                  77.240545
_cell_angle_gamma                 109.989427
_cell_volume                      1310.13226793

loop_
_atom_site_label
_atom_site_type_symbol
_atom_type_description
_atom_site_fract_x
_atom_site_fract_y
_atom_site_fract_z
_atom_type_partial_charge
C1    C     C_R   0.442612 0.254535 0.508598 0.574593
C2    C     C_R   0.662019 0.455304 0.011258 0.116945
C3    C     C_R   0.337996 0.526310 0.884581 -0.008513
C4    C     C_R   0.646846 0.445405 0.121725 -0.007393
C5    C     C_R   0.590672 0.534827 0.858656 0.009812
C6    C     C_R   0.401681 0.453302 0.146793 -0.021941
C7    C     C_R   0.563269 0.495404 0.968361 0.037277
C8    C     C_R   0.429416 0.490930 0.036923 0.017597
C9    C     C_2   0.419760 0.115924 0.517321 0.127722
C10   C     C_2   0.583086 0.879512 0.472428 0.055048
C11   C     C_2   0.532777 0.071635 0.518198 0.028298
C12   C     C_R   0.558099 0.743945 0.490611 0.517424
C13   C     C_2   0.506774 0.934566 0.542381 -0.047270
C14   C     C_2   0.249683 0.368207 0.208836 0.274604
C15   C     C_2   0.740321 0.626186 0.799285 0.257532
C16   C     C_2   0.748844 0.400241 0.166029 0.323268
C17   C     C_2   0.213659 0.536584 0.844657 0.298515
C18   C     C_2   0.424707 0.869517 0.652551 0.292936
C19   C     C_2   0.689695 0.152718 0.508641 0.319785
C20   C     C_2   0.837164 0.447835 0.625686 0.292850
C21   C     C_2   0.196465 0.627629 0.419378 0.328351
C22   C     C_2   0.085384 0.520176 0.495791 0.108818
C23   C     C_2   0.926039 0.506533 0.517921 0.157344
C24   C     C_R   0.477037 0.505979 0.701657 0.521301
C25   C     C_R   0.520984 0.488923 0.299837 0.551822
C26   C     C_R   0.523890 0.463244 0.188585 -0.039745
C27   C     C_R   0.467764 0.520713 0.815902 -0.077853
C28   C     C_R   0.328269 0.525836 0.993625 0.149125
Cu1   Cu    Cu3+1 0.647370 0.522180 0.481340 1.138005
Cu2   Cu    Cu3+1 0.352630 0.477820 0.518660 1.044011
H1    H     H_    0.225260 0.336558 0.292926 0.160220
H2    H     H_    0.759903 0.669797 0.718687 0.131479
H3    H     H_    0.864210 0.430516 0.124201 0.172387
H4    H     H_    0.140363 0.453044 0.819531 0.165092
H5    H     H_    0.415646 0.772499 0.677687 0.141934
H6    H     H_    0.741277 0.134101 0.569455 0.147055
H7    H     H_    0.879839 0.485100 0.691871 0.132875
H8    H     H_    0.250117 0.610873 0.342421 0.133797
I1    I     I_    0.183160 0.605159 0.086540 -0.178481
I2    I     I_    0.802171 0.371928 0.915750 -0.222890
I3    I     I_    0.708376 0.967159 0.314965 -0.091646
I4    I     I_    0.197732 0.988911 0.535453 -0.097430
I5    I     I_    0.974166 0.693151 0.318622 -0.072733
I6    I     I_    0.008261 0.265154 0.638588 -0.162220
N1    N     N_2   0.131210 0.444490 0.546730 -0.205653
N2    N     N_2   0.868790 0.555510 0.453270 -0.156095
O1    O     O_R   0.578710 0.332530 0.490040 -0.420830
O2    O     O_2   0.842027 0.662520 0.842311 -0.424645
O3    O     O_2   0.702926 0.322965 0.246726 -0.414699
O4    O     O_2   0.193089 0.638240 0.838891 -0.414015
O5    O     O_2   0.369900 0.925860 0.717875 -0.409456
O6    O     O_2   0.765517 0.228625 0.429264 -0.399762
O7    O     O_2   0.725727 0.351780 0.641996 -0.465943
O8    O     O_2   0.225113 0.737612 0.440420 -0.462104
O9    O     O_R   0.421290 0.667470 0.509960 -0.499317
O10   O     O_R   0.329810 0.295070 0.521560 -0.471569
O11   O     O_R   0.670190 0.704930 0.478440 -0.487131
O12   O     O_R   0.604230 0.515670 0.637800 -0.508505
O13   O     O_R   0.395770 0.484330 0.362200 -0.576264
O14   O     O_R   0.355330 0.478200 0.669330 -0.503800
O15   O     O_R   0.644670 0.521800 0.330670 -0.441178
O16   O     O_2   0.151053 0.321950 0.164517 -0.438740

loop_
_geom_bond_atom_site_label_1
_geom_bond_atom_site_label_2
_ccdc_geom_bond_type
C17   O4    D    
C4    C16   S    
C2    C4    A    
C24   C27   S    
Cu1   Cu2   S    
C16   H3    S    
C6    C14   S    
C9    C11   D    
C18   H5    S    
C14   H1    S    
Cu2   N1    S    
C4    C26   A    
C2    C7    A    
C20   C23   S    
Cu1   N2    S    
C24   O14   A    
Cu2   O13   S    
C3    C27   A    
C15   H2    S    
C23   N2    D    
C25   O15   A    
C21   C22   S    
C16   O3    D    
C10   I3    S    
C20   H7    S    
C11   C13   S    
C11   C19   S    
C9    I4    S    
C6    C26   A    
C10   C12   S    
C13   C18   S    
Cu1   O1    S    
C12   O11   A    
C15   O2    D    
C3    C28   A    
C1    O10   A    
Cu1   O11   S    
C18   O5    D    
C3    C17   S    
C19   H6    S    
C21   O8    D    
C8    C28   A    
I5    N2    S    
Cu1   O15   S    
C5    C15   S    
C12   O9    A    
C17   H4    S    
C14   O16   D    
C2    I2    S    
C7    C8    A    
C22   N1    D    
C1    C9    S    
I6    N1    S    
C24   O12   A    
Cu2   O9    S    
C5    C7    A    
C22   C23   S    
C1    O1    A    
C6    C8    A    
C25   O13   A    
C28   I1    S    
C25   C26   S    
C5    C27   A    
Cu2   O10   S    
C19   O6    D    
C21   H8    S    
Cu1   O12   S    
C20   O7    D    
C10   C13   D    
Cu2   O14   S    
