data_mof_unit_28919.cif
_audit_creation_date              2012-12-10T20:34:47-0500
_audit_creation_method            fapswitch 2.2
_symmetry_space_group_name_H-M    P1
_symmetry_Int_Tables_number       1
_space_group_crystal_system       triclinic
_cell_length_a                    10.634132
_cell_length_b                    10.695632
_cell_length_c                    9.89167
_cell_angle_alpha                 89.276126
_cell_angle_beta                  90.408163
_cell_angle_gamma                 90.594722
_cell_volume                      1124.8884034

loop_
_atom_site_label
_atom_site_type_symbol
_atom_type_description
_atom_site_fract_x
_atom_site_fract_y
_atom_site_fract_z
_atom_type_partial_charge
C1    C     C_R   0.503420 0.259826 0.500531 0.955859
C2    C     C_3   0.878216 0.491679 0.502210 -0.006869
C3    C     C_3   0.927038 0.622889 0.457894 -0.487304
C4    C     C_3   0.925778 0.392645 0.401730 -0.391902
C5    C     C_R   0.530678 0.061338 0.621960 0.141782
C6    C     C_R   0.523245 0.128222 0.500493 -0.041651
C7    C     C_R   0.542254 0.066443 0.377798 -0.197976
C8    C     C_R   0.544310 0.937084 0.376889 -0.188079
C9    C     C_R   0.528121 0.870960 0.498795 -0.057645
C10   C     C_R   0.534807 0.933709 0.620975 0.048077
C11   C     C_3   0.455037 0.919205 0.743837 -0.486742
C12   C     C_R   0.257803 0.497068 0.499937 0.964815
C13   C     C_3   0.448057 0.060579 0.743864 0.218346
C14   C     C_R   0.394182 0.467164 0.070927 0.186596
C15   C     C_R   0.599244 0.546369 0.072992 -0.139747
C16   C     C_R   0.598355 0.550222 0.929673 0.465371
C17   C     C_R   0.393929 0.467676 0.928676 0.134117
C18   C     C_3   0.325361 0.346082 0.924800 -0.466800
C19   C     C_3   0.326368 0.344932 0.078124 -0.457146
C20   C     C_R   0.505660 0.739787 0.499290 0.915771
C21   C     C_R   0.741938 0.495029 0.500679 0.882807
C22   C     C_3   0.072518 0.462293 0.645481 -0.386339
C23   C     C_3   0.929314 0.460626 0.647039 0.138082
C24   C     C_3   0.071479 0.624477 0.454613 0.062509
C25   C     C_3   0.070415 0.393873 0.400548 0.072486
C26   C     C_3   0.121167 0.494300 0.500821 -0.041876
H1    H     H_    0.107058 0.532208 0.719835 0.197543
H2    H     H_    0.890769 0.413942 0.297681 0.173121
H3    H     H_    0.102035 0.643818 0.348871 0.148160
H4    H     H_    0.890111 0.647797 0.355492 0.184529
H5    H     H_    0.546583 0.116644 0.282113 0.167980
H6    H     H_    0.549015 0.889864 0.280836 0.169560
H7    H     H_    0.363603 0.871538 0.723316 0.266056
H8    H     H_    0.508846 0.880459 0.831273 0.171771
H9    H     H_    0.493241 0.104217 0.833522 0.098743
H10   H     H_    0.679448 0.583318 0.127912 0.172705
H11   H     H_    0.109761 0.370359 0.679265 0.240707
H12   H     H_    0.229576 0.354830 0.880773 0.218506
H13   H     H_    0.383976 0.272804 0.881404 0.227357
H14   H     H_    0.231003 0.353396 0.121536 0.215158
H15   H     H_    0.384642 0.269207 0.123273 0.218359
H16   H     H_    0.898282 0.533668 0.718352 0.191423
H17   H     H_    0.891757 0.694478 0.528572 0.217467
H18   H     H_    0.100972 0.419369 0.296486 0.122872
H19   H     H_    0.888294 0.298419 0.429245 0.237173
N1    N     N_R   0.499150 0.499140 0.142800 -0.145191
N2    N     N_R   0.499150 0.499180 0.857150 -0.160706
O1    O     O_R   0.500020 0.316790 0.614690 -0.592851
O2    O     O_R   0.500000 0.316760 0.385350 -0.631477
O3    O     O_R   0.314800 0.500000 0.614670 -0.602441
O4    O     O_R   0.314790 0.499960 0.385330 -0.625638
O5    O     O_R   0.500000 0.683240 0.614650 -0.643012
O6    O     O_R   0.499980 0.683210 0.385310 -0.621862
O7    O     O_R   0.685210 0.500040 0.614670 -0.601326
O8    O     O_R   0.685200 0.500000 0.385330 -0.642286
Zn1   Zn    Zn3+2 0.500010 0.500020 0.653130 0.990721
Zn2   Zn    Zn3+2 0.499990 0.499980 0.346870 0.956185
O9    O     O_3   0.326839 0.103278 0.712758 -0.688864
H20   H     H_    0.275790 0.086811 0.794757 0.355449
O10   O     O_3   0.697708 0.608899 0.866979 -0.770234
H21   H     H_    0.663946 0.649891 0.784756 0.364860
Br1   Br    Br    0.867231 0.300073 0.719823 -0.487371
Br2   Br    Br    0.138499 0.762811 0.562073 -0.497186
Br3   Br    Br    0.136375 0.226469 0.437017 -0.432501

loop_
_geom_bond_atom_site_label_1
_geom_bond_atom_site_label_2
_ccdc_geom_bond_type
C8    C9    A    
C3    H4    S    
C2    C4    S    
C18   H13   S    
C1    O1    A    
C13   H9    S    
C6    C7    A    
O4    Zn2   S    
C9    C10   A    
C9    C20   S    
C5    C13   S    
C11   H8    S    
C11   H7    S    
C22   H1    S    
C10   C11   S    
C2    C21   S    
C17   C18   S    
C18   H12   S    
C19   H15   S    
C5    C10   A    
C20   O5    A    
C11   C13   S    
C14   C17   A    
C3    H17   S    
C3    C24   S    
C5    C6    A    
C23   H16   S    
C25   H18   S    
C4    H2    S    
N2    Zn1   S    
C24   C26   S    
C4    C25   S    
C24   Br2   S    
C2    C3    S    
C4    H19   S    
O8    Zn2   S    
N1    Zn2   S    
C22   C26   S    
C21   O7    A    
O7    Zn1   S    
O9    H20   S    
C7    H5    S    
C19   H14   S    
C15   C16   A    
C8    H6    S    
C17   N2    A    
C15   H10   S    
C7    C8    A    
C12   O4    A    
O2    Zn2   S    
C16   N2    A    
C21   O8    A    
C18   C19   S    
C16   O10   S    
C2    C23   S    
O1    Zn1   S    
O6    Zn2   S    
C22   C23   S    
C20   O6    A    
C13   O9    S    
C1    C6    S    
C15   N1    A    
C25   C26   S    
C24   H3    S    
C22   H11   S    
C1    O2    A    
C14   C19   S    
C12   O3    A    
C23   Br1   S    
O3    Zn1   S    
O5    Zn1   S    
C12   C26   S    
O10   H21   S    
C14   N1    A    
C25   Br3   S    
