data_mof_unit_8021.cif
_audit_creation_date              2012-12-10T17:19:00-0500
_audit_creation_method            fapswitch 2.2
_symmetry_space_group_name_H-M    P1
_symmetry_Int_Tables_number       1
_space_group_crystal_system       triclinic
_cell_length_a                    10.161325
_cell_length_b                    10.795592
_cell_length_c                    13.656095
_cell_angle_alpha                 91.488051
_cell_angle_beta                  100.412932
_cell_angle_gamma                 97.143733
_cell_volume                      1460.12833376

loop_
_atom_site_label
_atom_site_type_symbol
_atom_type_description
_atom_site_fract_x
_atom_site_fract_y
_atom_site_fract_z
_atom_type_partial_charge
C1    C     C_R   0.056537 0.732959 0.496990 0.888054
C2    C     C_2   0.976599 0.053867 0.489448 0.226250
C3    C     C_2   0.431305 0.513609 0.506357 -0.089824
C4    C     C_2   0.568483 0.488977 0.491135 -0.109134
C5    C     C_R   0.094594 0.513361 0.685935 0.878853
C6    C     C_R   0.905185 0.485020 0.314387 0.929162
C7    C     C_R   0.142772 0.508715 0.793405 -0.175931
C8    C     C_R   0.846607 0.455305 0.209593 -0.183305
C9    C     C_R   0.103651 0.512539 0.963312 -0.201138
C10   C     C_R   0.837606 0.335292 0.055791 -0.198164
C11   C     C_R   0.056678 0.521622 0.861625 -0.266417
C12   C     C_R   0.946153 0.267875 0.509222 0.830362
C13   C     C_R   0.907101 0.380308 0.150004 -0.254411
C14   C     C_R   0.275597 0.484268 0.827887 0.449320
C15   C     C_R   0.717150 0.486286 0.174087 0.436757
C16   C     C_R   0.314298 0.453446 0.927023 -0.034533
C17   C     C_R   0.638745 0.423447 0.088094 -0.023267
C18   C     C_R   0.232877 0.479942 0.996725 0.107413
C19   C     C_R   0.703700 0.356900 0.024097 0.106791
C20   C     C_R   0.439246 0.410107 0.960032 0.061139
C21   C     C_R   0.499676 0.432250 0.060729 0.063887
C22   C     C_3   0.710964 0.695347 0.184813 -0.243098
C23   C     C_R   0.418206 0.458625 0.130435 -0.132357
C24   C     C_3   0.437845 0.622439 0.781645 -0.283081
C25   C     C_3   0.905093 0.189955 0.699949 -0.213304
C26   C     C_3   0.293275 0.982445 0.488715 -0.198851
C27   C     C_R   0.504549 0.344323 0.896182 -0.135635
C28   C     C_R   0.284279 0.477483 0.098541 -0.224182
C29   C     C_R   0.633940 0.314315 0.929288 -0.231884
C30   C     C_2   0.092872 0.866721 0.495544 0.258393
C31   C     C_2   0.922237 0.139249 0.537057 0.294696
C32   C     C_2   0.016841 0.939407 0.537122 0.219440
Cl1   Cl    Cl    0.995393 0.078402 0.363587 -0.605314
Cl2   Cl    Cl    0.967065 0.892158 0.650841 -0.608371
H1    H     H_    0.223531 0.496493 0.153371 0.155891
H2    H     H_    0.422742 0.590118 0.556873 0.170024
H3    H     H_    0.666171 0.623736 0.588511 0.182878
H4    H     H_    0.333981 0.374139 0.413470 0.170687
H5    H     H_    0.670074 0.697087 0.103571 0.150863
H6    H     H_    0.823022 0.716649 0.199523 0.164776
H7    H     H_    0.671192 0.770420 0.223159 0.210859
H8    H     H_    0.487704 0.643909 0.860847 0.162619
H9    H     H_    0.367259 0.691276 0.756918 0.162500
H10   H     H_    0.518270 0.632713 0.736222 0.176237
H11   H     H_    0.857354 0.277151 0.693230 0.163844
H12   H     H_    0.681245 0.262384 0.879403 0.146684
H13   H     H_    0.017249 0.211658 0.714085 0.129541
H14   H     H_    0.877280 0.143725 0.766282 0.198229
H15   H     H_    0.346350 0.926547 0.547088 0.137551
H16   H     H_    0.267215 0.068561 0.523085 0.162073
H17   H     H_    0.364444 0.012173 0.438444 0.199882
H18   H     H_    0.006953 0.355467 0.176534 0.197505
H19   H     H_    0.954635 0.542100 0.836776 0.194051
H20   H     H_    0.039374 0.531306 0.015608 0.168114
H21   H     H_    0.887186 0.281332 0.008838 0.160645
H22   H     H_    0.455163 0.459590 0.209884 0.190442
H23   H     H_    0.454215 0.311500 0.821683 0.191603
H24   H     H_    0.576736 0.414716 0.438348 0.165137
N1    N     N_2   0.322180 0.446120 0.460900 -0.186364
N2    N     N_2   0.677820 0.553880 0.539100 -0.176604
O1    O     O_R   0.935190 0.693030 0.507870 -0.570340
O2    O     O_3   0.370701 0.499018 0.766551 -0.610553
O3    O     O_3   0.855220 0.108041 0.615237 -0.564977
O4    O     O_3   0.178033 0.910612 0.431869 -0.566737
O5    O     O_R   0.064810 0.306970 0.492130 -0.591281
O6    O     O_R   0.142080 0.658430 0.482770 -0.601758
O7    O     O_R   0.857920 0.341570 0.517230 -0.613308
O8    O     O_R   0.969700 0.527180 0.651960 -0.613734
O9    O     O_R   0.030300 0.472820 0.348040 -0.609794
O10   O     O_R   0.176600 0.492580 0.626860 -0.557484
O11   O     O_R   0.823400 0.507420 0.373140 -0.555806
O12   O     O_3   0.668725 0.580050 0.222995 -0.616958
Zn1   Zn    Zn3+2 0.861850 0.523100 0.516760 0.997956
Zn2   Zn    Zn3+2 0.138150 0.476900 0.483240 0.986792

loop_
_geom_bond_atom_site_label_1
_geom_bond_atom_site_label_2
_ccdc_geom_bond_type
O10   Zn2   S    
C6    O9    A    
C7    C11   A    
C9    C18   A    
C8    C13   A    
C15   O12   S    
C20   C27   A    
C30   O4    S    
C27   C29   A    
C13   H18   S    
C24   H8    S    
C12   O5    A    
C10   C19   A    
C3    N1    D    
C11   H19   S    
C25   O3    S    
C29   H12   S    
C16   C20   A    
C22   H6    S    
C4    N2    D    
C21   C23   A    
C1    O6    A    
C23   H22   S    
C19   C29   A    
C23   C28   A    
C30   C32   D    
C10   H21   S    
C9    C11   A    
N1    Zn2   S    
C5    O10   A    
C3    H2    S    
C5    O8    A    
O7    Zn1   S    
C22   H5    S    
C2    Cl1   S    
C22   O12   S    
C1    C30   S    
C17   C19   A    
C8    C15   A    
C5    C7    S    
C26   H16   S    
C12   C31   S    
O9    Zn2   S    
C6    O11   A    
C24   H10   S    
C12   O7    A    
C14   C16   A    
C22   H7    S    
H3    N2    S    
C4    H24   S    
C3    C4    S    
O6    Zn2   S    
C25   H11   S    
N2    Zn1   S    
C31   O3    S    
C18   C28   A    
C20   C21   A    
C16   C18   A    
C27   H23   S    
C26   H15   S    
O11   Zn1   S    
C15   C17   A    
C24   H9    S    
C26   O4    S    
C25   H13   S    
C2    C31   D    
C6    C8    S    
C9    H20   S    
C14   O2    S    
O1    Zn1   S    
O8    Zn1   S    
C26   H17   S    
C24   O2    S    
C25   H14   S    
C7    C14   A    
C17   C21   A    
O5    Zn2   S    
H4    N1    S    
C28   H1    S    
C1    O1    A    
C2    C32   S    
C10   C13   A    
C32   Cl2   S    
