data_mof_unit_52760.cif
_audit_creation_date              2012-12-10T18:43:47-0500
_audit_creation_method            fapswitch 2.2
_symmetry_space_group_name_H-M    P1
_symmetry_Int_Tables_number       1
_space_group_crystal_system       triclinic
_cell_length_a                    10.821997
_cell_length_b                    10.641959
_cell_length_c                    9.902242
_cell_angle_alpha                 90.740689
_cell_angle_beta                  104.516974
_cell_angle_gamma                 90.95287
_cell_volume                      1103.67959585

loop_
_atom_site_label
_atom_site_type_symbol
_atom_type_description
_atom_site_fract_x
_atom_site_fract_y
_atom_site_fract_z
_atom_type_partial_charge
C1    C     C_R   0.502996 0.260515 0.500086 0.841152
C2    C     C_2   0.877483 0.483535 0.591440 -0.352883
C3    C     C_2   0.067144 0.460516 0.511996 -0.118041
C4    C     C_2   0.931239 0.460474 0.486617 -0.130518
C5    C     C_R   0.596333 0.062513 0.449890 -0.022411
C6    C     C_R   0.403735 0.937514 0.550137 -0.024298
C7    C     C_R   0.589509 0.932873 0.449847 -0.112416
C8    C     C_R   0.410540 0.067150 0.550157 -0.112062
C9    C     C_R   0.495419 0.871989 0.500232 -0.144963
C10   C     C_R   0.504626 0.128028 0.499773 -0.141559
C11   C     C_2   0.659302 0.678187 0.907422 0.415427
C12   C     C_R   0.497018 0.739486 0.499916 0.848076
C13   C     C_2   0.340581 0.321891 0.092532 0.414266
C14   C     C_2   0.701838 0.126975 0.404306 0.449247
C15   C     C_2   0.298248 0.873065 0.595747 0.449635
C16   C     C_R   0.258961 0.496321 0.441379 0.923308
C17   C     C_R   0.740924 0.496744 0.558501 0.926230
C18   C     C_R   0.573752 0.583970 0.094729 -0.033122
C19   C     C_R   0.426221 0.416047 0.905257 -0.033948
C20   C     C_R   0.574835 0.584846 0.951446 0.022844
C21   C     C_R   0.425130 0.415176 0.048541 0.023305
C22   C     C_2   0.121850 0.483136 0.407964 -0.354087
H1    H     H_    0.875393 0.449848 0.379040 0.193023
H2    H     H_    0.319625 0.328304 0.192655 0.137863
H3    H     H_    0.719026 0.227279 0.420662 0.068258
H4    H     H_    0.280857 0.772791 0.579083 0.074024
H5    H     H_    0.122550 0.450328 0.619230 0.192106
H6    H     H_    0.632710 0.649902 0.168552 0.186784
H7    H     H_    0.367231 0.350146 0.831414 0.182455
H8    H     H_    0.659340 0.878393 0.413877 0.188810
H9    H     H_    0.340686 0.121632 0.586096 0.187426
H10   H     H_    0.933754 0.494248 0.698716 0.165158
H11   H     H_    0.066019 0.493475 0.301051 0.164754
H12   H     H_    0.680419 0.671657 0.807384 0.137841
N1    N     N_R   0.499970 0.499970 0.857200 -0.149101
N2    N     N_R   0.500030 0.500030 0.142800 -0.150300
O1    O     O_R   0.499990 0.316750 0.614620 -0.601245
O2    O     O_2   0.290897 0.235084 0.014826 -0.559313
O3    O     O_2   0.772207 0.068176 0.348696 -0.530362
O4    O     O_2   0.228121 0.931833 0.651713 -0.529687
O5    O     O_R   0.500010 0.683250 0.385380 -0.598364
O6    O     O_R   0.499990 0.316780 0.385290 -0.654080
O7    O     O_R   0.500010 0.683220 0.614710 -0.651200
O8    O     O_R   0.317810 0.500000 0.571850 -0.621182
O9    O     O_R   0.682190 0.500000 0.428150 -0.620775
O10   O     O_R   0.317810 0.500030 0.342520 -0.636519
O11   O     O_R   0.682190 0.499970 0.657480 -0.637277
O12   O     O_2   0.708720 0.765176 0.984995 -0.557853
Zn1   Zn    Zn3+2 0.500000 0.499980 0.653120 0.942781
Zn2   Zn    Zn3+2 0.500000 0.500020 0.346880 0.942792

loop_
_geom_bond_atom_site_label_1
_geom_bond_atom_site_label_2
_ccdc_geom_bond_type
O8    Zn1   S    
N1    Zn1   S    
C2    C4    D    
C5    C7    A    
C18   H6    S    
C12   O5    A    
O1    Zn1   S    
C16   O8    A    
C1    O1    A    
O5    Zn2   S    
C6    C9    A    
C3    H5    S    
C5    C14   S    
C13   C21   S    
C5    C10   A    
O11   Zn1   S    
C7    H8    S    
C19   N1    A    
C2    C17   S    
C20   N1    A    
C11   O12   D    
O9    Zn2   S    
O6    Zn2   S    
C6    C8    A    
C8    C10   A    
C19   C21   A    
C13   O2    D    
C4    H1    S    
C12   O7    A    
C18   C20   A    
C14   H3    S    
C15   O4    D    
C9    C12   S    
C11   C20   S    
C17   O9    A    
C3    C4    S    
C19   H7    S    
C7    C9    A    
C1    O6    A    
N2    Zn2   S    
C2    H10   S    
C16   O10   A    
C21   N2    A    
C22   H11   S    
O10   Zn2   S    
O7    Zn1   S    
C15   H4    S    
C16   C22   S    
C6    C15   S    
C8    H9    S    
C18   N2    A    
C11   H12   S    
C1    C10   S    
C17   O11   A    
C13   H2    S    
C14   O3    D    
C3    C22   D    
