data_mof_unit_11713.cif
_audit_creation_date              2012-12-11T20:21:55-0500
_audit_creation_method            fapswitch 2.2
_symmetry_space_group_name_H-M    P1
_symmetry_Int_Tables_number       1
_space_group_crystal_system       triclinic
_cell_length_a                    8.273631
_cell_length_b                    17.349846
_cell_length_c                    27.060356
_cell_angle_alpha                 99.455881
_cell_angle_beta                  92.729652
_cell_angle_gamma                 81.367819
_cell_volume                      3787.17777472

loop_
_atom_site_label
_atom_site_type_symbol
_atom_type_description
_atom_site_fract_x
_atom_site_fract_y
_atom_site_fract_z
_atom_type_partial_charge
Ba1   Ba    Ba6+2 0.860160 0.462360 0.521850 1.661284
Ba2   Ba    Ba6+2 0.329680 0.537570 0.478140 1.689413
C1    C     C_3   0.750347 0.167270 0.641427 -0.238650
C2    C     C_R   0.879471 0.566508 0.177797 0.574024
C3    C     C_2   0.737903 0.534869 0.270128 -0.081524
C4    C     C_3   0.162045 0.265330 0.648643 0.355099
C5    C     C_3   0.715622 0.566907 0.324554 -0.086239
C6    C     C_1   0.978738 0.487295 0.342354 -0.029469
C7    C     C_2   0.018807 0.482486 0.294319 -0.101220
C8    C     C_2   0.891688 0.505114 0.254726 0.203402
C9    C     C_R   0.013180 0.498434 0.100886 -0.080613
C10   C     C_R   0.074316 0.434591 0.126222 -0.034912
C11   C     C_R   0.176695 0.369821 0.100452 -0.059763
C12   C     C_3   0.694684 0.250236 0.629156 0.311736
C13   C     C_R   0.914573 0.564515 0.126975 -0.024567
C14   C     C_2   0.837620 0.529032 0.359376 -0.297700
C15   C     C_2   0.350646 0.475137 0.639455 -0.286363
C16   C     C_3   0.143613 0.223851 0.693088 -0.334572
C17   C     C_R   0.176419 0.425036 0.970997 0.018731
C18   C     C_R   0.034644 0.561787 0.974284 0.020261
C19   C     C_R   0.123365 0.492379 0.947155 0.044351
C20   C     C_R   0.254154 0.355647 0.941337 -0.104876
C21   C     C_R   0.279750 0.352946 0.890506 -0.069562
C22   C     C_R   0.233545 0.419778 0.867077 -0.032957
C23   C     C_3   0.496636 0.650232 0.632838 0.294373
C24   C     C_R   0.158570 0.490123 0.895560 -0.086868
C25   C     C_R   0.115326 0.557557 0.872091 -0.034779
C26   C     C_R   0.155754 0.554774 0.821361 0.587803
C27   C     C_R   0.259340 0.417132 0.815548 0.590390
C28   C     C_3   0.220316 0.298276 0.411970 0.311763
C29   C     C_2   0.434784 0.451179 0.727075 -0.042519
C30   C     C_3   0.461122 0.424148 0.671088 -0.073677
C31   C     C_1   0.206545 0.511256 0.656493 0.038354
C32   C     C_2   0.159222 0.510777 0.702945 -0.098303
C33   C     C_2   0.279875 0.482520 0.741962 0.199397
C34   C     C_3   0.491127 0.669636 0.689659 -0.373352
C35   C     C_R   0.147783 0.428666 0.023143 0.020311
C36   C     C_R   0.050947 0.496460 0.049443 0.048758
C37   C     C_R   0.991221 0.562346 0.024897 0.020082
C38   C     C_R   0.213232 0.366949 0.050270 -0.100415
C39   C     C_R   0.851904 0.627699 0.101790 -0.059357
C40   C     C_3   0.251642 0.208930 0.397196 -0.369476
C41   C     C_R   0.993025 0.628608 0.949638 -0.105854
C42   C     C_R   0.033754 0.626564 0.899978 -0.073452
C43   C     C_R   0.888387 0.626544 0.051977 -0.103304
C44   C     C_2   0.451955 0.280935 0.516122 -0.256754
C45   C     C_3   0.019899 0.710956 0.348427 0.337411
C46   C     C_3   0.382966 0.230418 0.547791 -0.049868
C47   C     C_2   0.436465 0.143344 0.532562 -0.101022
C48   C     C_2   0.559086 0.117048 0.500026 0.005782
C49   C     C_2   0.635892 0.175248 0.477598 -0.131129
C50   C     C_1   0.575478 0.251086 0.486150 0.052557
C51   C     C_R   0.777222 0.861582 0.468549 -0.139862
C52   C     C_3   0.989065 0.707172 0.592640 0.287369
C53   C     C_R   0.851548 0.784673 0.471152 0.015982
C54   C     C_R   0.620224 0.761822 0.515712 0.029704
C55   C     C_R   0.545009 0.838973 0.513699 -0.119201
C56   C     C_3   0.029803 0.734325 0.297039 -0.348580
C57   C     C_R   0.624013 0.890029 0.490753 0.009926
C58   C     C_2   0.631277 0.032727 0.490009 -0.087487
C59   C     C_2   0.546855 0.973323 0.493430 -0.089750
C60   C     C_R   0.772533 0.735802 0.494701 -0.254693
C61   C     C_3   0.003636 0.795244 0.607414 -0.251090
C62   C     C_3   0.693366 0.361929 0.368403 0.306835
C63   C     C_3   0.689236 0.341486 0.311586 -0.373055
C64   C     C_R   0.851066 0.842429 0.631453 0.031108
C65   C     C_R   0.769581 0.907638 0.611154 -0.089372
C66   C     C_R   0.624980 0.949835 0.632052 -0.037144
C67   C     C_3   0.483878 0.746920 0.371376 0.359682
C68   C     C_R   0.562265 0.928380 0.674011 -0.006993
C69   C     C_R   0.644911 0.865134 0.695414 -0.054280
C70   C     C_R   0.789273 0.822509 0.674465 -0.011162
C71   C     C_2   0.707185 0.160664 0.693431 0.494409
C72   C     C_R   0.569153 0.438606 0.764583 0.072391
C73   C     C_R   0.650979 0.362521 0.767263 0.034280
C74   C     C_R   0.769563 0.350134 0.804765 -0.064411
C75   C     C_R   0.806024 0.413676 0.840170 -0.064450
C76   C     C_R   0.726356 0.489899 0.837524 -0.072742
C77   C     C_R   0.608326 0.502448 0.799854 -0.073903
C78   C     C_3   0.439248 0.827041 0.354582 -0.365159
C79   C     C_2   0.825977 0.575299 0.409047 0.684203
C80   C     C_R   0.032209 0.436906 0.176845 0.594233
H1    H     H_    0.722092 0.249123 0.589325 0.066257
H2    H     H_    0.600611 0.414609 0.379547 0.076396
H3    H     H_    0.883502 0.150307 0.636787 0.098982
H4    H     H_    0.785291 0.290702 0.299172 0.135271
H5    H     H_    0.711620 0.392648 0.294519 0.067316
H6    H     H_    0.567170 0.325805 0.298362 0.136018
H7    H     H_    0.561257 0.263306 0.634199 -0.064655
H8    H     H_    0.689667 0.124716 0.614237 0.062034
H9    H     H_    0.375355 0.635577 0.618405 0.016834
H10   H     H_    0.591706 0.598166 0.622842 0.065921
H11   H     H_    0.395871 0.721111 0.700959 0.128327
H12   H     H_    0.341119 0.192572 0.366549 0.122250
H13   H     H_    0.461585 0.618257 0.705261 0.068365
H14   H     H_    0.611816 0.683720 0.705243 0.118908
H15   H     H_    0.232400 0.241679 0.723392 0.157032
H16   H     H_    0.094648 0.652086 0.348538 0.071641
H17   H     H_    0.889824 0.707814 0.354526 -0.047329
H18   H     H_    0.156486 0.742251 0.289732 0.154578
H19   H     H_    0.992185 0.687367 0.267927 0.126592
H20   H     H_    0.947364 0.790398 0.294725 0.114561
H21   H     H_    0.619276 0.734131 0.373616 -0.061636
H22   H     H_    0.433964 0.750500 0.409204 0.082625
H23   H     H_    0.301448 0.180853 0.429762 0.074308
H24   H     H_    0.492880 0.872557 0.381357 0.074644
H25   H     H_    0.304462 0.843756 0.353213 0.150942
H26   H     H_    0.106818 0.328677 0.657548 0.067027
H27   H     H_    0.488026 0.825090 0.316796 0.121417
H28   H     H_    0.145818 0.465724 0.283779 0.139085
H29   H     H_    0.230072 0.320734 0.119164 0.120900
H30   H     H_    0.338340 0.297845 0.869572 0.121771
H31   H     H_    0.293034 0.301347 0.956043 0.070251
H32   H     H_    0.296468 0.315839 0.034044 0.068947
H33   H     H_    0.639955 0.549606 0.243656 0.118738
H34   H     H_    0.135424 0.186440 0.384255 0.131370
H35   H     H_    0.772501 0.678715 0.120543 0.121954
H36   H     H_    0.931734 0.684639 0.968125 0.070290
H37   H     H_    0.295781 0.262029 0.643585 -0.053929
H38   H     H_    0.999091 0.679633 0.883214 0.120392
H39   H     H_    0.034243 0.534145 0.713686 0.132338
H40   H     H_    0.830779 0.676678 0.035469 0.068361
H41   H     H_    0.377395 0.469102 0.600009 0.077958
H42   H     H_    0.417787 0.986586 0.501945 0.080181
H43   H     H_    0.740222 0.154552 0.453474 0.082651
H44   H     H_    0.839532 0.897995 0.449299 0.073881
H45   H     H_    0.860420 0.698837 0.584064 -0.007347
H46   H     H_    0.759764 0.020689 0.481125 0.079281
H47   H     H_    0.385782 0.103445 0.552495 0.065019
H48   H     H_    0.017830 0.240653 0.707930 0.116979
H49   H     H_    0.428459 0.859940 0.531419 0.082929
H50   H     H_    0.412481 0.344132 0.523892 0.070243
H51   H     H_    0.832559 0.677244 0.498007 0.083391
H52   H     H_    0.169636 0.158338 0.681973 0.118215
H53   H     H_    0.337586 0.320062 0.422952 -0.004954
H54   H     H_    0.136989 0.312969 0.444159 0.083767
H55   H     H_    0.817229 0.925580 0.578949 0.071028
H56   H     H_    0.063552 0.684081 0.558923 0.069038
H57   H     H_    0.561371 0.999037 0.615599 0.082956
H58   H     H_    0.450111 0.961015 0.690088 0.081803
H59   H     H_    0.596642 0.848800 0.728091 0.062610
H60   H     H_    0.851359 0.773551 0.691456 0.101416
H61   H     H_    0.779718 0.184316 0.725007 -0.002575
H62   H     H_    0.617400 0.312764 0.741524 0.082164
H63   H     H_    0.830692 0.291071 0.807026 0.066941
H64   H     H_    0.894308 0.403600 0.870001 0.076456
H65   H     H_    0.754525 0.539088 0.865037 0.078703
H66   H     H_    0.545703 0.561603 0.798552 0.078997
H67   H     H_    0.029569 0.818736 0.573228 0.060707
H68   H     H_    0.815871 0.638184 0.412093 -0.203017
H69   H     H_    0.109766 0.802713 0.633631 0.116288
H70   H     H_    0.816756 0.375223 0.381000 0.022302
N1    N     N_R   0.934809 0.502435 0.202328 -0.423570
N2    N     N_R   0.230289 0.485192 0.793709 -0.420624
O1    O     O_2   0.906370 0.542040 0.619810 -0.455462
O2    O     O_2   0.188758 0.780726 0.477238 -0.494554
O3    O     O_3   0.079209 0.767806 0.384926 -0.598328
O4    O     O_3   0.138370 0.541980 0.559630 -0.489103
O5    O     O_3   0.572820 0.404940 0.471170 -0.474388
O6    O     O_2   0.345130 0.693150 0.532000 -0.467303
O7    O     O_3   0.533960 0.715759 0.613656 -0.645423
O8    O     O_2   0.384153 0.540200 0.325491 -0.499099
O9    O     O_3   0.416889 0.689217 0.337143 -0.594020
O10   O     O_2   0.080427 0.379966 0.197819 -0.596187
O11   O     O_2   0.306954 0.353747 0.789922 -0.626836
O12   O     O_3   0.658937 0.296963 0.388479 -0.638547
O13   O     O_2   0.800641 0.626158 0.200346 -0.616026
O14   O     O_2   0.125786 0.614425 0.802073 -0.605203
O15   O     O_3   0.686580 0.398330 0.583860 -0.471977
O16   O     O_2   0.788790 0.459737 0.674664 -0.487059
O17   O     O_3   0.044672 0.667908 0.632678 -0.645332
O18   O     O_3   0.774557 0.307497 0.659709 -0.607172
O19   O     O_2   0.844570 0.306830 0.467970 -0.456542
O20   O     O_3   0.101900 0.357890 0.557750 -0.478895
O21   O     O_2   0.064187 0.215890 0.507496 -0.487068
O22   O     O_2   0.591684 0.128119 0.700602 -0.594340
O23   O     O_3   0.083533 0.227983 0.605835 -0.587039
O24   O     O_2   0.791439 0.546920 0.444490 -0.527867
O25   O     O_2   0.283330 0.457940 0.380160 -0.465616
O26   O     O_3   0.051340 0.457960 0.440360 -0.460489
O27   O     O_3   0.503130 0.601610 0.416130 -0.454980
O28   O     O_3   0.150497 0.331455 0.370802 -0.625746
O29   O     O_3   0.616890 0.595000 0.528820 -0.430801
O30   O     O_3   0.087820 0.642040 0.442240 -0.496217
P1    P     P_3+3 0.071770 0.565500 0.613330 0.995746
P2    P     P_3+3 0.664870 0.318630 0.453960 0.998988
P3    P     P_3+3 0.157190 0.256317 0.553089 0.954232
P4    P     P_3+3 0.117940 0.434440 0.386660 1.006656
P5    P     P_3+3 0.052531 0.744727 0.444346 0.947153
P6    P     P_3+3 0.677817 0.400351 0.648441 0.950780
P7    P     P_3+3 0.530314 0.693883 0.548167 0.961938
P8    P     P_3+3 0.503624 0.596275 0.350278 0.964264

loop_
_geom_bond_atom_site_label_1
_geom_bond_atom_site_label_2
_ccdc_geom_bond_type
C19   C24   A    
C68   H58   S    
C78   H24   S    
C1    H3    S    
C33   N2    S    
O7    P7    S    
O8    P8    D    
C51   C57   A    
C63   H4    S    
C66   C68   A    
C75   C76   A    
C6    P4    S    
C70   H60   S    
C21   H30   S    
C78   H25   S    
Ba1   O19   S    
C24   C25   A    
C45   H16   S    
C15   C31   D    
C62   H70   S    
C59   H42   S    
O15   P6    S    
C60   H51   S    
Ba1   O4    S    
C17   C19   A    
C22   C24   A    
C79   O24   D    
Ba1   Ba2   S    
C35   C38   A    
C44   H50   S    
C36   C37   A    
O27   P8    S    
C55   C57   A    
C52   C61   S    
C42   H38   S    
C79   H68   S    
C53   C60   A    
C44   C50   D    
C45   H17   S    
C54   C55   A    
C32   C33   S    
C27   O11   D    
Ba1   O1    S    
C22   C27   A    
C61   H67   S    
C11   C38   A    
C62   O12   S    
O26   P4    S    
C80   N1    Am   
C9    C13   A    
C25   C42   A    
C15   H41   S    
C20   H31   S    
C64   C70   A    
C23   O7    S    
C6    C7    D    
C78   H27   S    
C21   C22   A    
C16   H52   S    
C68   C69   A    
C56   H20   S    
C16   H15   S    
C17   C35   A    
C7    C8    S    
C37   C43   A    
O2    P5    D    
C51   C53   A    
C64   C65   A    
C61   C64   S    
C6    C14   D    
C40   H12   S    
C3    H33   S    
C26   N2    Am   
C28   O28   S    
Ba2   O26   S    
C12   H1    S    
C1    C71   S    
C34   H11   S    
C8    N1    S    
C63   H5    S    
Ba2   P4    S    
C67   H21   S    
Ba2   O6    S    
Ba1   O29   S    
C4    C16   S    
C44   C46   S    
Ba1   O20   S    
C57   C59   S    
C23   H9    S    
C72   C73   A    
O17   P1    S    
C10   C80   A    
C49   C50   D    
C49   H43   S    
Ba1   O5    S    
C17   C20   A    
C56   H18   S    
C74   C75   A    
C13   C39   A    
C46   P3    S    
C12   O18   S    
O1    P1    D    
C3    C5    S    
C18   C37   A    
C76   C77   A    
Ba2   O5    S    
C29   C72   S    
O28   P4    S    
O25   P4    D    
C23   C34   S    
O18   P6    S    
Ba1   P2    S    
C47   H47   S    
C65   C66   A    
C58   C59   D    
Ba2   O27   S    
C9    C36   A    
C73   C74   A    
C12   H7    S    
C35   C36   A    
O20   P3    S    
C34   H14   S    
C29   C30   S    
C58   H46   S    
Ba2   O4    S    
C48   C49   S    
C30   P6    S    
C51   H44   S    
C56   H19   S    
Ba2   O30   S    
C18   C19   A    
C61   H69   S    
O9    P8    S    
C1    C12   S    
C76   H65   S    
C40   H34   S    
C46   C47   S    
C45   O3    S    
C74   H63   S    
C47   C48   D    
C32   H39   S    
C28   H54   S    
C72   C77   A    
C1    H8    S    
C41   C42   A    
C54   C60   A    
C5    P8    S    
C16   H48   S    
Ba2   O25   S    
C50   P2    S    
O4    P1    S    
C53   P5    S    
C4    H37   S    
C18   C41   A    
O5    P2    S    
C63   H6    S    
C71   H61   S    
C67   H22   S    
C7    H28   S    
C5    C14   S    
C23   H10   S    
C39   C43   A    
O12   P2    S    
C52   O17   S    
C55   H49   S    
C67   O9    S    
O6    P7    D    
C67   C78   S    
O29   P7    S    
C9    C10   A    
C77   H66   S    
Ba1   P1    S    
C43   H40   S    
C52   H45   S    
O16   P6    D    
O23   P3    S    
C2    O13   D    
C69   H59   S    
C48   C58   S    
C62   C63   S    
C71   O22   D    
C3    C8    D    
C4    O23   S    
C45   C56   S    
C34   H13   S    
C52   H56   S    
C80   O10   D    
C2    C13   A    
O19   P2    D    
Ba1   O15   S    
C14   C79   S    
Ba1   O26   S    
C31   C32   D    
C2    N1    Am   
C29   C33   D    
Ba2   O29   S    
C65   H55   S    
C40   H23   S    
O3    P5    S    
C54   P7    S    
C73   H62   S    
C26   O14   D    
C41   H36   S    
O21   P3    D    
C69   C70   A    
C10   C11   A    
C62   H2    S    
C11   H29   S    
C28   H53   S    
C25   C26   A    
C15   C30   S    
C4    H26   S    
C20   C21   A    
C28   C40   S    
C66   H57   S    
C31   P1    S    
C39   H35   S    
C75   H64   S    
O30   P5    S    
C38   H32   S    
C27   N2    Am   
