data_mof_unit_50271.cif
_audit_creation_date              2012-12-11T15:56:39-0500
_audit_creation_method            fapswitch 2.2
_symmetry_space_group_name_H-M    P1
_symmetry_Int_Tables_number       1
_space_group_crystal_system       triclinic
_cell_length_a                    14.673638
_cell_length_b                    7.195002
_cell_length_c                    13.558485
_cell_angle_alpha                 90.019381
_cell_angle_beta                  100.005786
_cell_angle_gamma                 89.938209
_cell_volume                      1409.68912888

loop_
_atom_site_label
_atom_site_type_symbol
_atom_type_description
_atom_site_fract_x
_atom_site_fract_y
_atom_site_fract_z
_atom_type_partial_charge
O1    O     O_R   0.336930 0.638190 0.166330 -0.514280
O2    O     O_R   0.663070 0.361810 0.833670 -0.524750
O3    O     O_R   0.163070 0.138190 0.333670 -0.509419
O4    O     O_R   0.836930 0.861810 0.666330 -0.512360
O5    O     O_R   0.147900 0.305430 0.139630 -0.537926
O6    O     O_R   0.852100 0.694570 0.860370 -0.531332
O7    O     O_R   0.352100 0.805430 0.360370 -0.538164
O8    O     O_R   0.647900 0.194570 0.639630 -0.536404
C1    C     C_R   0.115044 0.477567 0.113364 0.682277
C2    C     C_R   0.884826 0.522435 0.886787 0.715974
C3    C     C_R   0.384811 0.977496 0.386817 0.712930
C4    C     C_R   0.615159 0.022486 0.613222 0.715430
O9    O     O_R   0.335280 0.308290 0.154310 -0.523349
O10   O     O_R   0.664720 0.691710 0.845690 -0.529736
O11   O     O_R   0.164720 0.808290 0.345690 -0.517723
O12   O     O_R   0.835280 0.191710 0.654310 -0.518248
O13   O     O_R   0.351790 0.140890 0.348460 -0.539707
O14   O     O_R   0.648210 0.859110 0.651540 -0.540008
O15   O     O_R   0.148210 0.640890 0.151540 -0.538291
O16   O     O_R   0.851790 0.359110 0.848460 -0.543442
C5    C     C_R   0.363295 0.477252 0.132425 0.784727
C6    C     C_R   0.635773 0.523251 0.866665 0.797575
C7    C     C_R   0.137643 0.977891 0.369145 0.770987
C8    C     C_R   0.867351 0.023470 0.637147 0.769935
O17   O     O_3   0.255200 0.472570 0.313680 -0.368980
O18   O     O_3   0.744800 0.527430 0.686320 -0.369218
O19   O     O_3   0.244800 0.972570 0.186320 -0.372311
O20   O     O_3   0.755200 0.027430 0.813680 -0.383835
V1    V     V_3+5 0.249040 0.196590 0.238190 1.493884
V2    V     V_3+5 0.750960 0.803410 0.761810 1.469493
V3    V     V_3+5 0.250960 0.696590 0.261810 1.490769
V4    V     V_3+5 0.749040 0.303410 0.738190 1.468160
C9    C     C_R   0.062237 0.840610 0.508628 0.347422
C10   C     C_R   0.975224 0.176249 0.535292 0.314543
C11   C     C_R   0.423768 0.374204 0.976648 0.347154
C12   C     C_R   0.566846 0.639718 0.013447 0.298672
C13   C     C_R   0.998924 0.854984 0.575822 0.407396
C14   C     C_R   0.031338 0.163772 0.461422 0.337818
C15   C     C_R   0.490411 0.384828 0.913145 0.315864
C16   C     C_R   0.504053 0.620189 0.080846 0.342874
C17   C     C_R   0.943632 0.014748 0.576593 -0.399520
C18   C     C_R   0.073991 0.991941 0.444594 -0.400517
C19   C     C_R   0.563837 0.515061 0.932387 -0.359866
C20   C     C_R   0.431135 0.489599 0.062332 -0.355701
C21   C     C_1   0.533925 0.008255 0.533173 -0.197013
C22   C     C_1   0.466024 0.991647 0.466878 -0.195215
C23   C     C_1   0.966080 0.508232 0.966796 -0.198437
C24   C     C_1   0.033927 0.491784 0.033177 -0.195372
O21   O     O_3   0.111028 0.676559 0.505777 -0.492488
C25   C     C_3   0.200268 0.695693 0.563869 -0.094109
H1    H     H_    0.235378 0.826838 0.548184 0.067674
H2    H     H_    0.243793 0.578741 0.545623 0.142080
H3    H     H_    0.197421 0.686105 0.644846 0.092334
O22   O     O_3   0.969071 0.344933 0.581940 -0.500145
C26   C     C_3   0.032177 0.343097 0.674387 0.032415
H4    H     H_    0.054968 0.203677 0.704913 -0.011163
H5    H     H_    0.095471 0.421121 0.666061 0.150978
H6    H     H_    0.998417 0.409114 0.732442 0.139537
O23   O     O_3   0.353503 0.244412 0.954926 -0.519823
C27   C     C_3   0.270226 0.334912 0.912625 -0.188434
H7    H     H_    0.280357 0.456837 0.865016 0.080086
H8    H     H_    0.232173 0.380195 0.972180 0.118239
H9    H     H_    0.225615 0.234215 0.864536 0.135894
O24   O     O_3   0.637497 0.768971 0.033166 -0.550794
C28   C     C_3   0.601402 0.946365 0.003774 -0.076407
H10   H     H_    0.554472 0.997297 0.054012 0.158203
H11   H     H_    0.564751 0.947070 0.924637 0.156964
H12   H     H_    0.659705 0.045993 0.009166 0.131820
O25   O     O_3   0.001492 0.723392 0.650131 -0.513391
C29   C     C_3   0.049752 0.797134 0.741604 -0.246209
H13   H     H_    0.003456 0.884467 0.778930 0.139537
H14   H     H_    0.112068 0.879073 0.732214 0.096797
H15   H     H_    0.074226 0.681406 0.793409 0.119243
O26   O     O_3   0.055245 0.325719 0.417295 -0.494498
C30   C     C_3   0.979111 0.386080 0.346327 -0.056046
H16   H     H_    0.920445 0.429957 0.383071 0.130538
H17   H     H_    0.956386 0.276916 0.289079 0.061519
H18   H     H_    0.000714 0.508928 0.306663 0.137139
O27   O     O_3   0.485377 0.259482 0.834841 -0.536063
C31   C     C_3   0.442132 0.345506 0.745284 -0.176796
H19   H     H_    0.445087 0.248764 0.682234 0.143961
H20   H     H_    0.477613 0.475831 0.729371 0.095781
H21   H     H_    0.368049 0.373764 0.746544 0.118154
O28   O     O_3   0.513465 0.733423 0.164513 -0.534130
C32   C     C_3   0.573062 0.645157 0.243460 -0.190918
H22   H     H_    0.544623 0.509089 0.262713 0.103123
H23   H     H_    0.579595 0.734839 0.310908 0.148584
H24   H     H_    0.643586 0.626320 0.225240 0.148053

loop_
_geom_bond_atom_site_label_1
_geom_bond_atom_site_label_2
_ccdc_geom_bond_type
O17   V3    S    
C26   H4    S    
O1    C5    A    
C13   O25   S    
O19   V1    S    
O13   V1    S    
C16   O28   S    
O3    C7    A    
O15   V3    S    
C21   C22   T    
O7    C3    A    
C7    C18   S    
C27   H9    S    
C9    C18   A    
C11   O23   S    
C14   C18   A    
C14   O26   S    
O4    C8    A    
C9    O21   S    
O1    V3    S    
O2    V4    S    
O3    V1    S    
C1    O15   A    
C23   C24   T    
C2    O16   A    
C28   H11   S    
O2    C6    A    
C25   H2    S    
C29   H13   S    
O14   V2    S    
O11   C7    A    
O23   C27   S    
O12   C8    A    
C8    C17   S    
C10   C17   A    
O10   V2    S    
C31   H21   S    
O5    V1    S    
C32   H23   S    
C25   H3    S    
O7    V3    S    
O26   C30   S    
O8    V4    S    
C12   C16   A    
O28   C32   S    
C31   H20   S    
O18   V4    S    
C31   H19   S    
C15   C19   A    
C32   H22   S    
C9    C13   A    
C27   H7    S    
C15   O27   S    
C11   C15   A    
C30   H16   S    
O5    C1    A    
C5    C20   S    
C6    C19   S    
O8    C4    A    
C28   H12   S    
C29   H15   S    
C25   H1    S    
O9    C5    A    
C11   C20   A    
C30   H17   S    
O6    V2    S    
C10   O22   S    
C26   H5    S    
O21   C25   S    
O16   V4    S    
C32   H24   S    
O9    V1    S    
O22   C26   S    
C3    O13   A    
C10   C14   A    
C4    C21   S    
C12   C19   A    
O6    C2    A    
O11   V3    S    
O12   V4    S    
O24   C28   S    
O10   C6    A    
O20   V2    S    
C27   H8    S    
C13   C17   A    
O25   C29   S    
C30   H18   S    
O27   C31   S    
C16   C20   A    
C1    C24   S    
C28   H10   S    
C26   H6    S    
C4    O14   A    
C2    C23   S    
C3    C22   S    
C29   H14   S    
C12   O24   S    
O4    V2    S    
