data_mof_unit_56611.cif
_audit_creation_date              2012-12-10T17:32:56-0500
_audit_creation_method            fapswitch 2.2
_symmetry_space_group_name_H-M    P1
_symmetry_Int_Tables_number       1
_space_group_crystal_system       triclinic
_cell_length_a                    12.327802
_cell_length_b                    13.335572
_cell_length_c                    14.221124
_cell_angle_alpha                 93.256624
_cell_angle_beta                  107.258929
_cell_angle_gamma                 116.973401
_cell_volume                      1938.82667436

loop_
_atom_site_label
_atom_site_type_symbol
_atom_type_description
_atom_site_fract_x
_atom_site_fract_y
_atom_site_fract_z
_atom_type_partial_charge
C1    C     C_R   0.648203 0.712733 0.504002 0.783988
C2    C     C_R   0.869276 0.531496 0.922822 0.075212
C3    C     C_R   0.844090 0.582002 0.998642 0.106576
C4    C     C_R   0.972773 0.505474 0.949829 0.070780
C5    C     C_R   0.036058 0.511733 0.053007 0.058395
C6    C     C_R   0.000307 0.552592 0.126422 -0.209270
C7    C     C_R   0.910089 0.590728 0.099950 -0.224506
C8    C     C_R   0.017992 0.477740 0.876976 -0.225020
C9    C     C_R   0.118128 0.451485 0.903703 -0.227543
C10   C     C_R   0.177599 0.452558 0.003771 0.166579
C11   C     C_R   0.136275 0.481126 0.079286 0.084687
C12   C     C_R   0.619841 0.519142 0.686870 0.811389
C13   C     C_R   0.280435 0.427778 0.029472 -0.212947
C14   C     C_R   0.347107 0.436031 0.130147 -0.209208
C15   C     C_R   0.198872 0.480192 0.178948 -0.270794
C16   C     C_R   0.172567 0.959442 0.393615 -0.043624
C17   C     C_R   0.251929 0.161134 0.465265 -0.075835
C18   C     C_R   0.701270 0.916926 0.532402 -0.193367
C19   C     C_R   0.779748 0.032255 0.535567 -0.145954
C20   C     C_R   0.888361 0.066066 0.508168 -0.188313
C21   C     C_R   0.918430 0.983576 0.473118 0.096377
C22   C     C_R   0.827439 0.864980 0.456144 0.069311
C23   C     C_R   0.345422 0.285066 0.485406 0.835001
C24   C     C_R   0.035624 0.014932 0.454251 0.055407
C25   C     C_R   0.054076 0.928767 0.408904 0.074771
C26   C     C_R   0.952859 0.814311 0.378320 -0.213101
C27   C     C_R   0.840595 0.783580 0.399301 -0.193126
C28   C     C_R   0.136870 0.129523 0.483023 -0.320150
C29   C     C_R   0.272202 0.075788 0.423159 0.111506
C30   C     C_R   0.725384 0.832268 0.495356 -0.112276
C31   C     C_R   0.253988 0.685670 0.660735 -0.282151
C32   C     C_R   0.656042 0.342968 0.364049 0.088548
C33   C     C_R   0.734759 0.309112 0.334441 -0.260017
C34   C     C_R   0.379033 0.479609 0.312970 0.785471
C35   C     C_R   0.869772 0.368553 0.385518 -0.189196
C36   C     C_R   0.928585 0.463527 0.467552 -0.010686
C37   C     C_R   0.843590 0.494992 0.495146 0.255769
C38   C     C_R   0.067794 0.527984 0.523159 -0.083450
C39   C     C_R   0.118754 0.622296 0.605132 0.166866
C40   C     C_R   0.034413 0.652250 0.630855 0.071590
C41   C     C_R   0.900456 0.589648 0.576534 -0.249793
C42   C     C_R   0.159768 0.503056 0.501533 0.021494
C43   C     C_R   0.338153 0.656384 0.635742 0.015997
C44   C     C_R   0.692905 0.538703 0.794449 -0.074174
C45   C     C_R   0.307781 0.464373 0.205560 -0.059724
C46   C     C_R   0.750061 0.619043 0.970845 0.003332
C47   C     C_R   0.674611 0.595954 0.868691 -0.236366
C48   C     C_R   0.788368 0.506168 0.821889 -0.268050
Cu1   Cu    Cu3+1 0.416420 0.526630 0.522910 0.913551
Cu2   Cu    Cu3+1 0.583580 0.473370 0.477090 0.927173
H1    H     H_    0.889878 0.624267 0.159878 0.155740
H2    H     H_    0.311414 0.404951 0.971799 0.131477
H3    H     H_    0.959170 0.747419 0.337320 0.154471
H4    H     H_    0.129722 0.196632 0.521740 0.167419
H5    H     H_    0.621852 0.894261 0.559824 0.153764
H6    H     H_    0.944662 0.157206 0.512976 0.129848
H7    H     H_    0.758544 0.096504 0.562362 0.146579
H8    H     H_    0.762961 0.695745 0.366252 0.185952
H9    H     H_    0.442009 0.705278 0.678609 0.130587
H10   H     H_    0.166052 0.493503 0.238125 0.155911
H11   H     H_    0.295404 0.757894 0.723575 0.177653
H12   H     H_    0.129553 0.433217 0.440590 0.122628
H13   H     H_    0.551592 0.296523 0.323532 0.129856
H14   H     H_    0.925544 0.338344 0.359196 0.132132
H15   H     H_    0.690885 0.236433 0.271488 0.143718
H16   H     H_    0.844721 0.619080 0.601721 0.215015
H17   H     H_    0.429552 0.421078 0.148879 0.156515
H18   H     H_    0.150604 0.431936 0.845656 0.147791
H19   H     H_    0.603791 0.625369 0.847087 0.157145
H20   H     H_    0.795094 0.457287 0.763017 0.160948
H21   H     H_    0.044200 0.561676 0.206254 0.159048
H22   H     H_    0.981967 0.480832 0.798829 0.151436
N1    N     N_R   0.290690 0.566960 0.557640 -0.183262
N2    N     N_R   0.709100 0.433710 0.442970 -0.198908
O1    O     O_R   0.545970 0.684450 0.528810 -0.596048
O2    O     O_R   0.687130 0.639470 0.490120 -0.608013
O3    O     O_R   0.519670 0.535100 0.660030 -0.578689
O4    O     O_R   0.660830 0.490120 0.621340 -0.600974
O5    O     O_R   0.312870 0.360530 0.509880 -0.595493
O6    O     O_R   0.454030 0.315550 0.471190 -0.546422
O7    O     O_R   0.339170 0.509880 0.378660 -0.601227
O8    O     O_R   0.480330 0.464900 0.339970 -0.594623
N3    N     N_3   0.395018 0.107375 0.411865 -0.569593
H23   H     H_    0.379598 0.087542 0.335288 0.211987
H24   H     H_    0.435846 0.061180 0.450709 0.228753
C49   C     C_R   0.198924 0.872751 0.350631 0.098995
C50   C     C_R   0.249264 0.815595 0.414652 -0.172190
C51   C     C_R   0.305411 0.756894 0.381790 -0.149974
C52   C     C_R   0.311507 0.754878 0.285213 -0.123329
C53   C     C_R   0.256066 0.807048 0.219486 -0.121782
C54   C     C_R   0.199108 0.865294 0.251776 -0.165791
H25   H     H_    0.251781 0.822187 0.491613 0.145417
H26   H     H_    0.348209 0.716445 0.432365 0.185568
H27   H     H_    0.359672 0.713376 0.261442 0.132463
H28   H     H_    0.259723 0.804438 0.144327 0.134792
H29   H     H_    0.162661 0.910653 0.202191 0.116853
N4    N     N_3   0.084507 0.747334 0.713462 -0.608766
H30   H     H_    0.057089 0.806610 0.685665 0.228242
H31   H     H_    0.040191 0.716192 0.765750 0.223780
C55   C     C_R   0.733875 0.688611 0.045134 0.092729
C56   C     C_R   0.837179 0.798976 0.099697 -0.161280
C57   C     C_R   0.819456 0.867783 0.164916 -0.114678
C58   C     C_R   0.699004 0.826608 0.176746 -0.111079
C59   C     C_R   0.595837 0.716847 0.122845 -0.141908
C60   C     C_R   0.612848 0.648335 0.056664 -0.150102
H32   H     H_    0.930443 0.832259 0.090302 0.124635
H33   H     H_    0.899201 0.952948 0.206466 0.133580
H34   H     H_    0.685705 0.879700 0.227756 0.131173
H35   H     H_    0.502469 0.685378 0.131759 0.140388
H36   H     H_    0.532077 0.564220 0.014051 0.128011

loop_
_geom_bond_atom_site_label_1
_geom_bond_atom_site_label_2
_ccdc_geom_bond_type
C43   N1    A    
C60   H36   S    
C56   C57   A    
C17   C29   A    
C15   H10   S    
C31   H11   S    
C35   C36   A    
C4    C8    A    
C37   N2    A    
N4    H30   S    
C33   H15   S    
C53   H28   S    
C19   H7    S    
C55   C60   A    
C17   C23   S    
C31   C43   A    
C5    C6    A    
C1    C30   S    
C36   C37   A    
C5    C11   A    
C3    C7    A    
C49   C54   A    
Cu2   N2    S    
C32   N2    A    
C59   H35   S    
C56   H32   S    
C18   C19   A    
Cu1   O7    S    
C52   H27   S    
C47   H19   S    
C54   H29   S    
C51   H26   S    
C11   C15   A    
C19   C20   A    
Cu1   O3    S    
C8    C9    A    
C12   O4    A    
C14   H17   S    
Cu1   O1    S    
C35   H14   S    
C18   C30   A    
C34   O7    A    
C23   O6    A    
C9    C10   A    
C42   H12   S    
C44   C47   A    
C43   H9    S    
C13   C14   A    
C16   C49   S    
C1    O2    A    
Cu2   O4    S    
C59   C60   A    
N4    H31   S    
C14   C45   A    
C6    H21   S    
C8    H22   S    
C1    O1    A    
C24   C25   A    
C40   N4    S    
C28   H4    S    
C49   C50   A    
C2    C48   A    
C16   C29   A    
C27   H8    S    
Cu1   O5    S    
C2    C4    A    
Cu2   O2    S    
C13   H2    S    
N3    H23   S    
C12   O3    A    
C26   C27   A    
C57   H33   S    
C34   C45   S    
C20   C21   A    
C6    C7    A    
C18   H5    S    
C40   C41   A    
N3    H24   S    
C22   C27   A    
Cu1   N1    S    
C15   C45   A    
C26   H3    S    
C39   C40   A    
C50   H25   S    
Cu2   O8    S    
C16   C25   A    
C46   C55   S    
C46   C47   A    
C42   N1    A    
C22   C30   A    
C17   C28   A    
C24   C28   A    
C32   H13   S    
C48   H20   S    
C4    C5    A    
C10   C13   A    
Cu2   O6    S    
C29   N3    S    
C41   H16   S    
C3    C46   A    
C32   C33   A    
C36   C38   A    
C2    C3    A    
C25   C26   A    
C9    H18   S    
C7    H1    S    
C12   C44   S    
C53   C54   A    
C38   C39   A    
C55   C56   A    
C33   C35   A    
C31   C39   A    
C20   H6    S    
C37   C41   A    
C57   C58   A    
C10   C11   A    
C38   C42   A    
C51   C52   A    
C50   C51   A    
Cu1   Cu2   S    
C21   C24   A    
C58   C59   A    
C58   H34   S    
C34   O8    A    
C23   O5    A    
C52   C53   A    
C21   C22   A    
C44   C48   A    
