data_mof_unit_15441.cif
_audit_creation_date              2012-12-10T17:56:18-0500
_audit_creation_method            fapswitch 2.2
_symmetry_space_group_name_H-M    P1
_symmetry_Int_Tables_number       1
_space_group_crystal_system       triclinic
_cell_length_a                    13.032923
_cell_length_b                    10.841853
_cell_length_c                    9.51116
_cell_angle_alpha                 90.998683
_cell_angle_beta                  96.509814
_cell_angle_gamma                 90.712553
_cell_volume                      1334.92831564

loop_
_atom_site_label
_atom_site_type_symbol
_atom_type_description
_atom_site_fract_x
_atom_site_fract_y
_atom_site_fract_z
_atom_type_partial_charge
C1    C     C_R   0.495880 0.262155 0.498185 0.790927
C2    C     C_R   0.503669 0.737775 0.502087 0.817931
C3    C     C_R   0.504572 0.871665 0.504697 -0.062031
C4    C     C_R   0.494919 0.128094 0.497047 -0.062203
C5    C     C_R   0.434044 0.424808 0.062312 -0.022710
C6    C     C_R   0.567580 0.573456 0.937607 -0.054642
C7    C     C_R   0.434488 0.424193 0.913737 0.033411
C8    C     C_R   0.567072 0.574084 0.086396 -0.016486
C9    C     C_R   0.299367 0.495985 0.472672 0.794259
C10   C     C_R   0.699013 0.496955 0.526686 0.811620
C11   C     C_R   0.810915 0.482607 0.541620 -0.170651
C12   C     C_R   0.184120 0.488303 0.454781 -0.201057
C13   C     C_R   0.021830 0.544533 0.318943 0.156371
C14   C     C_R   0.967366 0.377320 0.636576 0.148750
C15   C     C_R   0.124501 0.500396 0.320132 0.080810
C16   C     C_R   0.858209 0.386109 0.623776 0.101404
C17   C     C_R   0.129902 0.470159 0.573614 -0.085854
C18   C     C_R   0.868358 0.554735 0.456037 -0.072297
C19   C     C_R   0.022785 0.455474 0.552326 0.002936
C20   C     C_R   0.970438 0.522267 0.441337 0.011937
C21   C     C_R   0.436045 0.056499 0.390610 0.171296
C22   C     C_R   0.560416 0.943065 0.614587 0.171719
C23   C     C_R   0.443992 0.928830 0.394515 -0.249787
C24   C     C_R   0.554569 0.070881 0.608208 -0.270303
Cu1   Cu    Cu3+1 0.500000 0.500020 0.640660 0.945670
Cu2   Cu    Cu3+1 0.500000 0.499980 0.359340 0.942629
H1    H     H_    0.398627 0.872694 0.314118 0.152288
H2    H     H_    0.597610 0.126792 0.690725 0.153184
H3    H     H_    0.381063 0.364832 0.108086 0.099629
H4    H     H_    0.622670 0.630876 0.891373 0.126256
H5    H     H_    0.382270 0.362952 0.848275 0.125981
H6    H     H_    0.620524 0.633727 0.152041 0.139897
N1    N     N_R   0.500030 0.500030 0.852080 -0.159661
N2    N     N_R   0.499970 0.499970 0.147920 -0.161115
O1    O     O_R   0.499990 0.319660 0.618740 -0.591946
O2    O     O_R   0.500010 0.680340 0.381260 -0.579644
O3    O     O_R   0.499990 0.319630 0.381170 -0.586124
O4    O     O_R   0.500010 0.680370 0.618830 -0.581152
O5    O     O_R   0.349000 0.499990 0.599490 -0.562340
O6    O     O_R   0.651000 0.500010 0.400510 -0.576454
O7    O     O_R   0.348990 0.499960 0.361920 -0.595063
O8    O     O_R   0.651010 0.500040 0.638080 -0.585329
C25   C     C_1   0.825894 0.669586 0.400909 0.213492
N3    N     N_1   0.791416 0.761232 0.357821 -0.322321
C26   C     C_1   0.176063 0.494798 0.717298 0.264773
N4    N     N_1   0.211586 0.516034 0.832333 -0.324793
C27   C     C_3   0.792086 0.288262 0.685960 -0.374182
C28   C     C_3   0.780371 0.314576 0.841641 -0.817175
H7    H     H_    0.856397 0.315899 0.906744 0.233846
H8    H     H_    0.743135 0.404687 0.855089 0.274396
H9    H     H_    0.731403 0.241457 0.881553 0.233627
H10   H     H_    0.714396 0.280916 0.625800 0.197189
H11   H     H_    0.823660 0.194738 0.673193 0.198363
C29   C     C_3   0.165864 0.458068 0.183187 -0.340302
C30   C     C_3   0.092471 0.370802 0.090033 -0.875627
H12   H     H_    0.046209 0.312812 0.155363 0.256791
H13   H     H_    0.041167 0.422593 0.011910 0.269685
H14   H     H_    0.137870 0.308015 0.028197 0.230158
H15   H     H_    0.188375 0.538516 0.122292 0.214593
H16   H     H_    0.234174 0.400604 0.207806 0.227559
C31   C     C_3   0.969052 0.605115 0.186520 -0.357330
C32   C     C_3   0.875987 0.530676 0.114860 -0.827976
H17   H     H_    0.803709 0.555727 0.158224 0.253735
H18   H     H_    0.865267 0.550668 0.000042 0.233027
H19   H     H_    0.886923 0.430193 0.128636 0.257007
H20   H     H_    0.946255 0.700307 0.211446 0.200754
H21   H     H_    0.024149 0.619448 0.107566 0.202072
C33   C     C_3   0.022339 0.268989 0.712162 -0.410815
C34   C     C_3   0.044830 0.168467 0.605881 -0.843010
H22   H     H_    0.971931 0.133902 0.545417 0.252084
H23   H     H_    0.083692 0.090226 0.662763 0.242436
H24   H     H_    0.096407 0.204931 0.530688 0.262140
H25   H     H_    0.977715 0.227363 0.791686 0.212356
H26   H     H_    0.095579 0.297405 0.774311 0.204801
C35   C     C_3   0.357539 0.110311 0.279778 -0.408996
C36   C     C_3   0.262752 0.154207 0.345893 -0.852792
H27   H     H_    0.229883 0.077802 0.403839 0.256564
H28   H     H_    0.282952 0.232922 0.420256 0.240825
H29   H     H_    0.202899 0.183735 0.261592 0.249267
H30   H     H_    0.392086 0.185502 0.223455 0.211101
H31   H     H_    0.330949 0.039909 0.196741 0.194830
C37   C     C_3   0.626894 0.888777 0.739113 -0.414611
C38   C     C_3   0.723748 0.828923 0.694424 -0.795423
H32   H     H_    0.703368 0.750236 0.620586 0.250745
H33   H     H_    0.770177 0.897580 0.642415 0.255723
H34   H     H_    0.771483 0.793963 0.789148 0.230312
H35   H     H_    0.652765 0.961671 0.819528 0.193710
H36   H     H_    0.581247 0.822663 0.794867 0.215335

loop_
_geom_bond_atom_site_label_1
_geom_bond_atom_site_label_2
_ccdc_geom_bond_type
C30   H12   S    
C11   C18   A    
C10   O8    A    
C3    C23   A    
C19   C20   A    
C36   H29   S    
C25   N3    T    
C29   H16   S    
C26   N4    T    
C22   C37   S    
C22   C24   A    
C17   C26   S    
C4    C24   A    
C33   H26   S    
C37   H35   S    
C9    O5    A    
C10   O6    A    
C34   H23   S    
C2    O4    A    
C32   H18   S    
C31   H20   S    
Cu2   N2    S    
C28   H9    S    
C27   C28   S    
C33   C34   S    
C12   C17   A    
C23   H1    S    
C35   H30   S    
C13   C20   A    
C1    O3    A    
C27   H11   S    
C28   H8    S    
C7    N1    A    
C31   C32   S    
C16   C27   S    
C5    H3    S    
C29   H15   S    
C21   C23   A    
C7    H5    S    
C8    H6    S    
C15   C29   S    
C36   H27   S    
C5    C7    A    
C35   H31   S    
C6    C8    A    
C33   H25   S    
C34   H24   S    
C35   C36   S    
C32   H17   S    
Cu1   O4    S    
C11   C16   A    
C31   H21   S    
C38   H32   S    
C12   C15   A    
C5    N2    A    
C8    N2    A    
Cu1   O1    S    
Cu2   O2    S    
C28   H7    S    
C38   H33   S    
C30   H13   S    
C14   C16   A    
C1    O1    A    
C2    O2    A    
C29   C30   S    
C32   H19   S    
C6    H4    S    
C14   C19   A    
C24   H2    S    
C36   H28   S    
Cu1   O8    S    
Cu2   O3    S    
C27   H10   S    
C21   C35   S    
C9    O7    A    
C6    N1    A    
C1    C4    S    
C13   C15   A    
C2    C3    S    
Cu1   Cu2   S    
C18   C25   S    
Cu1   O5    S    
C4    C21   A    
Cu2   O6    S    
C37   H36   S    
C17   C19   A    
C18   C20   A    
C34   H22   S    
C9    C12   S    
C10   C11   S    
C38   H34   S    
C13   C31   S    
C37   C38   S    
C30   H14   S    
C14   C33   S    
C3    C22   A    
Cu2   O7    S    
Cu1   N1    S    
