data_mof_unit_11231.cif
_audit_creation_date              2013-03-05T16:05:41-0500
_audit_creation_method            fapswitch 2.2
_symmetry_space_group_name_H-M    P1
_symmetry_Int_Tables_number       1
_space_group_crystal_system       triclinic
_cell_length_a                    10.831366
_cell_length_b                    15.097031
_cell_length_c                    15.691548
_cell_angle_alpha                 83.259634
_cell_angle_beta                  90.260505
_cell_angle_gamma                 103.889605
_cell_volume                      2472.91850695

loop_
_atom_site_label
_atom_site_type_symbol
_atom_site_description
_atom_site_fract_x
_atom_site_fract_y
_atom_site_fract_z
_atom_type_partial_charge
O1    O     O_R   0.462770 0.383110 0.605620 -0.601431
O2    O     O_R   0.510160 0.531900 0.639510 -0.549126
C1    C     C_R   0.481953 0.442098 0.661314 0.972168
O3    O     O_R   0.661510 0.425600 0.483070 -0.507883
O4    O     O_R   0.708900 0.574390 0.516960 -0.578341
C2    C     C_R   0.742157 0.501213 0.498247 0.989439
Zn1   Zn    Zn3+2 0.468350 0.400660 0.477370 1.139709
Zn2   Zn    Zn3+2 0.531650 0.599340 0.522630 1.189848
O5    O     O_R   0.489840 0.468100 0.360490 -0.598871
O6    O     O_R   0.537230 0.616890 0.394380 -0.508742
O7    O     O_R   0.291100 0.425610 0.483040 -0.611956
O8    O     O_R   0.338490 0.574400 0.516930 -0.572389
C3    C     C_R   0.518139 0.557310 0.338501 1.030134
C4    C     C_R   0.258417 0.499681 0.502512 1.042739
C5    C     C_3   0.905404 0.431939 0.574350 -0.013834
H1    H     H_    0.894351 0.462888 0.633868 0.191980
C6    C     C_3   0.043768 0.420718 0.567946 -0.034348
H2    H     H_    0.041571 0.356886 0.538476 0.215959
H3    H     H_    0.082145 0.416693 0.401413 0.224037
C7    C     C_3   0.925785 0.479720 0.409166 0.716078
C8    C     C_3   0.960183 0.599918 0.519011 -0.113603
C9    C     C_3   0.879728 0.503267 0.497304 -0.457585
H4    H     H_    0.922411 0.605074 0.582792 0.220229
C10   C     C_3   0.123062 0.502960 0.504829 -0.460293
C11   C     C_3   0.071118 0.484929 0.413526 0.311113
C12   C     C_3   0.103933 0.599779 0.530469 0.361645
C13   C     C_R   0.465487 0.405611 0.752297 -0.173053
C14   C     C_R   0.533417 0.589933 0.246577 -0.281914
C15   C     C_R   0.390653 0.283549 0.868208 -0.049966
C16   C     C_R   0.402771 0.314190 0.780335 -0.140472
C17   C     C_R   0.512482 0.464181 0.812432 0.709972
C18   C     C_R   0.478224 0.440127 0.898764 -0.052114
C19   C     C_R   0.430950 0.346281 0.928580 -0.095626
C20   C     C_R   0.500604 0.506855 0.956186 -0.086520
C21   C     C_R   0.506609 0.478170 0.044734 -0.070869
C22   C     C_R   0.491262 0.382115 0.072356 0.216625
C23   C     C_R   0.438751 0.316956 0.016291 0.247082
C24   C     C_R   0.512525 0.601273 0.927262 0.748920
C25   C     C_R   0.551155 0.667568 0.982174 -0.093309
C26   C     C_R   0.559628 0.641504 0.069527 -0.224191
C27   C     C_R   0.526458 0.546860 0.101694 0.039962
C28   C     C_R   0.590608 0.708681 0.126176 0.640499
C29   C     C_R   0.581515 0.682674 0.214584 0.652571
C30   C     C_R   0.502480 0.524206 0.189535 -0.145545
H5    H     H_    0.454806 0.455126 0.214171 0.246860
H6    H     H_    0.565020 0.739332 0.956964 0.257413
H7    H     H_    0.350972 0.211227 0.888100 0.220338
H8    H     H_    0.367796 0.265926 0.734777 0.217577
N1    N     N_R   0.573860 0.731700 0.552730 -0.246140
N2    N     N_R   0.426060 0.268290 0.447230 -0.223557
C31   C     C_R   0.637245 0.840611 0.654047 0.584843
C32   C     C_R   0.631209 0.754607 0.628547 0.197171
C33   C     C_R   0.536977 0.797506 0.498237 0.814132
C34   C     C_R   0.527107 0.882921 0.526370 -0.171285
C35   C     C_R   0.573380 0.899936 0.609351 -0.242183
C36   C     C_R   0.476084 0.952672 0.477483 -0.030433
C37   C     C_R   0.488795 0.039105 0.510038 0.011624
C38   C     C_R   0.520761 0.046363 0.595834 -0.108095
C39   C     C_R   0.559721 0.977746 0.646046 0.380182
C40   C     C_R   0.407310 0.939928 0.400790 0.685341
C41   C     C_R   0.359387 0.009985 0.356778 0.223297
C42   C     C_R   0.374013 0.094890 0.389823 -0.261110
C43   C     C_R   0.451369 0.112922 0.461337 -0.171673
C44   C     C_R   0.306550 0.160250 0.357671 0.240877
C45   C     C_R   0.331451 0.245480 0.389883 0.264300
C46   C     C_R   0.484830 0.204359 0.483397 0.733593
H9    H     H_    0.504175 0.101956 0.628080 0.210400
N3    N     N_R   0.814156 0.341709 0.584395 0.302245
O9    O     O_R   0.824728 0.277682 0.538056 -0.202625
O10   O     O_R   0.737464 0.319489 0.651267 -0.290156
N4    N     N_R   0.184741 0.680073 0.476758 0.281498
O11   O     O_R   0.257974 0.745551 0.513542 -0.308626
O12   O     O_R   0.170988 0.694325 0.394331 -0.158659
N5    N     N_R   0.889780 0.535703 0.333944 0.262305
O13   O     O_R   0.773570 0.514252 0.307648 -0.329782
O14   O     O_R   0.972064 0.599705 0.287120 -0.177800
F1    F     F_    0.146205 0.542067 0.348544 -0.556114
N6    N     N_R   0.411660 0.220731 0.045966 0.245969
O15   O     O_R   0.504298 0.179915 0.058639 -0.223038
O16   O     O_R   0.294596 0.172228 0.051288 -0.244005
F2    F     F_    0.616759 0.748289 0.267940 -0.491507
F3    F     F_    0.609444 0.537467 0.789206 -0.578330
N7    N     N_R   0.544225 0.350966 0.151258 0.219819
O17   O     O_R   0.660043 0.390015 0.170290 -0.249978
O18   O     O_R   0.479557 0.281576 0.202597 -0.314628
F4    F     F_    0.476997 0.629716 0.847571 -0.576111
F5    F     F_    0.628256 0.799350 0.096003 -0.532473
N8    N     N_R   0.576568 0.985606 0.736146 0.265083
O19   O     O_R   0.628310 0.064871 0.761627 -0.265128
O20   O     O_R   0.521990 0.917578 0.792850 -0.247982
F6    F     F_    0.576838 0.231148 0.539444 -0.585353
N9    N     N_R   0.243744 0.301627 0.371924 0.236817
O21   O     O_R   0.265956 0.365983 0.307347 -0.323025
O22   O     O_R   0.127627 0.269844 0.401652 -0.332955
N10   N     N_R   0.303279 0.995356 0.274904 0.272074
O23   O     O_R   0.213836 0.922163 0.266663 -0.162264
O24   O     O_R   0.352002 0.049837 0.206646 -0.210707
F7    F     F_    0.712599 0.868831 0.720135 -0.530906
N11   N     N_R   0.689755 0.693978 0.683057 0.317937
O25   O     O_R   0.754044 0.644201 0.650099 -0.324527
O26   O     O_R   0.708480 0.706210 0.763346 -0.170403
F8    F     F_    0.520535 0.780661 0.416219 -0.500234
N12   N     N_R   0.100920 0.407088 0.652427 0.262123
O27   O     O_R   0.191821 0.364206 0.659221 -0.389885
O28   O     O_R   0.047318 0.419467 0.722752 -0.266408
F9    F     F_    0.372706 0.857942 0.370175 -0.499578
N13   N     N_R   0.200350 0.136885 0.302489 0.272404
O29   O     O_R   0.102878 0.070248 0.328823 -0.247661
O30   O     O_R   0.192341 0.190309 0.232371 -0.202455
F10   F     F_    0.865634 0.389322 0.400061 -0.566254
N14   N     N_R   0.940670 0.683730 0.466855 0.289177
O31   O     O_R   0.981448 0.762488 0.496187 -0.243164
O32   O     O_R   0.866420 0.680973 0.401462 -0.264254
N15   N     N_R   0.135712 0.610551 0.622143 0.220364
O33   O     O_R   0.096340 0.671943 0.659275 -0.256427
O34   O     O_R   0.230354 0.582186 0.657526 -0.296615

loop_
_geom_bond_atom_site_label_1
_geom_bond_atom_site_label_2
_geom_bond_distance
_ccdc_geom_bond_type
C45   N9    1.424246 S    
C8    C12   1.567012 S    
C35   C39   1.405830 A    
N8    O20   1.301815 A    
N10   O23   1.301826 A    
N15   O33   1.303524 A    
C33   C34   1.438539 A    
Zn1   O7    2.047503 S    
C15   C16   1.398298 A    
C17   F3    1.345693 S    
N5    O14   1.301399 A    
C24   F4    1.358340 S    
C11   F1    1.381855 S    
C16   H8    1.082937 S    
C22   C23   1.412480 A    
C10   C12   1.620339 S    
C24   C25   1.384685 A    
Zn2   O6    1.998007 S    
O7    C4    1.319236 A    
N6    O16   1.300677 A    
C7    C11   1.558747 S    
C22   N7    1.438577 S    
C5    H1    1.111392 S    
C2    C9    1.483048 S    
C15   C19   1.411823 A    
C36   C37   1.432558 A    
C5    C6    1.553089 S    
C20   C21   1.412023 A    
C4    C10   1.479509 S    
O5    C3    1.311703 A    
C39   N8    1.439739 S    
C42   C44   1.409997 A    
C5    C9    1.591745 S    
N7    O17   1.301254 A    
N3    O9    1.301951 A    
N13   O29   1.301504 A    
C3    C14   1.465211 S    
C31   F7    1.360937 S    
C26   C28   1.405998 A    
C43   C46   1.423945 A    
C20   C24   1.419436 A    
C8    C9    1.583667 S    
C13   C16   1.403558 A    
C12   N4    1.484367 S    
N13   O30   1.301171 A    
O3    Zn1   2.038385 S    
C21   C27   1.424540 A    
C8    N14   1.482975 S    
C37   C43   1.415764 A    
C34   C36   1.445230 A    
C6    C10   1.570747 S    
N5    O13   1.300163 A    
C13   C17   1.380864 A    
C31   C32   1.389677 A    
C10   C11   1.566492 S    
N14   O32   1.299196 A    
C25   C26   1.389846 A    
N4    O12   1.299886 A    
N6    O15   1.300885 A    
C38   C39   1.373769 A    
C14   C30   1.394342 A    
C19   C23   1.404024 A    
C36   C40   1.420407 A    
C40   C41   1.397805 A    
O1    C1    1.300842 A    
C21   C22   1.433806 A    
C18   C20   1.406884 A    
C12   N15   1.495917 S    
C42   C43   1.410329 A    
N11   O25   1.289504 A    
C33   F8    1.343762 S    
Zn2   O8    2.038385 S    
N1    C32   1.381131 A    
N9    O22   1.301049 A    
C6    H2    1.112005 S    
C7    N5    1.476315 S    
N12   O28   1.302332 A    
N10   O24   1.300827 A    
N2    C46   1.349782 A    
C25   H6    1.083816 S    
C7    F10   1.387609 S    
O3    C2    1.306150 A    
C26   C27   1.418212 A    
N7    O18   1.300675 A    
C15   H7    1.081768 S    
C8    H4    1.101095 S    
C29   F2    1.355804 S    
C27   C30   1.390767 A    
C28   C29   1.393962 A    
C40   F9    1.348517 S    
C30   H5    1.073484 S    
C44   N13   1.437081 S    
Zn1   O5    1.976417 S    
C34   C35   1.422465 A    
C14   C29   1.403905 A    
N14   O31   1.301982 A    
N11   O26   1.302598 A    
O1    Zn1   1.998007 S    
C17   C18   1.388924 A    
O2    Zn2   1.976417 S    
Zn1   N2    2.051215 S    
C7    C9    1.579499 S    
O6    C3    1.309523 A    
O4    Zn2   2.047502 S    
N15   O34   1.300848 A    
C41   N10   1.436559 S    
C46   F6    1.346185 S    
C23   N6    1.432163 S    
C32   N11   1.435793 S    
C44   C45   1.403097 A    
C1    C13   1.464242 S    
O2    C1    1.319711 A    
O8    C4    1.290070 A    
N4    O11   1.301087 A    
C18   C19   1.409505 A    
C37   C38   1.398757 A    
O4    C2    1.305614 A    
N1    C33   1.365940 A    
C5    N3    1.470344 S    
N9    O21   1.299058 A    
C31   C35   1.384970 A    
C6    N12   1.473948 S    
C41   C42   1.412379 A    
H3    C11   1.103118 S    
N2    C45   1.368720 A    
C38   H9    1.079631 S    
N8    O19   1.301636 A    
N3    O10   1.301983 A    
N12   O27   1.299513 A    
C28   F5    1.358603 S    
Zn2   N1    2.050864 S    
