data_mof_unit_34918.cif
_audit_creation_date              2013-03-05T16:00:03-0500
_audit_creation_method            fapswitch 2.2
_symmetry_space_group_name_H-M    P1
_symmetry_Int_Tables_number       1
_space_group_crystal_system       triclinic
_cell_length_a                    20.632234
_cell_length_b                    21.111517
_cell_length_c                    14.737171
_cell_angle_alpha                 90.005264
_cell_angle_beta                  127.66032
_cell_angle_gamma                 89.994068
_cell_volume                      5081.72672287

loop_
_atom_site_label
_atom_site_type_symbol
_atom_site_description
_atom_site_fract_x
_atom_site_fract_y
_atom_site_fract_z
_atom_type_partial_charge
O1    O     O_R   0.600040 0.935040 0.546740 -0.559582
O2    O     O_R   0.399960 0.064960 0.453260 -0.557457
O3    O     O_R   0.399960 0.935040 0.453260 -0.559095
O4    O     O_R   0.600040 0.064960 0.546740 -0.557169
O5    O     O_R   0.100040 0.435040 0.546740 -0.559615
O6    O     O_R   0.899960 0.564960 0.453260 -0.557250
O7    O     O_R   0.899960 0.435040 0.453260 -0.559150
O8    O     O_R   0.100040 0.564960 0.546740 -0.556887
O9    O     O_R   0.555010 0.935070 0.653220 -0.573582
O10   O     O_R   0.444990 0.064930 0.346780 -0.574495
O11   O     O_R   0.444990 0.935070 0.346780 -0.573005
O12   O     O_R   0.555010 0.064930 0.653220 -0.574099
O13   O     O_R   0.055010 0.435070 0.653220 -0.573436
O14   O     O_R   0.944990 0.564930 0.346780 -0.574765
O15   O     O_R   0.944990 0.435070 0.346780 -0.572939
O16   O     O_R   0.055010 0.564930 0.653220 -0.574314
C1    C     C_R   0.601060 0.911954 0.628777 0.840919
C2    C     C_R   0.398989 0.088085 0.371286 0.839340
C3    C     C_R   0.398951 0.911953 0.371231 0.840889
C4    C     C_R   0.600927 0.088133 0.628625 0.839394
C5    C     C_R   0.101045 0.411945 0.628760 0.840956
C6    C     C_R   0.898982 0.588081 0.371281 0.839031
C7    C     C_R   0.898968 0.411942 0.371248 0.840885
C8    C     C_R   0.101013 0.588078 0.628718 0.838991
Cu1   Cu    Cu3+1 0.526640 0.000000 0.436960 1.052524
Cu2   Cu    Cu3+1 0.473360 0.000000 0.563040 1.052697
Cu3   Cu    Cu3+1 0.026640 0.500000 0.436960 1.052634
Cu4   Cu    Cu3+1 0.973360 0.500000 0.563040 1.052656
C9    C     C_R   0.654586 0.142263 0.695278 -0.180451
C10   C     C_R   0.344944 0.858072 0.304133 -0.182199
C11   C     C_R   0.345156 0.142115 0.304457 -0.180724
C12   C     C_R   0.655113 0.858091 0.695926 -0.182386
C13   C     C_R   0.154841 0.642102 0.695536 -0.180962
C14   C     C_R   0.845052 0.358002 0.304238 -0.182238
C15   C     C_R   0.845126 0.642099 0.304435 -0.180965
C16   C     C_R   0.155045 0.358052 0.695855 -0.182310
C17   C     C_R   0.746576 0.227803 0.732804 -0.166718
C18   C     C_R   0.252346 0.772864 0.265790 -0.155268
C19   C     C_R   0.252320 0.227136 0.266157 -0.166213
C20   C     C_R   0.748039 0.773066 0.734585 -0.153800
C21   C     C_R   0.247480 0.727229 0.733647 -0.166532
C22   C     C_R   0.752814 0.272574 0.266251 -0.155450
C23   C     C_R   0.752184 0.727056 0.266034 -0.166092
C24   C     C_R   0.247787 0.272915 0.734333 -0.153810
C25   C     C_R   0.691591 0.180461 0.659306 0.325527
C26   C     C_R   0.307551 0.820000 0.339641 0.325583
C27   C     C_R   0.307332 0.179840 0.339723 0.326101
C28   C     C_R   0.692752 0.820142 0.660637 0.325348
C29   C     C_R   0.192506 0.679906 0.660129 0.326181
C30   C     C_R   0.807860 0.319829 0.339931 0.325526
C31   C     C_R   0.807221 0.679780 0.339631 0.326152
C32   C     C_R   0.192558 0.320036 0.660451 0.325284
C33   C     C_R   0.667975 0.156366 0.798147 -0.167550
C34   C     C_R   0.331474 0.844168 0.201158 -0.166301
C35   C     C_R   0.332303 0.156541 0.202052 -0.166837
C36   C     C_R   0.668412 0.844095 0.798759 -0.165943
C37   C     C_R   0.167833 0.656453 0.798056 -0.167443
C38   C     C_R   0.831518 0.344118 0.201208 -0.166102
C39   C     C_R   0.832324 0.656557 0.202076 -0.167099
C40   C     C_R   0.168396 0.344082 0.798731 -0.165904
C41   C     C_R   0.712568 0.209834 0.862794 0.114178
C42   C     C_R   0.286646 0.790881 0.136117 0.112220
C43   C     C_R   0.287404 0.209871 0.137200 0.114059
C44   C     C_R   0.713389 0.790879 0.863913 0.112099
C45   C     C_R   0.212615 0.709836 0.862819 0.114078
C46   C     C_R   0.786815 0.290761 0.136277 0.112313
C47   C     C_R   0.787407 0.709879 0.137217 0.114065
C48   C     C_R   0.213306 0.290832 0.863828 0.112008
C49   C     C_R   0.758572 0.241602 0.835081 0.013844
C50   C     C_R   0.240390 0.759189 0.163500 0.016908
C51   C     C_R   0.240826 0.241249 0.164336 0.014113
C52   C     C_R   0.759881 0.759338 0.836776 0.017515
C53   C     C_R   0.259044 0.741308 0.835531 0.013867
C54   C     C_R   0.740793 0.258916 0.163908 0.016664
C55   C     C_R   0.740744 0.741200 0.164261 0.014222
C56   C     C_R   0.259687 0.259216 0.836574 0.017540
C57   C     C_R   0.717469 0.229376 0.959123 -0.058921
C58   C     C_R   0.281788 0.771418 0.039770 -0.057573
C59   C     C_R   0.282716 0.229590 0.041113 -0.057972
C60   C     C_R   0.718174 0.771364 0.960174 -0.056688
C61   C     C_R   0.217318 0.729540 0.958929 -0.058648
C62   C     C_R   0.781824 0.271380 0.039784 -0.057648
C63   C     C_R   0.782783 0.729639 0.041201 -0.057907
C64   C     C_R   0.218142 0.271355 0.960145 -0.056808
C65   C     C_R   0.338660 0.792278 0.020862 0.312264
C66   C     C_R   0.660705 0.208429 0.978147 0.302876
C67   C     C_R   0.661093 0.792032 0.978810 0.312513
C68   C     C_R   0.339842 0.208988 0.022550 0.301574
C69   C     C_R   0.838420 0.292476 0.020507 0.312335
C70   C     C_R   0.160308 0.708824 0.977640 0.302535
C71   C     C_R   0.161150 0.292103 0.978900 0.312487
C72   C     C_R   0.839999 0.709114 0.022760 0.301728
C73   C     C_R   0.320963 0.782723 0.914171 -0.190437
C74   C     C_R   0.678758 0.217600 0.085148 -0.182050
C75   C     C_R   0.678704 0.782496 0.085456 -0.187146
C76   C     C_R   0.321941 0.218127 0.915633 -0.179250
C77   C     C_R   0.820439 0.283092 0.913597 -0.190236
C78   C     C_R   0.178223 0.718019 0.084551 -0.182105
C79   C     C_R   0.178817 0.282580 0.085582 -0.187547
C80   C     C_R   0.822175 0.718293 0.915898 -0.179653
H1    H     H_    0.361668 0.801891 0.897733 0.203376
H2    H     H_    0.638263 0.198244 0.101820 0.205071
H3    H     H_    0.637840 0.801536 0.101704 0.202830
H4    H     H_    0.362705 0.198983 0.899281 0.204781
H5    H     H_    0.860871 0.302482 0.896833 0.203326
H6    H     H_    0.137547 0.698806 0.101005 0.205042
H7    H     H_    0.138017 0.301672 0.101910 0.202910
H8    H     H_    0.863011 0.699208 0.899633 0.204828
H9    H     H_    0.354320 0.876721 0.170189 0.184756
H10   H     H_    0.645171 0.123896 0.829305 0.182107
H11   H     H_    0.645330 0.876530 0.829562 0.184475
H12   H     H_    0.355679 0.124367 0.171315 0.182035
H13   H     H_    0.854204 0.376746 0.170117 0.184692
H14   H     H_    0.144635 0.624191 0.828917 0.182423
H15   H     H_    0.145409 0.376564 0.829608 0.184508
H16   H     H_    0.855755 0.624415 0.171376 0.182150
H17   H     H_    0.280456 0.753675 0.710439 0.206914
H18   H     H_    0.720164 0.245841 0.289689 0.209537
H19   H     H_    0.719024 0.753392 0.289067 0.206818
H20   H     H_    0.280697 0.246329 0.711154 0.209649
H21   H     H_    0.779125 0.254555 0.709222 0.207021
H22   H     H_    0.219528 0.746228 0.289057 0.209490
H23   H     H_    0.219226 0.253513 0.289254 0.206809
H24   H     H_    0.781039 0.746538 0.711494 0.209676
N1    N     N_R   0.433280 0.000000 0.657760 -0.190810
N2    N     N_R   0.566720 0.000000 0.342240 -0.190600
N3    N     N_R   0.933280 0.500000 0.657760 -0.190747
N4    N     N_R   0.066720 0.500000 0.342240 -0.190769
C81   C     C_R   0.321358 0.001097 0.665755 -0.184434
C82   C     C_R   0.678658 0.998384 0.334293 -0.185193
C83   C     C_R   0.821353 0.500973 0.665753 -0.184480
C84   C     C_R   0.178661 0.498743 0.334285 -0.184725
C85   C     C_R   0.351587 0.999840 0.603348 0.164885
C86   C     C_R   0.648389 0.998320 0.396663 0.164029
C87   C     C_R   0.851587 0.499734 0.603349 0.164942
C88   C     C_R   0.148394 0.498493 0.396659 0.164939
C89   C     C_R   0.487810 0.000384 0.774891 0.168016
C90   C     C_R   0.512231 0.001118 0.225122 0.167906
C91   C     C_R   0.987806 0.500494 0.774890 0.167710
C92   C     C_R   0.012226 0.501095 0.225118 0.167725
C93   C     C_R   0.461078 0.001714 0.844506 0.017083
C94   C     C_R   0.539014 0.001590 0.155550 0.016988
C95   C     C_R   0.961069 0.501848 0.844501 0.016973
C96   C     C_R   0.039006 0.501744 0.155543 0.017051
C97   C     C_R   0.375289 0.003316 0.786550 0.005218
C98   C     C_R   0.624827 0.001103 0.213528 0.005209
C99   C     C_R   0.875276 0.503309 0.786542 0.005328
C100  C     C_R   0.124823 0.501469 0.213521 0.005045
C101  C     C_R   0.515953 0.001513 0.968278 0.069158
C102  C     C_R   0.484151 0.002274 0.031785 0.068662
C103  C     C_R   0.015947 0.501777 0.968272 0.068831
C104  C     C_R   0.984142 0.502412 0.031778 0.068952
C105  C     C_R   0.398494 0.004419 0.969608 -0.192757
C106  C     C_R   0.601653 0.001159 0.030483 -0.191961
C107  C     C_R   0.898481 0.504437 0.969600 -0.192472
C108  C     C_R   0.101647 0.501705 0.030475 -0.192551
C109  C     C_R   0.344735 0.005908 0.849907 0.322733
C110  C     C_R   0.655452 0.001964 0.150198 0.322713
C111  C     C_R   0.844717 0.505874 0.849895 0.322507
C112  C     C_R   0.155446 0.502571 0.150190 0.322811
H25   H     H_    0.448470 0.001316 0.188607 0.104478
H26   H     H_    0.551553 0.999659 0.811358 0.104516
H27   H     H_    0.948466 0.501156 0.188602 0.104591
H28   H     H_    0.051551 0.499803 0.811364 0.104515
H29   H     H_    0.690378 0.996630 0.489298 0.140281
H30   H     H_    0.309540 0.998750 0.510685 0.140485
H31   H     H_    0.190393 0.496839 0.489297 0.140569
H32   H     H_    0.809541 0.498561 0.510690 0.140485
H33   H     H_    0.255679 0.999680 0.618378 0.207487
H34   H     H_    0.744264 0.995535 0.381676 0.207506
H35   H     H_    0.755678 0.499445 0.618378 0.207454
H36   H     H_    0.244278 0.496046 0.381666 0.207552
H37   H     H_    0.370683 0.006886 0.011896 0.157071
H38   H     H_    0.629570 0.001955 0.988258 0.156838
H39   H     H_    0.870673 0.506864 0.011896 0.157112
H40   H     H_    0.129554 0.502724 0.988244 0.156876
N5    N     N_R   0.325060 0.827744 0.449414 0.136021
O17   O     O_R   0.400419 0.824844 0.542200 -0.267102
O18   O     O_R   0.266039 0.824662 0.458074 -0.309033
N6    N     N_R   0.673720 0.172775 0.549276 0.136472
O19   O     O_R   0.598167 0.174972 0.456842 -0.269048
O20   O     O_R   0.732341 0.176790 0.539890 -0.300316
N7    N     N_R   0.675438 0.827967 0.551002 0.135633
O21   O     O_R   0.600160 0.824915 0.458054 -0.267089
O22   O     O_R   0.734615 0.825110 0.542642 -0.310046
N8    N     N_R   0.324194 0.171583 0.448993 0.135720
O23   O     O_R   0.399310 0.174719 0.542303 -0.268583
O24   O     O_R   0.264702 0.174009 0.456732 -0.302037
N9    N     N_R   0.825423 0.327587 0.449733 0.135959
O25   O     O_R   0.900810 0.324802 0.542473 -0.267380
O26   O     O_R   0.766452 0.324427 0.458489 -0.308476
N10   N     N_R   0.175504 0.671714 0.550755 0.136117
O27   O     O_R   0.100329 0.674747 0.457562 -0.268429
O28   O     O_R   0.234885 0.674305 0.542799 -0.301488
N11   N     N_R   0.175160 0.327831 0.550758 0.135690
O29   O     O_R   0.099845 0.324868 0.457880 -0.267378
O30   O     O_R   0.234267 0.324862 0.542264 -0.309884
N12   N     N_R   0.824016 0.671490 0.448852 0.135767
O31   O     O_R   0.899104 0.674667 0.542216 -0.268425
O32   O     O_R   0.764474 0.673855 0.456491 -0.301965
N13   N     N_R   0.419261 0.814824 0.112238 0.108884
O33   O     O_R   0.462305 0.785487 0.210346 -0.270240
O34   O     O_R   0.455008 0.856882 0.091853 -0.374562
N14   N     N_R   0.579879 0.186323 0.886595 0.109405
O35   O     O_R   0.543375 0.145009 0.906904 -0.375032
O36   O     O_R   0.537345 0.215620 0.788446 -0.271318
N15   N     N_R   0.580387 0.814287 0.887190 0.108614
O37   O     O_R   0.537703 0.784872 0.789154 -0.269784
O38   O     O_R   0.544184 0.856059 0.907285 -0.374481
N16   N     N_R   0.420826 0.187348 0.114484 0.109336
O39   O     O_R   0.457971 0.146378 0.094705 -0.374650
O40   O     O_R   0.462816 0.216796 0.212477 -0.269891
N17   N     N_R   0.919023 0.315118 0.111672 0.108826
O41   O     O_R   0.962284 0.285799 0.209797 -0.270457
O42   O     O_R   0.954553 0.357254 0.091048 -0.374729
N18   N     N_R   0.079427 0.686917 0.885881 0.109437
O43   O     O_R   0.042644 0.645717 0.905898 -0.374676
O44   O     O_R   0.037168 0.716246 0.787768 -0.271227
N19   N     N_R   0.080467 0.314437 0.887365 0.108686
O45   O     O_R   0.037669 0.285033 0.789320 -0.269861
O46   O     O_R   0.044396 0.356286 0.907559 -0.374272
N20   N     N_R   0.920974 0.687481 0.114754 0.109327
O47   O     O_R   0.958183 0.646548 0.095024 -0.374703
O48   O     O_R   0.962885 0.716876 0.212798 -0.270527
N21   N     N_R   0.258585 0.011651 0.794160 0.120649
O49   O     O_R   0.225106 0.977805 0.829315 -0.327567
O50   O     O_R   0.217390 0.058503 0.724161 -0.315170
N22   N     N_R   0.741814 0.004916 0.206025 0.120720
O51   O     O_R   0.773633 0.969086 0.170627 -0.328659
O52   O     O_R   0.785254 0.051064 0.276485 -0.314182
N23   N     N_R   0.758552 0.511522 0.794144 0.120648
O53   O     O_R   0.725166 0.477722 0.829488 -0.327692
O54   O     O_R   0.717245 0.558275 0.723938 -0.314825
N24   N     N_R   0.241791 0.505863 0.206012 0.120707
O55   O     O_R   0.273807 0.470319 0.170575 -0.328473
O56   O     O_R   0.284972 0.552068 0.276503 -0.313812

loop_
_geom_bond_atom_site_label_1
_geom_bond_atom_site_label_2
_geom_bond_distance
_ccdc_geom_bond_type
C33   H10   1.079921 S    
O16   Cu4   1.935858 S    
C18   C50   1.400778 A    
C47   C63   1.421444 A    
C17   C25   1.399151 A    
C17   C49   1.400736 A    
C35   H12   1.079818 S    
O2    C2    1.291772 A    
C12   C28   1.417274 A    
N13   O33   1.301446 A    
C54   C74   1.389572 A    
C91   C95   1.431450 A    
C46   C62   1.421676 A    
C53   C73   1.389439 A    
C96   C100  1.420014 A    
C99   C111  1.411196 A    
N22   O52   1.301335 A    
O4    Cu1   1.948778 S    
N13   O34   1.301347 A    
C93   C101  1.444114 A    
C5    C16   1.472185 S    
C43   C59   1.421473 A    
N17   O41   1.301458 A    
C92   H27   1.074756 S    
C95   C99   1.419954 A    
C6    C15   1.472418 S    
C10   C34   1.396774 A    
C83   H35   1.080998 S    
C62   C69   1.431120 A    
N3    C91   1.368361 A    
O10   C2    1.299587 A    
C81   H33   1.081002 S    
C91   H28   1.074724 S    
N21   O50   1.301366 A    
O12   Cu2   1.935858 S    
N3    C87   1.353681 A    
C106  C110  1.397139 A    
C60   C67   1.431064 A    
C83   C87   1.391585 A    
N4    C88   1.353658 A    
C105  C109  1.397206 A    
C59   C64   1.426065 A    
C14   C38   1.396844 A    
C82   C98   1.410278 A    
O11   Cu1   1.935861 S    
C13   C29   1.417339 A    
C46   C54   1.411421 A    
C105  H37   1.075797 S    
C19   H23   1.084469 S    
C42   C50   1.411414 A    
C15   C39   1.397002 A    
C100  C112  1.411186 A    
N9    O26   1.301286 A    
C30   N9    1.435298 S    
C94   C98   1.419979 A    
N22   O51   1.301393 A    
C66   C74   1.394640 A    
C25   N6    1.435631 S    
C39   C47   1.399015 A    
O5    Cu3   1.948768 S    
C65   C73   1.394512 A    
C38   C46   1.398842 A    
O6    Cu4   1.948767 S    
C41   C57   1.421364 A    
C39   H16   1.079818 S    
N5    O18   1.301290 A    
C102  C105  1.409311 A    
C35   C43   1.399038 A    
C38   H13   1.079690 S    
C103  C104  1.434265 A    
C36   C44   1.398749 A    
O13   Cu4   1.935786 S    
O3    C3    1.291704 A    
N12   O31   1.301170 A    
C64   C71   1.431056 A    
O14   Cu3   1.935785 S    
C36   H11   1.079723 S    
C81   C97   1.410279 A    
C16   C32   1.417253 A    
Cu4   N3    2.010703 S    
C65   N13   1.438408 S    
C77   H5    1.084629 S    
O15   C7    1.299442 A    
C24   C32   1.399100 A    
C95   C103  1.444093 A    
O16   C8    1.299611 A    
C101  C106  1.409320 A    
C11   C27   1.417338 A    
O1    Cu1   1.948768 S    
C44   C60   1.421571 A    
C26   N5    1.435334 S    
C82   C86   1.391515 A    
C32   N11   1.435326 S    
N24   O56   1.301341 A    
C60   C63   1.426072 A    
C21   C29   1.398874 A    
C59   C68   1.430751 A    
C75   H3    1.084623 S    
O9    Cu2   1.935786 S    
C4    C9    1.472287 S    
N17   O42   1.301347 A    
C23   C55   1.400675 A    
C20   H24   1.084463 S    
C80   H8    1.084605 S    
C22   C54   1.400809 A    
C106  H38   1.075762 S    
C55   C75   1.389511 A    
N15   O37   1.301440 A    
C48   C64   1.421581 A    
C108  C112  1.397164 A    
N18   O43   1.301262 A    
C112  N24   1.436808 S    
O2    Cu2   1.948767 S    
C90   C94   1.431444 A    
C45   C53   1.411272 A    
C73   H1    1.084628 S    
N19   O45   1.301429 A    
C29   N10   1.435293 S    
C72   C80   1.394727 A    
C22   H18   1.084475 S    
C34   C42   1.398734 A    
N1    C89   1.368356 A    
Cu1   Cu2   2.675204 S    
C103  C108  1.409309 A    
C19   C27   1.398905 A    
C107  C111  1.397237 A    
O7    Cu4   1.948780 S    
C34   H9    1.079701 S    
C69   C77   1.394619 A    
C68   C76   1.394718 A    
C9    C33   1.396933 A    
Cu2   N1    2.010703 S    
N10   O28   1.301287 A    
C21   H17   1.084469 S    
N20   O48   1.301452 A    
Cu1   N2    2.010702 S    
N7    O21   1.301179 A    
C63   C72   1.430768 A    
C31   N12   1.435281 S    
C50   C78   1.389541 A    
N19   O46   1.301332 A    
C97   C109  1.411166 A    
Cu3   N4    2.010702 S    
O15   Cu3   1.935861 S    
C104  C107  1.409306 A    
C84   C88   1.391550 A    
C7    C14   1.472108 S    
O11   C3    1.299493 A    
O12   C4    1.299455 A    
N21   O49   1.301367 A    
C86   H29   1.081807 S    
O13   C5    1.299475 A    
N23   O54   1.301363 A    
C70   N18   1.438694 S    
C27   N8    1.435279 S    
C83   C99   1.410284 A    
C28   N7    1.435325 S    
C74   H2    1.084599 S    
C18   H22   1.084463 S    
C22   C30   1.399017 A    
C81   C85   1.391569 A    
C61   C70   1.430830 A    
C58   C65   1.431129 A    
O9    C1    1.299510 A    
C43   C51   1.411273 A    
C57   C66   1.430784 A    
N16   O39   1.301249 A    
C87   H32   1.081822 S    
N16   O40   1.301430 A    
C76   H4    1.084604 S    
C15   C31   1.417369 A    
C1    C12   1.472230 S    
C17   H21   1.084459 S    
C47   C55   1.411263 A    
N24   O55   1.301373 A    
C33   C41   1.399007 A    
C23   H19   1.084470 S    
C66   N14   1.438683 S    
C49   C77   1.389488 A    
Cu3   Cu4   2.675204 S    
N6    O19   1.301134 A    
O10   Cu1   1.935785 S    
C69   N17   1.438402 S    
C52   C80   1.389620 A    
N1    C85   1.353660 A    
C20   C28   1.399100 A    
C89   C93   1.431430 A    
C67   C75   1.394581 A    
N2    C90   1.368358 A    
C110  N22   1.436788 S    
C13   C37   1.396923 A    
C20   C52   1.400779 A    
C84   C100  1.410278 A    
C42   C58   1.421606 A    
O3    Cu2   1.948780 S    
C92   C96   1.431465 A    
N14   O36   1.301468 A    
C16   C40   1.396846 A    
C108  H40   1.075748 S    
C14   C30   1.417188 A    
N12   O32   1.301281 A    
C37   H14   1.079798 S    
C98   C110  1.411130 A    
C88   H31   1.081822 S    
C109  N21   1.436890 S    
C48   C56   1.411416 A    
C79   H7    1.084625 S    
O1    C1    1.291772 A    
C8    C13   1.472274 S    
C78   H6    1.084612 S    
C10   C26   1.417240 A    
C40   C48   1.398744 A    
C11   C35   1.397021 A    
N10   O27   1.301161 A    
C94   C102  1.444097 A    
N7    O22   1.301282 A    
N4    C92   1.368400 A    
C96   C104  1.444103 A    
C71   C79   1.394571 A    
C101  C102  1.434265 A    
C56   C76   1.389605 A    
N6    O20   1.301369 A    
C58   C61   1.426157 A    
O14   C6    1.299623 A    
C89   H26   1.074721 S    
C51   C79   1.389506 A    
C57   C62   1.426107 A    
C23   C31   1.398915 A    
O7    C7    1.291764 A    
C37   C45   1.398996 A    
C72   N20   1.438747 S    
C93   C97   1.419949 A    
O8    C8    1.291679 A    
C12   C36   1.396852 A    
C67   N15   1.438459 S    
C90   H25   1.074768 S    
C41   C49   1.411166 A    
C44   C52   1.411405 A    
C71   N19   1.438438 S    
N9    O25   1.301159 A    
C18   C26   1.399053 A    
C21   C53   1.400669 A    
N11   O29   1.301178 A    
O4    C4    1.291836 A    
C107  H39   1.075801 S    
O5    C5    1.291783 A    
N14   O35   1.301226 A    
N2    C86   1.353652 A    
N5    O17   1.301170 A    
C9    C25   1.417420 A    
N23   O53   1.301388 A    
N15   O38   1.301330 A    
O8    Cu3   1.948778 S    
C24   H20   1.084462 S    
C45   C61   1.421478 A    
C82   H34   1.080951 S    
C40   H15   1.079727 S    
C68   N16   1.438700 S    
C2    C11   1.472398 S    
C84   H36   1.080970 S    
C24   C56   1.400785 A    
N8    O23   1.301173 A    
C85   H30   1.081818 S    
C3    C10   1.472079 S    
N8    O24   1.301280 A    
N20   O47   1.301255 A    
C70   C78   1.394657 A    
N18   O44   1.301460 A    
C111  N23   1.436964 S    
N11   O30   1.301283 A    
C19   C51   1.400683 A    
O6    C6    1.291745 A    
