data_mof_unit_11869.cif
_audit_creation_date              2012-12-11T16:57:18-0500
_audit_creation_method            fapswitch 2.2
_symmetry_space_group_name_H-M    P1
_symmetry_Int_Tables_number       1
_space_group_crystal_system       triclinic
_cell_length_a                    14.500726
_cell_length_b                    16.277907
_cell_length_c                    6.992719
_cell_angle_alpha                 90.294482
_cell_angle_beta                  99.094471
_cell_angle_gamma                 89.952036
_cell_volume                      1629.80090916

loop_
_atom_site_label
_atom_site_type_symbol
_atom_type_description
_atom_site_fract_x
_atom_site_fract_y
_atom_site_fract_z
_atom_type_partial_charge
O1    O     O_R   0.584990 0.413650 0.534420 -0.540850
O2    O     O_R   0.584990 0.586350 0.534420 -0.539844
O3    O     O_R   0.596190 0.585230 0.208380 -0.539529
O4    O     O_R   0.596190 0.414770 0.208380 -0.540005
O5    O     O_R   0.415010 0.586420 0.976930 -0.536592
O6    O     O_R   0.415010 0.413580 0.976930 -0.534042
C1    C     C_R   0.618547 0.614106 0.385267 0.706435
C2    C     C_R   0.619029 0.386236 0.384393 0.705761
O7    O     O_3   0.440560 0.500000 0.319140 -0.369934
V1    V     V_3+5 0.511030 0.500000 0.068070 1.368930
O8    O     O_R   0.403810 0.414840 0.643540 -0.546312
O9    O     O_R   0.403810 0.585160 0.643540 -0.544383
C3    C     C_R   0.382752 0.384947 0.805909 0.717488
C4    C     C_R   0.380152 0.613076 0.806152 0.718984
V2    V     V_3+5 0.488970 0.500000 0.560620 1.366447
O10   O     O_3   0.559440 0.500000 0.859420 -0.381555
H1    H     H_    0.165495 0.794586 0.807140 0.144070
H2    H     H_    0.195621 0.181795 0.810034 0.146969
C5    C     C_2   0.313364 0.683968 0.799745 -0.039245
C6    C     C_2   0.310009 0.318954 0.797400 -0.040337
C7    C     C_2   0.262431 0.699377 0.947192 0.163431
C8    C     C_2   0.307395 0.265603 0.950011 0.170124
H3    H     H_    0.226461 0.796427 0.247542 0.145692
H4    H     H_    0.231866 0.199007 0.252542 0.135952
C9    C     C_2   0.189820 0.815440 0.107995 -0.369953
C10   C     C_2   0.200650 0.176194 0.111227 -0.362584
C11   C     C_2   0.201917 0.773768 0.945723 -0.123994
C12   C     C_2   0.229880 0.204633 0.948830 -0.123319
C13   C     C_R   0.750994 0.690460 0.593523 0.034708
C14   C     C_R   0.753637 0.312003 0.587104 0.027710
C15   C     C_R   0.687781 0.682479 0.419679 -0.135796
C16   C     C_R   0.689169 0.318448 0.415824 -0.128412
C17   C     C_R   0.687426 0.745760 0.283289 -0.171102
C18   C     C_R   0.686895 0.253599 0.281672 -0.183907
H5    H     H_    0.635551 0.744812 0.154684 0.131158
H6    H     H_    0.633834 0.255039 0.155075 0.117635
C19   C     C_R   0.749427 0.813132 0.318529 -0.190955
C20   C     C_R   0.748305 0.185299 0.316371 -0.224478
H7    H     H_    0.739869 0.865379 0.226573 0.130533
H8    H     H_    0.743085 0.134991 0.214784 0.143760
C21   C     C_R   0.818636 0.816737 0.482385 -0.151247
C22   C     C_R   0.814728 0.180324 0.485258 -0.116774
C23   C     C_R   0.811162 0.758556 0.625108 0.085553
C24   C     C_R   0.810190 0.241608 0.624244 0.094719
C25   C     C_3   0.787801 0.775756 0.823101 0.238497
C26   C     C_3   0.782458 0.231031 0.821027 0.247347
C27   C     C_3   0.728405 0.695969 0.795324 -0.038317
C28   C     C_3   0.730730 0.313899 0.787465 -0.096962
H9    H     H_    0.652564 0.703118 0.795479 0.155468
H10   H     H_    0.654135 0.309921 0.789033 0.139861
O11   O     O_R   0.921430 0.915960 0.371040 -0.539506
O12   O     O_R   0.921430 0.084040 0.371040 -0.542290
O13   O     O_R   0.910450 0.087500 0.697310 -0.536535
O14   O     O_R   0.910450 0.912500 0.697310 -0.548254
O15   O     O_R   0.091710 0.087460 0.928430 -0.538683
O16   O     O_R   0.091710 0.912540 0.928430 -0.537963
C29   C     C_R   0.885765 0.112612 0.519146 0.693977
C30   C     C_R   0.887163 0.886364 0.518660 0.676351
O17   O     O_3   0.065970 1.000000 0.586140 -0.363962
V3    V     V_3+5 0.995640 1.000000 0.837400 1.359122
O18   O     O_R   0.103020 0.915700 0.261710 -0.538033
O19   O     O_R   0.103020 0.084300 0.261710 -0.538195
C31   C     C_R   0.124531 0.885810 0.099800 0.764858
C32   C     C_R   0.126814 0.112493 0.100701 0.761801
V4    V     V_3+5 0.017940 1.000000 0.344880 1.365262
O20   O     O_3   0.947330 0.000000 0.046180 -0.392897
C33   C     C_3   0.763454 0.620348 0.915178 -0.761655
H11   H     H_    0.827087 0.592911 0.872419 0.203944
H12   H     H_    0.774810 0.633788 0.072285 0.217412
H13   H     H_    0.708200 0.573589 0.890653 0.230454
C34   C     C_3   0.770483 0.390533 0.898543 -0.733563
H14   H     H_    0.766819 0.384778 0.055057 0.213598
H15   H     H_    0.842352 0.405441 0.876840 0.204130
H16   H     H_    0.726413 0.442867 0.842089 0.222892
C35   C     C_3   0.258008 0.638349 0.108698 -0.731201
H17   H     H_    0.323566 0.640328 0.214319 0.219049
H18   H     H_    0.199342 0.652077 0.188438 0.189347
H19   H     H_    0.245691 0.575335 0.048356 0.194194
C36   C     C_3   0.387061 0.261242 0.119185 -0.746885
H20   H     H_    0.387028 0.202142 0.197596 0.194456
H21   H     H_    0.455474 0.264298 0.067172 0.180263
H22   H     H_    0.381019 0.311785 0.223701 0.217209
C37   C     C_3   0.308172 0.741574 0.627471 -0.398604
C38   C     C_3   0.359103 0.822508 0.681796 -0.745493
H23   H     H_    0.323525 0.859618 0.781695 0.235854
H24   H     H_    0.431704 0.809998 0.751950 0.224822
H25   H     H_    0.361213 0.859119 0.548982 0.214740
H26   H     H_    0.341047 0.713362 0.510432 0.191696
H27   H     H_    0.234385 0.752839 0.563318 0.170121
C39   C     C_3   0.234974 0.317686 0.618284 -0.392676
C40   C     C_3   0.145107 0.358603 0.658085 -0.758355
H28   H     H_    0.117011 0.326952 0.776395 0.236107
H29   H     H_    0.158622 0.423990 0.699517 0.219757
H30   H     H_    0.091729 0.356021 0.525489 0.217181
H31   H     H_    0.258536 0.350988 0.496505 0.196974
H32   H     H_    0.220977 0.254188 0.563865 0.168751
C41   C     C_3   0.729684 0.858885 0.821148 -0.329405
C42   C     C_3   0.622936 0.853703 0.780810 -0.842474
H33   H     H_    0.599141 0.821869 0.640883 0.238228
H34   H     H_    0.595360 0.822741 0.899942 0.217633
H35   H     H_    0.592571 0.916383 0.769066 0.224620
H36   H     H_    0.751720 0.895813 0.951691 0.161072
H37   H     H_    0.746210 0.901642 0.710127 0.185860
C43   C     C_3   0.704791 0.162943 0.818854 -0.408306
C44   C     C_3   0.733068 0.072792 0.834831 -0.720419
H38   H     H_    0.792218 0.061447 0.950855 0.237640
H39   H     H_    0.673266 0.037170 0.871856 0.194850
H40   H     H_    0.747100 0.048837 0.693917 0.217729
H41   H     H_    0.662546 0.175444 0.932482 0.162805
H42   H     H_    0.653494 0.168207 0.682940 0.182724
C45   C     C_3   0.877095 0.774760 0.982560 -0.315824
C46   C     C_3   0.964178 0.732614 0.927916 -0.760910
H43   H     H_    0.949469 0.669898 0.870305 0.221337
H44   H     H_    0.992896 0.768991 0.817297 0.224190
H45   H     H_    0.018221 0.727936 0.058721 0.211219
H46   H     H_    0.897924 0.838673 0.024440 0.201972
H47   H     H_    0.861643 0.745451 0.115683 0.190054
C47   C     C_3   0.867328 0.229005 0.990388 -0.265267
C48   C     C_3   0.961162 0.259642 0.942160 -0.783553
H48   H     H_    0.987416 0.218252 0.836869 0.236121
H49   H     H_    0.956433 0.322000 0.880360 0.215527
H50   H     H_    0.013416 0.261179 0.076524 0.206891
H51   H     H_    0.851609 0.266017 0.114144 0.187148
H52   H     H_    0.879891 0.165766 0.044039 0.202160

loop_
_geom_bond_atom_site_label_1
_geom_bond_atom_site_label_2
_ccdc_geom_bond_type
C43   H42   S    
O1    C2    A    
C45   C46   S    
C38   H25   S    
O4    C2    A    
C36   H22   S    
C46   H44   S    
C41   C42   S    
C39   H31   S    
C27   H9    S    
O14   V3    S    
C44   H39   S    
C13   C27   S    
C14   C28   S    
C5    C7    D    
C38   H24   S    
C8    C36   S    
C20   C22   A    
O3    C1    A    
C9    C31   S    
C43   H41   S    
V2    O10   S    
C26   C47   S    
O11   V4    S    
C25   C27   S    
O18   C31   A    
C10   C32   S    
C47   C48   S    
C46   H43   S    
O19   C32   A    
O8    V2    S    
O2    C1    A    
C15   C17   A    
C45   H46   S    
O1    V2    S    
O7    V1    S    
C41   H36   S    
C3    C6    S    
C28   H10   S    
C37   H26   S    
C7    C11   S    
V3    O20   S    
O17   V3    S    
C20   H8    S    
C8    C12   S    
O15   V3    S    
C13   C23   A    
C21   C23   A    
C14   C24   A    
C22   C24   A    
C5    C37   S    
C22   C29   S    
C27   C33   S    
C43   C44   S    
O13   V3    S    
C24   C26   S    
C48   H49   S    
C37   H27   S    
C44   H40   S    
C26   C28   S    
C1    C15   S    
C33   H11   S    
H1    C11   S    
H2    C12   S    
C38   H23   S    
C40   H28   S    
C34   H15   S    
O13   C29   A    
C6    C39   S    
C17   C19   A    
O16   V3    S    
C33   H12   S    
C16   C18   A    
C35   H17   S    
C40   H29   S    
C23   C25   S    
C37   C38   S    
O9    V2    S    
O15   C32   A    
O16   C31   A    
O11   C30   A    
C47   H52   S    
O2    V2    S    
C35   H18   S    
O5    C4    A    
C41   H37   S    
O9    C4    A    
V4    O20   S    
C42   H34   S    
C28   C34   S    
O4    V1    S    
C21   C30   S    
C36   H21   S    
O14   C30   A    
C48   H50   S    
O19   V4    S    
C18   C20   A    
C4    C5    S    
H4    C10   S    
C6    C8    D    
O6    V1    S    
C34   H16   S    
C48   H48   S    
C25   C45   S    
C39   H32   S    
C9    C11   D    
C42   H35   S    
C44   H38   S    
C7    C35   S    
C10   C12   D    
C45   H47   S    
C33   H13   S    
O7    V2    S    
O5    V1    S    
C19   H7    S    
O3    V1    S    
V1    O10   S    
O17   V4    S    
O6    C3    A    
C14   C16   A    
O8    C3    A    
C39   C40   S    
C2    C16   S    
C26   C43   S    
C17   H5    S    
C18   H6    S    
C47   H51   S    
H3    C9    S    
C19   C21   A    
C35   H19   S    
O12   C29   A    
C36   H20   S    
O18   V4    S    
C34   H14   S    
C13   C15   A    
C42   H33   S    
C25   C41   S    
C46   H45   S    
O12   V4    S    
C40   H30   S    
