data_mof_unit_65021.cif
_audit_creation_date              2012-12-10T18:14:33-0500
_audit_creation_method            fapswitch 2.2
_symmetry_space_group_name_H-M    P1
_symmetry_Int_Tables_number       1
_space_group_crystal_system       triclinic
_cell_length_a                    42.227764
_cell_length_b                    29.203876
_cell_length_c                    30.595368
_cell_angle_alpha                 89.998925
_cell_angle_beta                  136.239324
_cell_angle_gamma                 90.000811
_cell_volume                      26096.3136706

loop_
_atom_site_label
_atom_site_type_symbol
_atom_type_description
_atom_site_fract_x
_atom_site_fract_y
_atom_site_fract_z
_atom_type_partial_charge
C1    C     C_R   0.586689 0.500000 0.587111 0.902453
C2    C     C_1   0.992294 0.000064 0.327650 -0.068092
C3    C     C_3   0.518519 0.542710 0.241156 -0.192902
C4    C     C_3   0.017776 0.956721 0.240740 -0.187722
C5    C     C_3   0.019153 0.042437 0.241812 -0.192871
C6    C     C_1   0.498972 0.499925 0.119534 -0.179665
C7    C     C_1   0.998972 0.999971 0.119534 -0.179663
C8    C     C_3   0.489706 0.500024 0.278871 0.214323
C9    C     C_3   0.989710 0.000138 0.278874 0.214321
C10   C     C_3   0.492105 0.499843 0.196934 0.158284
C11   C     C_3   0.992106 0.999980 0.196934 0.158280
C12   C     C_1   0.506185 0.412699 0.208826 0.197426
C13   C     C_1   0.496320 0.500004 0.369587 -0.186805
C14   C     C_1   0.501594 0.587233 0.207894 0.201554
C15   C     C_1   0.004890 0.912637 0.207485 0.197348
C16   C     C_1   0.002891 0.087217 0.209238 0.201621
C17   C     C_1   0.418172 0.547065 0.206289 0.168340
C18   C     C_1   0.410385 0.466971 0.203305 0.156164
C19   C     C_1   0.918880 0.048235 0.207025 0.168410
C20   C     C_1   0.909908 0.968263 0.202809 0.156117
C21   C     C_1   0.414044 0.537658 0.112930 0.182350
C22   C     C_1   0.416290 0.458212 0.120151 0.182646
C23   C     C_1   0.914615 0.038954 0.113523 0.182278
C24   C     C_1   0.996322 0.000017 0.369588 -0.186806
C25   C     C_1   0.915681 0.959480 0.119518 0.182726
C26   C     C_1   0.637271 0.500000 0.637649 -0.218762
C27   C     C_1   0.137271 0.000000 0.637649 -0.218760
C28   C     C_1   0.679409 0.500000 0.679763 0.006319
C29   C     C_1   0.179409 0.000000 0.679763 0.006320
C30   C     C_1   0.729144 0.500000 0.729474 0.009440
C31   C     C_1   0.229144 0.000000 0.729474 0.009442
C32   C     C_1   0.771280 0.500000 0.771588 0.009495
C33   C     C_R   0.086689 0.000000 0.587111 0.902455
C34   C     C_1   0.271280 0.000000 0.771588 0.009496
C35   C     C_1   0.821015 0.500000 0.821282 0.007609
C36   C     C_1   0.321015 0.000000 0.821282 0.007609
C37   C     C_R   0.501114 0.500001 0.418775 0.946906
C38   C     C_R   0.001114 0.000002 0.418775 0.946913
C39   C     C_1   0.863153 0.500000 0.863360 -0.210504
C40   C     C_1   0.363153 0.000000 0.863360 -0.210504
C41   C     C_1   0.500024 0.499999 0.636085 -0.218215
C42   C     C_1   0.000024 0.999999 0.636085 -0.218215
C43   C     C_1   0.500073 0.499999 0.677306 0.018837
C44   C     C_3   0.439885 0.499924 0.160057 -0.078952
C45   C     C_1   0.000073 0.999999 0.677306 0.018837
C46   C     C_1   0.500131 0.499999 0.726367 0.006422
C47   C     C_1   0.000131 0.999999 0.726367 0.006422
C48   C     C_1   0.500175 0.499999 0.767584 0.006393
C49   C     C_1   0.000175 0.999999 0.767584 0.006393
C50   C     C_1   0.500211 0.500000 0.816622 0.018480
C51   C     C_1   0.000211 1.000000 0.816622 0.018480
C52   C     C_1   0.500204 0.500000 0.857788 -0.216943
C53   C     C_1   0.000204 1.000000 0.857788 -0.216943
C54   C     C_1   0.362677 0.500000 0.362904 -0.213797
C55   C     C_3   0.939893 0.000825 0.160065 -0.078953
C56   C     C_1   0.862677 1.000000 0.362904 -0.213793
C57   C     C_1   0.320542 0.499999 0.320652 0.012308
C58   C     C_1   0.820542 0.999999 0.320652 0.012315
C59   C     C_1   0.270810 0.499999 0.270802 0.013660
C60   C     C_1   0.770810 0.999999 0.270802 0.013664
C61   C     C_R   0.413255 0.500000 0.413631 0.913899
C62   C     C_R   0.913255 1.000000 0.413631 0.913900
C63   C     C_1   0.228675 0.499999 0.228589 0.012218
C64   C     C_1   0.728675 0.999999 0.228588 0.012219
C65   C     C_1   0.178943 0.500000 0.178800 0.009339
C66   C     C_3   0.438803 0.503457 0.211199 -0.060178
C67   C     C_1   0.678943 1.000000 0.178800 0.009340
C68   C     C_1   0.136806 0.500000 0.136666 -0.209480
C69   C     C_1   0.636806 1.000000 0.136666 -0.209480
C70   C     C_R   0.500029 0.586640 0.994583 0.908187
C71   C     C_R   0.500029 0.413360 0.994584 0.908660
C72   C     C_R   0.000029 0.086640 0.994583 0.908289
C73   C     C_R   0.000029 0.913360 0.994584 0.908565
C74   C     C_R   0.499881 0.500012 0.075825 0.956309
C75   C     C_R   0.999881 0.999992 0.075825 0.956321
C76   C     C_R   0.500096 0.500000 0.907566 0.889559
C77   C     C_3   0.938863 0.004337 0.211261 -0.060176
C78   C     C_R   0.000096 1.000000 0.907566 0.889559
C79   C     C_R   0.000014 0.413725 0.999134 0.896759
C80   C     C_R   0.000014 0.586275 0.999133 0.896739
C81   C     C_R   0.500014 0.913725 0.999133 0.896752
C82   C     C_R   0.500014 0.086275 0.999133 0.896746
C83   C     C_R   0.913736 0.500000 0.913813 0.896837
C84   C     C_R   0.413736 0.000000 0.913813 0.896838
C85   C     C_R   0.086226 0.500000 0.086190 0.896960
C86   C     C_R   0.586226 1.000000 0.086190 0.896960
C87   C     C_1   0.500036 0.637227 0.995428 -0.213530
C88   C     C_1   0.496199 0.499858 0.154786 -0.086144
C89   C     C_1   0.500036 0.362773 0.995431 -0.213052
C90   C     C_1   0.000036 0.137227 0.995429 -0.213475
C91   C     C_1   0.000036 0.862773 0.995431 -0.213098
C92   C     C_R   0.499972 0.500000 0.586148 0.890418
C93   C     C_R   0.999972 1.000000 0.586148 0.890417
C94   C     C_1   0.500036 0.679367 0.996175 0.011504
C95   C     C_1   0.500037 0.320633 0.996178 0.011918
C96   C     C_1   0.000036 0.179367 0.996176 0.011576
C97   C     C_1   0.000036 0.820633 0.996178 0.011854
C98   C     C_1   0.500034 0.729105 0.997057 0.013088
C99   C     C_1   0.996199 0.999959 0.154786 -0.086144
C100  C     C_1   0.500035 0.270895 0.997059 0.013306
C101  C     C_1   0.000034 0.229105 0.997057 0.013146
C102  C     C_1   0.000034 0.770895 0.997059 0.013254
C103  C     C_1   0.000031 0.271244 0.997763 0.011878
C104  C     C_1   0.000032 0.728756 0.997764 0.011887
C105  C     C_1   0.500031 0.771244 0.997763 0.011835
C106  C     C_1   0.500032 0.228756 0.997764 0.011926
C107  C     C_1   0.000027 0.320986 0.998496 0.009108
C108  C     C_1   0.000027 0.679014 0.998495 0.009075
C109  C     C_1   0.500027 0.820986 0.998496 0.009075
C110  C     C_1   0.492291 0.500011 0.327647 -0.068094
C111  C     C_1   0.500027 0.179014 0.998495 0.009104
C112  C     C_1   0.000022 0.363130 0.998948 -0.209687
C113  C     C_1   0.000022 0.636870 0.998947 -0.209729
C114  C     C_1   0.500022 0.863130 0.998948 -0.209710
C115  C     C_1   0.500022 0.136870 0.998947 -0.209708
C116  C     C_3   0.518405 0.541442 0.291245 -0.453693
C117  C     C_3   0.512370 0.455064 0.285187 -0.455842
C118  C     C_3   0.019019 0.041137 0.291881 -0.453778
C119  C     C_3   0.011704 0.954859 0.284498 -0.455776
C120  C     C_3   0.518415 0.456983 0.241401 -0.187700
H1    H     H_    0.554851 0.540771 0.266367 0.139607
H2    H     H_    0.505276 0.574035 0.292382 0.192785
H3    H     H_    0.990208 0.925155 0.273119 0.194770
H4    H     H_    0.006375 0.073911 0.293519 0.192779
H5    H     H_    0.555622 0.461391 0.271593 0.141961
H6    H     H_    0.055452 0.039965 0.266989 0.139628
H7    H     H_    0.055045 0.960580 0.270995 0.141947
H8    H     H_    0.554383 0.538080 0.338864 0.174876
H9    H     H_    0.546656 0.450393 0.334761 0.175703
H10   H     H_    0.054943 0.037234 0.339444 0.174864
H11   H     H_    0.045917 0.949670 0.333996 0.175732
H12   H     H_    0.491316 0.425052 0.274267 0.194773
N1    N     N_1   0.496861 0.377998 0.183574 -0.182994
N2    N     N_1   0.397611 0.425920 0.088717 -0.171187
N3    N     N_1   0.894729 0.068454 0.077001 -0.170342
N4    N     N_1   0.896525 0.927478 0.087588 -0.171155
N5    N     N_1   0.488612 0.622193 0.182149 -0.180800
N6    N     N_1   0.995053 0.878088 0.181700 -0.183001
N7    N     N_1   0.990429 0.122374 0.184032 -0.180802
N8    N     N_1   0.402163 0.580987 0.202562 -0.182016
N9    N     N_1   0.388326 0.438600 0.197278 -0.181846
N10   N     N_1   0.903376 0.082383 0.203822 -0.181981
N11   N     N_1   0.887431 0.940211 0.196347 -0.181901
N12   N     N_1   0.393722 0.566849 0.075956 -0.170300
O1    O     O_R   0.563110 0.535630 0.563620 -0.597727
O2    O     O_R   0.500010 0.063160 0.964010 -0.592796
O3    O     O_R   0.000000 0.436830 0.034310 -0.592940
O4    O     O_R   0.000000 0.563170 0.034310 -0.592972
O5    O     O_R   0.500000 0.936830 0.034310 -0.592956
O6    O     O_R   0.500000 0.063170 0.034310 -0.592957
O7    O     O_R   0.936840 0.500000 0.901700 -0.593305
O8    O     O_R   0.436840 0.000000 0.901700 -0.593305
O9    O     O_R   0.936840 0.500000 0.972000 -0.592938
O10   O     O_R   0.436840 0.000000 0.972000 -0.592939
O11   O     O_R   0.063130 0.500000 0.028000 -0.591711
O12   O     O_R   0.563110 0.464370 0.563620 -0.597827
O13   O     O_R   0.563130 0.000000 0.028000 -0.591710
O14   O     O_R   0.063120 0.500000 0.098300 -0.593781
O15   O     O_R   0.563120 0.000000 0.098300 -0.593782
O16   O     O_R   0.499970 0.535640 0.438200 -0.610698
O17   O     O_R   0.499970 0.464360 0.438200 -0.610777
O18   O     O_R   0.999970 0.035640 0.438200 -0.610612
O19   O     O_R   0.999970 0.964360 0.438200 -0.610868
O20   O     O_R   0.436830 0.535630 0.437320 -0.594577
O21   O     O_R   0.436830 0.464370 0.437320 -0.594451
O22   O     O_R   0.936830 0.035630 0.437320 -0.594552
O23   O     O_R   0.063110 0.035630 0.563620 -0.597708
O24   O     O_R   0.936830 0.964370 0.437320 -0.594483
O25   O     O_R   0.499970 0.535630 0.562740 -0.591810
O26   O     O_R   0.499970 0.464370 0.562740 -0.591838
O27   O     O_R   0.999970 0.035630 0.562740 -0.591802
O28   O     O_R   0.999970 0.964370 0.562740 -0.591845
O29   O     O_R   0.535670 0.563060 0.029670 -0.597631
O30   O     O_R   0.535670 0.436940 0.029670 -0.597330
O31   O     O_R   0.035670 0.063060 0.029670 -0.597585
O32   O     O_R   0.035670 0.936940 0.029670 -0.597381
O33   O     O_R   0.464380 0.563080 0.958370 -0.594358
O34   O     O_R   0.063110 0.964370 0.563620 -0.597843
O35   O     O_R   0.464380 0.436920 0.958370 -0.594618
O36   O     O_R   0.964380 0.063080 0.958370 -0.594359
O37   O     O_R   0.964380 0.936920 0.958370 -0.594612
O38   O     O_R   0.535670 0.500000 0.091080 -0.616119
O39   O     O_R   0.035670 0.000000 0.091080 -0.616128
O40   O     O_R   0.464370 0.500000 0.019780 -0.604271
O41   O     O_R   0.964370 0.000000 0.019780 -0.604274
O42   O     O_R   0.535670 0.500000 0.966540 -0.593182
O43   O     O_R   0.035670 0.000000 0.966540 -0.593182
O44   O     O_R   0.464380 0.500000 0.895240 -0.593461
O45   O     O_R   0.964380 0.000000 0.895240 -0.593462
O46   O     O_R   0.000010 0.436840 0.964010 -0.592791
O47   O     O_R   0.000010 0.563160 0.964010 -0.592794
O48   O     O_R   0.500010 0.936840 0.964010 -0.592789
Zn1   Zn    Zn3+2 0.499970 0.547590 0.500630 0.978185
Zn2   Zn    Zn3+2 0.499990 0.000000 0.953050 0.977463
Zn3   Zn    Zn3+2 0.999980 0.500000 0.046950 0.975553
Zn4   Zn    Zn3+2 0.499980 0.000000 0.046950 0.975549
Zn5   Zn    Zn3+2 0.499970 0.452410 0.500630 0.977889
Zn6   Zn    Zn3+2 0.999970 0.047590 0.500630 0.978300
Zn7   Zn    Zn3+2 0.999970 0.952410 0.500630 0.977771
Zn8   Zn    Zn3+2 0.547630 0.500000 0.040770 0.973948
Zn9   Zn    Zn3+2 0.047630 0.000000 0.040770 0.973941
Zn10  Zn    Zn3+2 0.452420 0.500000 0.945550 0.986921
Zn11  Zn    Zn3+2 0.952420 0.000000 0.945550 0.986917
Zn12  Zn    Zn3+2 0.999990 0.500000 0.953050 0.977462

loop_
_geom_bond_atom_site_label_1
_geom_bond_atom_site_label_2
_ccdc_geom_bond_type
C62   O24   A    
O34   Zn7   S    
C63   C65   S    
C93   O28   A    
C8    C66   S    
C9    C118  S    
O24   Zn7   S    
C89   C95   T    
C27   C29   T    
C61   O20   A    
C107  C112  T    
C40   C84   S    
C44   C66   S    
O12   Zn5   S    
O7    Zn12  S    
O36   Zn11  S    
C75   O39   A    
C76   O42   A    
C47   C49   T    
O37   Zn11  S    
O45   Zn11  S    
O30   Zn8   S    
C10   C88   S    
C17   C66   S    
C98   C105  T    
C7    C99   T    
C79   C112  S    
C22   N2    T    
C37   O16   A    
C61   O21   A    
C82   C115  S    
C5    C11   S    
O27   Zn6   S    
C8    C110  S    
C3    C116  S    
O5    Zn4   S    
C55   C77   S    
C57   C59   S    
C74   O40   A    
C94   C98   S    
C58   C60   S    
C42   C93   S    
C87   C94   T    
C6    C88   T    
O28   Zn7   S    
C11   C99   S    
C85   O11   A    
C72   O31   A    
C71   O35   A    
C19   C77   S    
C117  H12   S    
C5    C16   S    
C25   N4    T    
C82   O2    A    
C85   O14   A    
C12   C120  S    
C1    O1    A    
C22   C44   S    
C92   O26   A    
C49   C51   S    
C79   O46   A    
O9    Zn3   S    
C81   C114  S    
C24   C38   S    
O35   Zn10  S    
C4    C119  S    
O3    Zn3   S    
C7    C75   S    
O2    Zn2   S    
C117  H9    S    
C86   O15   A    
O1    Zn1   S    
C97   C102  S    
C76   O44   A    
C15   N6    T    
O10   Zn4   S    
C48   C50   S    
O19   Zn7   S    
C23   C55   S    
C101  C103  T    
C96   C101  S    
O29   Zn8   S    
C68   C85   S    
C41   C43   T    
C20   N11   T    
O42   Zn8   S    
C75   O41   A    
C78   O45   A    
C84   O10   A    
C70   C87   S    
C70   O29   A    
C8    C117  S    
C6    C74   S    
C83   O7    A    
C106  C111  S    
C45   C47   S    
C111  C115  T    
O15   Zn4   S    
C46   C48   T    
O40   Zn10  S    
C10   C44   S    
O13   Zn2   S    
O39   Zn9   S    
C64   C67   S    
C73   O37   A    
C36   C40   T    
O38   Zn8   S    
C73   C91   S    
C117  C120  S    
C95   C100  S    
O25   Zn1   S    
O20   Zn1   S    
C119  H11   S    
C27   C33   S    
C67   C69   T    
C42   C45   T    
O48   Zn2   S    
C108  C113  T    
C5    H6    S    
C1    O12   A    
C35   C39   T    
O22   Zn6   S    
C81   O48   A    
C13   C110  T    
C118  H10   S    
O21   Zn5   S    
C21   C44   S    
C72   C90   S    
O4    Zn3   S    
C50   C52   T    
C71   C89   S    
C14   N5    T    
C80   O4    A    
C92   O25   A    
C65   C68   T    
C31   C34   T    
C23   N3    T    
C118  H4    S    
C91   C97   T    
C4    C11   S    
C102  C104  T    
O6    Zn4   S    
C82   O6    A    
C3    C14   S    
C116  H2    S    
C109  C114  T    
C83   O9    A    
C20   C77   S    
C38   O19   A    
C62   O22   A    
C19   N10   T    
C12   N1    T    
C2    C24   T    
C1    C26   S    
C9    C119  S    
C80   O47   A    
C56   C62   S    
C16   N7    T    
O47   Zn12  S    
C72   O36   A    
O11   Zn12  S    
C84   O8    A    
C104  C108  S    
C11   C55   S    
C37   O17   A    
O31   Zn9   S    
C105  C109  S    
C93   O27   A    
C4    H7    S    
C33   O34   A    
C120  H5    S    
C59   C63   T    
O32   Zn9   S    
C18   N9    T    
C32   C35   S    
C25   C55   S    
C21   N12   T    
C52   C76   S    
C79   O3    A    
C70   O33   A    
C90   C96   T    
C74   O38   A    
C54   C61   S    
C119  H3    S    
C100  C106  T    
C18   C66   S    
O18   Zn6   S    
C26   C28   T    
O14   Zn3   S    
C71   O30   A    
O17   Zn5   S    
C5    C118  S    
C60   C64   T    
O41   Zn11  S    
C73   O32   A    
C28   C30   S    
C53   C78   S    
C9    C77   S    
C39   C83   S    
C29   C31   S    
C3    C10   S    
C30   C32   T    
O46   Zn12  S    
O43   Zn9   S    
C86   O13   A    
C13   C37   S    
C4    C15   S    
C81   O5    A    
O44   Zn10  S    
O23   Zn6   S    
C56   C58   T    
C17   N8    T    
C34   C36   S    
O8    Zn2   S    
C43   C46   S    
C10   C120  S    
C8    C116  S    
C38   O18   A    
C41   C92   S    
C80   C113  S    
C116  H8    S    
O33   Zn10  S    
C33   O23   A    
C103  C107  S    
C78   O43   A    
C51   C53   T    
C2    C9    S    
O26   Zn5   S    
C69   C86   S    
C3    H1    S    
O16   Zn1   S    
C54   C57   T    
