data_mof_unit_24319.cif
_audit_creation_date              2012-10-26T21:13:36-0400
_audit_creation_method            fapswitch 2.2
_symmetry_space_group_name_H-M    P1
_symmetry_Int_Tables_number       1
_space_group_crystal_system       triclinic
_cell_length_a                    9.052605
_cell_length_b                    10.900417
_cell_length_c                    9.626617
_cell_angle_alpha                 90.949689
_cell_angle_beta                  89.758474
_cell_angle_gamma                 91.685304
_cell_volume                      949.379377407

loop_
_atom_site_label
_atom_site_type_symbol
_atom_type_description
_atom_site_fract_x
_atom_site_fract_y
_atom_site_fract_z
_atom_type_partial_charge
C1    C     C_R   0.496638 0.263270 0.498885 0.570469
C2    C     C_R   0.622759 0.538380 0.926832 0.117686
C3    C     C_3   0.700415 0.660851 0.923174 -0.019119
C4    C     C_R   0.220967 0.499844 0.500172 0.571611
C5    C     C_3   0.698012 0.663794 0.082051 0.157921
C6    C     C_R   0.493270 0.737229 0.500385 0.570396
C7    C     C_R   0.779014 0.500077 0.499872 0.567199
C8    C     C_1   0.065648 0.499885 0.500316 0.027257
C9    C     C_1   0.934336 0.499946 0.499873 0.024318
C10   C     C_R   0.514985 0.066100 0.614602 0.001587
C11   C     C_R   0.488185 0.131198 0.496335 -0.020813
C12   C     C_R   0.440650 0.934460 0.376781 0.220428
C13   C     C_R   0.447848 0.063725 0.375843 -0.079696
C14   C     C_R   0.481040 0.870452 0.498708 0.021965
C15   C     C_R   0.511704 0.942394 0.616440 -0.017932
C16   C     C_3   0.552206 0.941830 0.766537 0.117055
C17   C     C_3   0.555328 0.082753 0.762923 0.152236
C18   C     C_R   0.621264 0.541166 0.073516 0.139058
C19   C     C_R   0.394408 0.436315 0.073996 0.398066
C20   C     C_R   0.390623 0.439998 0.926605 0.233095
Cl1   Cl    Cl    0.875050 0.656976 0.163413 -0.466404
Cl2   Cl    Cl    0.368679 0.860547 0.226485 -0.454136
Cl3   Cl    Cl    0.402428 0.882260 0.869082 -0.501829
Cl4   Cl    Cl    0.736427 0.149965 0.783270 -0.528639
Cl5   Cl    Cl    0.263275 0.339885 0.157564 -0.480197
Cu1   Cu    Cu3+1 0.499990 0.499980 0.640670 1.011181
Cu2   Cu    Cu3+1 0.500010 0.500020 0.359330 1.133657
H1    H     H_    0.418794 0.110761 0.282000 0.214616
H2    H     H_    0.630626 0.729107 0.876375 0.168423
H3    H     H_    0.627320 0.736127 0.126530 0.184036
H4    H     H_    0.662707 0.903866 0.783977 0.161335
H5    H     H_    0.468017 0.127817 0.825340 0.187113
H6    H     H_    0.300754 0.323854 0.777365 0.269465
H7    H     H_    0.190154 0.443042 0.832440 0.270680
H8    H     H_    0.841434 0.676891 0.756886 0.238534
H9    H     H_    0.892144 0.569818 0.870223 0.277556
N1    N     N_R   0.500920 0.500930 0.147930 -0.263912
N2    N     N_R   0.500930 0.500890 0.852020 -0.254910
N3    N     N_3   0.267337 0.378712 0.860399 -0.535166
N4    N     N_3   0.849223 0.657593 0.862512 -0.517122
O1    O     O_R   0.500000 0.319640 0.618810 -0.502850
O2    O     O_R   0.500020 0.319680 0.381230 -0.478974
O3    O     O_R   0.288380 0.499980 0.618770 -0.536753
O4    O     O_R   0.288400 0.500020 0.381190 -0.420958
O5    O     O_R   0.499980 0.680320 0.618770 -0.495153
O6    O     O_R   0.500000 0.680360 0.381190 -0.465323
O7    O     O_R   0.711600 0.499980 0.618810 -0.511987
O8    O     O_R   0.711620 0.500020 0.381230 -0.455073

loop_
_geom_bond_atom_site_label_1
_geom_bond_atom_site_label_2
_ccdc_geom_bond_type
Cu2   O8    S    
Cu1   O3    S    
C13   H1    S    
C6    O5    A    
C2    C18   A    
C20   N2    A    
C2    N2    A    
C19   C20   A    
C1    C11   S    
C4    C8    S    
C7    O8    A    
H8    N4    S    
C8    C9    T    
C16   H4    S    
C11   C13   A    
Cu2   O2    S    
Cu1   Cu2   S    
H6    N3    S    
C4    O4    A    
Cu1   O7    S    
Cu2   N1    S    
Cu2   O6    S    
C1    O1    A    
C4    O3    A    
C18   N1    A    
C12   C14   A    
C3    N4    S    
C2    C3    S    
C16   Cl3   S    
C10   C15   A    
C6    O6    A    
C19   Cl5   S    
C17   Cl4   S    
C6    C14   S    
C10   C11   A    
C10   C17   S    
H7    N3    S    
C12   Cl2   S    
C1    O2    A    
H9    N4    S    
C5    Cl1   S    
C12   C13   A    
C3    H2    S    
C5    H3    S    
C17   H5    S    
C7    C9    S    
C20   N3    S    
C14   C15   A    
Cu1   N2    S    
C5    C18   S    
C19   N1    A    
Cu1   O5    S    
Cu2   O4    S    
C15   C16   S    
Cu1   O1    S    
C16   C17   S    
C3    C5    S    
C7    O7    A    
