data_mof_unit_19723.cif
_audit_creation_date              2013-03-05T15:48:28-0500
_audit_creation_method            fapswitch 2.2
_symmetry_space_group_name_H-M    P1
_symmetry_Int_Tables_number       1
_space_group_crystal_system       triclinic
_cell_length_a                    20.321467
_cell_length_b                    7.122779
_cell_length_c                    13.445871
_cell_angle_alpha                 89.999935
_cell_angle_beta                  103.811451
_cell_angle_gamma                 90.000318
_cell_volume                      1889.95481896

loop_
_atom_site_label
_atom_site_type_symbol
_atom_site_description
_atom_site_fract_x
_atom_site_fract_y
_atom_site_fract_z
_atom_type_partial_charge
O1    O     O_R   0.449830 0.506740 0.599960 -0.586478
O2    O     O_R   0.550170 0.006740 0.400040 -0.586477
O3    O     O_R   0.588980 0.179860 0.596720 -0.601826
O4    O     O_R   0.411020 0.679860 0.403280 -0.601829
C1    C     C_R   0.615004 0.345138 0.622146 0.898419
C2    C     C_R   0.384996 0.845137 0.377855 0.898425
O5    O     O_R   0.452740 0.177340 0.612040 -0.588904
O6    O     O_R   0.547260 0.677340 0.387960 -0.588901
O7    O     O_R   0.412960 0.002070 0.415460 -0.595861
O8    O     O_R   0.587040 0.502070 0.584540 -0.595857
C3    C     C_R   0.436437 0.345772 0.638547 0.915432
C4    C     C_R   0.563562 0.845773 0.361452 0.915438
O9    O     O_3   0.487110 0.337570 0.435490 -0.282143
O10   O     O_3   0.512890 0.837570 0.564510 -0.282143
V1    V     V_3+5 0.502390 0.064650 0.511970 1.159257
V2    V     V_3+5 0.497610 0.564650 0.488030 1.159258
C5    C     C_R   0.608135 0.872028 0.105911 -0.146840
C6    C     C_R   0.391863 0.372019 0.894087 -0.146849
H1    H     H_    0.515426 0.865617 0.155955 0.107802
H2    H     H_    0.484572 0.365599 0.844043 0.107805
H3    H     H_    0.690123 0.883806 0.979121 0.129592
H4    H     H_    0.309876 0.383801 0.020876 0.129587
H5    H     H_    0.581723 0.880097 0.025828 0.119087
H6    H     H_    0.418275 0.380082 0.974170 0.119087
C7    C     C_R   0.602985 0.854337 0.283366 -0.088350
C8    C     C_R   0.397013 0.354335 0.716632 -0.088346
C9    C     C_R   0.928666 0.805221 0.315290 0.140377
C10   C     C_R   0.071332 0.305219 0.684711 0.140364
C11   C     C_R   0.893188 0.793770 0.392279 0.307058
C12   C     C_R   0.106808 0.293782 0.607719 0.307067
C13   C     C_R   0.823346 0.820029 0.368915 -0.280626
C14   C     C_R   0.176650 0.320045 0.631081 -0.280625
C15   C     C_R   0.786106 0.849174 0.267081 0.059971
C16   C     C_R   0.213892 0.349183 0.732916 0.059975
C17   C     C_R   0.822613 0.862779 0.188878 0.093003
C18   C     C_R   0.177386 0.362785 0.811120 0.093006
C19   C     C_R   0.713660 0.857565 0.240018 0.127861
C20   C     C_R   0.286338 0.357571 0.759978 0.127863
C21   C     C_R   0.679286 0.869024 0.134933 0.188012
C22   C     C_R   0.320712 0.369023 0.865064 0.188012
C23   C     C_R   0.716026 0.876080 0.059473 -0.172620
C24   C     C_R   0.283972 0.376080 0.940525 -0.172628
C25   C     C_R   0.786460 0.875401 0.085932 -0.119726
C26   C     C_R   0.213539 0.375405 0.914066 -0.119729
C27   C     C_R   0.673847 0.852425 0.313420 -0.231301
C28   C     C_R   0.326151 0.352434 0.686576 -0.231303
C29   C     C_R   0.570265 0.863920 0.179675 -0.174535
C30   C     C_R   0.429734 0.363909 0.820323 -0.174533
C31   C     C_R   0.894539 0.852797 0.214760 -0.276906
C32   C     C_R   0.105459 0.352799 0.785240 -0.276905
H7    H     H_    0.695975 0.848111 0.394619 0.114587
H8    H     H_    0.304023 0.348129 0.605377 0.114574
H9    H     H_    0.799544 0.806687 0.431936 0.181462
H10   H     H_    0.200451 0.306712 0.568058 0.181449
H11   H     H_    0.812389 0.881198 0.024443 0.119979
H12   H     H_    0.187611 0.381202 0.975556 0.120000
C33   C     C_3   0.237519 0.745388 0.135859 0.010028
C34   C     C_3   0.762483 0.245368 0.864134 0.010037
H13   H     H_    0.216887 0.600679 0.122798 0.163251
H14   H     H_    0.783123 0.100670 0.877208 0.163223
C35   C     C_3   0.309992 0.733223 0.208204 -0.419146
C36   C     C_3   0.690016 0.233158 0.791777 -0.419105
H15   H     H_    0.348847 0.780480 0.167854 0.169038
H16   H     H_    0.651147 0.280326 0.832127 0.169020
H17   H     H_    0.321578 0.583954 0.230080 0.163391
H18   H     H_    0.678453 0.083886 0.769873 0.163403
H19   H     H_    0.169658 0.636454 0.283126 0.239197
H20   H     H_    0.830330 0.136458 0.716861 0.239192
H21   H     H_    0.275389 0.632736 0.389286 0.171942
H22   H     H_    0.724613 0.132829 0.610653 0.171912
C37   C     C_3   0.190185 0.780899 0.291452 -0.331315
C38   C     C_3   0.809816 0.280917 0.708542 -0.331293
C39   C     C_3   0.221532 0.069421 0.204025 0.289129
C40   C     C_3   0.778468 0.569418 0.795981 0.289164
C41   C     C_3   0.189387 0.866383 0.185218 -0.142245
C42   C     C_3   0.810614 0.366381 0.814781 -0.142261
H23   H     H_    0.223446 0.130385 0.128670 0.078326
H24   H     H_    0.776571 0.630398 0.871340 0.078309
C43   C     C_3   0.314910 0.854181 0.305931 0.050833
C44   C     C_3   0.685090 0.354182 0.694070 0.050856
C45   C     C_3   0.262278 0.778866 0.362304 -0.341641
C46   C     C_3   0.737725 0.278937 0.637682 -0.341624
C47   C     C_3   0.295651 0.058796 0.269811 -0.453318
C48   C     C_3   0.704340 0.558787 0.730226 -0.453338
H25   H     H_    0.330785 0.109467 0.223488 0.139399
H26   H     H_    0.669216 0.609379 0.776586 0.139416
H27   H     H_    0.303048 0.154571 0.336872 0.201169
H28   H     H_    0.696921 0.654628 0.663188 0.201163
H29   H     H_    0.157231 0.864512 0.328894 0.225259
H30   H     H_    0.842780 0.364517 0.671113 0.225245
H31   H     H_    0.263358 0.866151 0.431365 0.179535
H32   H     H_    0.736650 0.366295 0.568646 0.179597
O11   O     O_R   0.912980 0.203550 0.915410 -0.569470
O12   O     O_R   0.087020 0.703550 0.084590 -0.569458
O13   O     O_R   0.047270 0.535570 0.887960 -0.574700
O14   O     O_R   0.952730 0.035570 0.112040 -0.574702
C49   C     C_R   0.066066 0.367628 0.864242 0.988067
C50   C     C_R   0.933933 0.867627 0.135758 0.988053
O15   O     O_R   0.911030 0.532970 0.903270 -0.562586
O16   O     O_R   0.088970 0.032970 0.096730 -0.562573
O17   O     O_R   0.949820 0.708150 0.099970 -0.582465
O18   O     O_R   0.050180 0.208150 0.900030 -0.582458
C51   C     C_R   0.883211 0.366467 0.882858 0.926343
C52   C     C_R   0.116789 0.866468 0.117141 0.926365
O19   O     O_3   0.012900 0.375230 0.064480 -0.240481
O20   O     O_3   0.987100 0.875230 0.935520 -0.240490
V3    V     V_3+5 0.997610 0.648190 0.988040 1.293774
V4    V     V_3+5 0.002390 0.148190 0.011960 1.293779
I1    I     I_    0.242376 0.848510 0.986062 -0.497719
I2    I     I_    0.757606 0.348509 0.013920 -0.497743
N1    N     N_R   0.181392 0.198584 0.251191 0.236612
O21   O     O_R   0.186232 0.196729 0.349431 -0.425888
O22   O     O_R   0.148662 0.335282 0.197052 -0.415007
N2    N     N_R   0.818597 0.698565 0.748784 0.236613
O23   O     O_R   0.813725 0.696716 0.650535 -0.425920
O24   O     O_R   0.851344 0.835257 0.802907 -0.414978
I3    I     I_    0.031815 0.724166 0.347969 -0.281144
I4    I     I_    0.968187 0.224132 0.652040 -0.281140
I5    I     I_    0.941792 0.726624 0.545868 -0.204006
I6    I     I_    0.058197 0.226655 0.454129 -0.203993

loop_
_geom_bond_atom_site_label_1
_geom_bond_atom_site_label_2
_geom_bond_distance
_ccdc_geom_bond_type
O17   V3    2.021985 S    
O15   C51   1.314284 A    
C34   C36   1.561631 S    
C9    C11   1.397998 A    
C23   C25   1.390015 A    
C47   H27   1.111893 S    
N1    O21   1.301027 A    
O1    C3    1.313480 A    
C44   C48   1.556424 S    
O2    C4    1.313482 A    
O11   C51   1.333309 A    
C2    O7    1.300333 A    
N2    O23   1.301043 A    
C34   C42   1.565205 S    
C21   C23   1.396816 A    
O5    C3    1.316234 A    
O19   V3    2.186433 S    
C5    H5    1.083930 S    
C40   C42   1.582175 S    
C6    H6    1.083930 S    
C36   C44   1.554439 S    
C20   C22   1.421213 A    
C48   H26   1.113696 S    
O11   V4    2.003970 S    
H1    C29   1.083541 S    
C33   H13   1.110800 S    
O20   V3    1.757124 S    
C27   H7    1.077376 S    
C34   H14   1.110795 S    
C40   N2    1.470037 S    
C28   H8    1.077383 S    
O16   C52   1.314283 A    
C46   H32   1.113372 S    
C5    C21   1.404973 A    
C35   H15   1.111595 S    
C6    C22   1.404972 A    
C36   H16   1.111620 S    
C31   C50   1.478658 S    
C10   C32   1.405464 A    
C33   I1    2.168186 S    
C43   C47   1.556400 S    
O14   C50   1.317840 A    
C17   C31   1.421167 A    
C13   C15   1.412760 A    
O18   V4    2.021982 S    
C17   C25   1.406527 A    
C7    C29   1.395711 A    
H19   C37   1.105791 S    
C49   O18   1.303943 A    
C8    C30   1.395712 A    
O20   V4    2.186433 S    
C42   C51   1.539333 S    
C22   C24   1.396815 A    
O14   V4    2.030041 S    
O12   C52   1.333310 A    
O6    V2    2.029999 S    
C16   C20   1.430954 A    
C39   C41   1.582175 S    
C24   C26   1.390009 A    
C14   H10   1.075515 S    
C39   N1    1.470023 S    
C9    I3    2.116708 S    
O19   V4    1.757124 S    
O12   V3    2.003965 S    
O16   V4    2.027514 S    
C36   H18   1.113270 S    
C48   H28   1.111914 S    
C44   C46   1.547068 S    
C43   C45   1.547050 S    
C3    C8    1.466120 S    
C15   C19   1.430948 A    
H20   C38   1.105791 S    
C14   C16   1.412771 A    
O4    V2    2.027538 S    
C11   I5    2.120196 S    
C26   H12   1.082075 S    
C37   H29   1.103431 S    
O6    C4    1.316233 A    
C38   C42   1.549291 S    
N1    O22   1.299672 A    
O1    V2    2.018815 S    
C13   H9    1.075512 S    
C1    C44   1.519954 S    
O2    V1    2.018817 S    
H2    C30   1.083542 S    
O13   V3    2.030045 S    
H3    C23   1.084360 S    
C25   H11   1.082080 S    
C47   H25   1.113674 S    
C37   C41   1.549289 S    
C41   C52   1.539336 S    
C18   C26   1.406526 A    
O4    C2    1.302350 A    
C19   C27   1.418175 A    
C7    C27   1.399746 A    
C18   C32   1.421162 A    
C38   H30   1.103435 S    
C32   C49   1.478649 S    
C34   I2    2.168189 S    
C5    C29   1.394183 A    
C40   C48   1.555872 S    
O3    C1    1.302352 A    
C6    C30   1.394179 A    
N2    O24   1.299673 A    
O13   C49   1.317839 A    
C33   C35   1.561633 S    
C50   O17   1.303945 A    
O15   V3    2.027506 S    
C4    C7    1.466123 S    
C33   C41   1.565205 S    
C10   C12   1.397992 A    
O7    V1    2.014789 S    
C1    O8    1.300334 A    
C11   C13   1.391105 A    
C10   I4    2.116679 S    
C12   C14   1.391109 A    
C2    C43   1.519952 S    
H4    C24   1.084362 S    
C12   I6    2.120205 S    
C35   C43   1.554420 S    
O5    V1    2.030003 S    
C15   C17   1.427545 A    
C16   C18   1.427545 A    
H22   C46   1.113497 S    
C20   C28   1.418176 A    
H21   C45   1.113482 S    
C8    C28   1.399751 A    
C45   H31   1.113356 S    
C35   H17   1.113245 S    
C19   C21   1.421210 A    
C40   H24   1.111527 S    
O9    V2    1.757480 S    
C39   H23   1.111524 S    
O10   V1    1.757481 S    
O3    V1    2.027531 S    
O8    V2    2.014795 S    
C39   C47   1.555860 S    
C38   C46   1.545232 S    
C9    C31   1.405471 A    
C37   C45   1.545221 S    
