data_mof_unit_59091.cif
_audit_creation_date              2013-03-05T15:45:31-0500
_audit_creation_method            fapswitch 2.2
_symmetry_space_group_name_H-M    P1
_symmetry_Int_Tables_number       1
_space_group_crystal_system       triclinic
_cell_length_a                    10.855976
_cell_length_b                    10.984864
_cell_length_c                    18.744284
_cell_angle_alpha                 90.278919
_cell_angle_beta                  90.235191
_cell_angle_gamma                 59.948051
_cell_volume                      1934.77076154

loop_
_atom_site_label
_atom_site_type_symbol
_atom_site_description
_atom_site_fract_x
_atom_site_fract_y
_atom_site_fract_z
_atom_type_partial_charge
O1    O     O_R   0.507430 0.255570 0.581420 -0.424055
O2    O     O_R   0.280190 0.527390 0.578910 -0.441613
C1    C     C_R   0.230918 0.648369 0.608072 0.546255
O3    O     O_R   0.260310 0.739740 0.584580 -0.537377
O4    O     O_R   0.532250 0.695150 0.573830 -0.467125
C2    C     C_R   0.626116 0.585414 0.608851 0.544418
O5    O     O_R   0.744930 0.503430 0.576380 -0.492304
O6    O     O_R   0.699250 0.276390 0.571950 -0.538560
C3    C     C_R   0.632360 0.221379 0.600996 0.552493
O7    O     O_R   0.499020 0.256400 0.419850 -0.507605
O8    O     O_R   0.272400 0.528160 0.429140 -0.500060
C4    C     C_R   0.224610 0.648310 0.400547 0.538246
O9    O     O_R   0.251910 0.740570 0.423020 -0.519945
O10   O     O_R   0.524460 0.695920 0.424060 -0.503334
C5    C     C_R   0.640201 0.618268 0.389838 0.571366
O11   O     O_R   0.736530 0.504260 0.414810 -0.460505
O12   O     O_R   0.691460 0.277160 0.422180 -0.497718
C6    C     C_R   0.616106 0.229889 0.395023 0.550725
Cr1   Cr    Cr6+3 0.392930 0.397900 0.502230 1.127457
Cr2   Cr    Cr6+3 0.398240 0.708600 0.501260 1.062996
Cr3   Cr    Cr6+3 0.708800 0.393470 0.496460 1.059675
O13   O     O_3   0.499990 0.499990 0.499980 -0.307891
C7    C     C_3   0.524681 0.746279 0.798531 -0.233263
H1    H     H_    0.490084 0.859596 0.802420 0.159067
H2    H     H_    0.458201 0.726112 0.836354 0.124589
C8    C     C_3   0.499839 0.711530 0.721669 -0.229845
H3    H     H_    0.435871 0.658363 0.723463 0.118174
H4    H     H_    0.437852 0.810572 0.691279 0.206661
H5    H     H_    0.764691 0.791200 0.778884 0.106875
H6    H     H_    0.686314 0.783681 0.666176 0.187723
C9    C     C_3   0.776935 0.686955 0.767852 -0.231540
C10   C     C_3   0.727072 0.498107 0.807056 -0.231819
C11   C     C_3   0.684326 0.654792 0.818453 0.045274
H7    H     H_    0.838486 0.425960 0.824584 0.157350
H8    H     H_    0.656926 0.472747 0.839218 0.132143
C12   C     C_3   0.644296 0.611590 0.684988 0.028647
C13   C     C_3   0.740725 0.677593 0.689998 -0.212950
C14   C     C_3   0.714054 0.471250 0.727080 -0.244495
H9    H     H_    0.648357 0.420146 0.721241 0.114252
H10   H     H_    0.821911 0.398888 0.705377 0.167026
H11   H     H_    0.891132 0.609132 0.777015 0.154848
H12   H     H_    0.840843 0.614612 0.659884 0.199221
C15   C     C_R   0.798894 0.135865 0.705121 -0.190797
H13   H     H_    0.866269 0.170033 0.680393 0.146734
C16   C     C_R   0.817110 0.102196 0.777793 -0.156309
H14   H     H_    0.899550 0.108317 0.807497 0.142190
C17   C     C_R   0.723046 0.069426 0.812068 -0.024623
C18   C     C_R   0.620282 0.058229 0.771582 -0.124187
H15   H     H_    0.551992 0.026124 0.796896 0.160150
C19   C     C_R   0.606765 0.082802 0.698635 0.202960
C20   C     C_R   0.686627 0.137103 0.666550 0.009358
C21   C     C_R   0.167351 0.561443 0.718646 0.172780
C22   C     C_R   0.164022 0.568339 0.793254 -0.134814
H16   H     H_    0.159924 0.486521 0.823351 0.173553
C23   C     C_R   0.154925 0.684789 0.829034 -0.022357
C24   C     C_R   0.148508 0.795765 0.789804 -0.163345
H17   H     H_    0.137165 0.889260 0.815589 0.153157
C25   C     C_R   0.151339 0.790903 0.716416 -0.183631
H18   H     H_    0.149059 0.878222 0.688572 0.167482
C26   C     C_R   0.170780 0.670578 0.680031 0.006611
C27   C     C_R   0.729956 0.519803 0.268393 0.100367
C28   C     C_R   0.713005 0.533628 0.194182 0.102963
C29   C     C_R   0.643621 0.669253 0.165123 0.023224
C30   C     C_R   0.563655 0.786986 0.209030 -0.182144
H19   H     H_    0.508345 0.892235 0.187080 0.166506
C31   C     C_R   0.563257 0.771057 0.282524 -0.195815
H20   H     H_    0.499813 0.862517 0.315654 0.150974
C32   C     C_R   0.649580 0.638940 0.313119 0.026157
C33   C     C_R   0.512413 0.263408 0.277374 -0.109270
H21   H     H_    0.409173 0.337737 0.299364 0.166971
C34   C     C_R   0.524583 0.244129 0.204490 0.186334
C35   C     C_R   0.659267 0.152601 0.176527 0.003402
C36   C     C_R   0.779635 0.081865 0.221349 -0.194623
H22   H     H_    0.883862 0.007335 0.200594 0.162603
C37   C     C_R   0.766107 0.100878 0.294006 -0.180253
H23   H     H_    0.858724 0.047179 0.328262 0.141317
C38   C     C_R   0.632996 0.192457 0.321559 -0.003866
C39   C     C_R   0.261590 0.702665 0.281283 -0.136708
H24   H     H_    0.334888 0.734149 0.301533 0.148623
C40   C     C_R   0.240395 0.706143 0.209205 -0.126738
H25   H     H_    0.292515 0.745193 0.174501 0.136713
C41   C     C_R   0.145021 0.667797 0.182816 0.079137
C42   C     C_R   0.077298 0.617183 0.227765 -0.080177
H26   H     H_    0.001169 0.589301 0.207183 0.156622
C43   C     C_R   0.101072 0.611058 0.300433 -0.142791
H27   H     H_    0.048857 0.573120 0.335710 0.138016
C44   C     C_R   0.189014 0.659126 0.326924 0.020219
O14   O     O_R   0.089490 0.825610 0.930610 -0.526997
O15   O     O_R   0.818370 0.054540 0.929880 -0.494511
C45   C     C_R   0.728962 0.040018 0.888878 0.556552
O16   O     O_R   0.605870 0.077310 0.915530 -0.497602
O17   O     O_R   0.646440 0.806700 0.917570 -0.529694
C46   C     C_R   0.716000 0.682088 0.891790 0.526857
O18   O     O_R   0.837200 0.593290 0.915250 -0.521502
O19   O     O_R   0.065330 0.635370 0.931590 -0.496732
C47   C     C_R   0.112693 0.709806 0.903793 0.549531
O20   O     O_R   0.068300 0.828790 0.091860 -0.536245
O21   O     O_R   0.798730 0.057480 0.079370 -0.516967
C48   C     C_R   0.675862 0.106386 0.104017 0.596944
O22   O     O_R   0.584680 0.080480 0.076790 -0.456747
O23   O     O_R   0.626790 0.809640 0.067050 -0.518668
C49   C     C_R   0.691985 0.689173 0.095991 0.557419
O24   O     O_R   0.816010 0.596460 0.076500 -0.468563
O25   O     O_R   0.045680 0.638310 0.081070 -0.466239
C50   C     C_R   0.092843 0.708801 0.112298 0.570280
Cr4   Cr    Cr6+3 0.937620 0.938540 0.007640 1.027812
Cr5   Cr    Cr6+3 0.625150 0.937450 0.994520 1.050264
Cr6   Cr    Cr6+3 0.937990 0.625080 0.001190 1.076866
O26   O     O_3   0.833590 0.833690 0.001120 -0.292714
N1    N     N_R   0.510880 0.053789 0.658308 0.089546
O27   O     O_R   0.543939 0.002623 0.593923 -0.333524
O28   O     O_R   0.401668 0.058023 0.689106 -0.326850
N2    N     N_R   0.161772 0.446914 0.683951 0.084263
O29   O     O_R   0.198538 0.331579 0.718831 -0.306142
O30   O     O_R   0.093953 0.466941 0.623848 -0.331680
N3    N     N_3   0.833526 0.387399 0.298299 -0.582782
H28   H     H_    0.932400 0.354633 0.274606 0.245186
H29   H     H_    0.801854 0.313984 0.288431 0.238072
N4    N     N_3   0.774730 0.413412 0.146846 -0.583573
H30   H     H_    0.690941 0.413155 0.119259 0.239942
H31   H     H_    0.827766 0.317685 0.173520 0.229795
N5    N     N_R   0.400639 0.315879 0.160052 0.079137
O31   O     O_R   0.405096 0.375927 0.101198 -0.345871
O32   O     O_R   0.282080 0.322839 0.178899 -0.351015

loop_
_geom_bond_atom_site_label_1
_geom_bond_atom_site_label_2
_geom_bond_distance
_ccdc_geom_bond_type
C39   C44   1.402963 A    
O23   Cr5   1.952721 S    
C31   C32   1.398155 A    
C23   C24   1.398188 A    
O14   C47   1.268160 A    
C46   O18   1.260964 A    
C36   C37   1.374089 A    
C36   H22   1.083792 S    
C34   N5    1.435440 S    
C33   C38   1.408017 A    
O19   C47   1.277438 A    
C3    C20   1.474044 S    
C15   H13   1.081714 S    
O4    Cr2   1.938833 S    
C16   H14   1.082267 S    
C24   H17   1.082842 S    
O8    Cr1   1.940527 S    
C8    H3    1.109523 S    
O11   Cr3   2.074353 S    
C42   H26   1.084173 S    
C12   C13   1.545657 S    
C33   H21   1.084743 S    
O4    C2    1.301654 A    
C39   C40   1.367070 A    
C41   C50   1.419519 S    
C25   C26   1.403470 A    
C5    O11   1.253426 A    
C19   N1    1.442200 S    
O14   Cr4   2.072561 S    
Cr6   O26   1.983560 S    
O12   C6    1.271765 A    
C7    C8    1.545545 S    
C13   H12   1.107540 S    
C33   C34   1.378170 A    
N1    O27   1.302342 A    
C21   C26   1.419795 A    
C48   O22   1.264062 A    
N3    H29   1.038538 S    
O6    C3    1.278609 A    
C7    C11   1.551426 S    
O15   Cr4   1.942804 S    
C7    H1    1.107671 S    
C9    C11   1.549850 S    
O24   Cr6   2.069230 S    
C10   C14   1.545977 S    
O9    Cr2   2.055417 S    
C35   C36   1.413336 A    
O20   C50   1.267831 A    
C1    C26   1.466144 S    
N4    H31   1.040966 S    
C31   H20   1.083406 S    
Cr3   O13   1.963650 S    
Cr5   O26   1.962311 S    
C49   O24   1.269075 A    
C29   C49   1.458118 S    
O25   C50   1.262763 A    
C19   C20   1.412405 A    
C16   C17   1.400327 A    
O1    Cr1   2.062483 S    
C43   C44   1.391138 A    
O23   C49   1.269709 A    
O16   Cr5   2.072174 S    
Cr1   O13   1.979019 S    
O1    C3    1.265766 A    
C40   C41   1.387318 A    
C39   H24   1.081084 S    
C40   H25   1.084508 S    
C25   H18   1.083530 S    
C43   H27   1.083785 S    
O12   Cr3   1.956477 S    
C9    C13   1.526125 S    
H6    C13   1.104454 S    
C30   C31   1.389807 A    
C37   H23   1.084228 S    
C10   H8    1.113011 S    
C28   C29   1.401507 A    
O10   Cr2   1.952971 S    
C15   C16   1.400310 A    
O17   Cr5   1.961330 S    
C17   C18   1.401833 A    
O7    Cr1   2.079694 S    
N4    H30   1.045697 S    
O18   Cr6   2.068058 S    
C27   N3    1.434820 S    
O6    Cr3   1.954364 S    
C37   C38   1.382748 A    
C28   N4    1.444769 S    
O20   Cr4   2.060411 S    
C8    C12   1.553846 S    
C18   H15   1.079583 S    
C42   C43   1.380991 A    
Cr2   O13   1.984035 S    
C41   C42   1.406606 A    
C17   C45   1.471172 S    
C22   C23   1.400539 A    
N5    O32   1.300812 A    
C1    O3    1.276451 A    
O25   Cr6   1.945105 S    
C21   C22   1.399800 A    
N2    O29   1.300528 A    
O22   Cr5   2.080924 S    
C9    H11   1.111499 S    
C4    C44   1.420965 S    
O2    Cr1   1.959080 S    
C23   C47   1.457633 S    
C11   C46   1.480926 S    
O8    C4    1.271669 A    
C22   H16   1.083141 S    
C2    O5    1.297251 A    
C8    H4    1.109321 S    
O21   Cr4   1.953120 S    
C10   C11   1.555840 S    
C2    C12   1.486241 S    
C12   C14   1.552484 S    
O2    C1    1.278419 A    
O15   C45   1.306129 A    
C34   C35   1.397209 A    
H5    C9    1.103262 S    
O5    Cr3   2.075828 S    
C30   H19   1.083425 S    
C14   H10   1.112160 S    
C27   C32   1.424261 A    
C15   C20   1.408753 A    
C45   O16   1.287733 A    
C14   H9    1.111548 S    
O7    C6    1.244922 A    
C6    C38   1.421251 S    
C21   N2    1.441328 S    
C5    C32   1.468808 S    
C18   C19   1.387919 A    
O17   C46   1.280142 A    
C24   C25   1.376259 A    
N3    H28   1.046096 S    
C7    H2    1.112842 S    
C27   C28   1.401382 A    
N1    O28   1.300460 A    
O19   Cr6   1.948985 S    
C29   C30   1.405183 A    
O3    Cr2   2.073463 S    
C4    O9    1.260171 A    
O21   C48   1.251458 A    
O10   C5    1.282839 A    
N5    O31   1.301523 A    
Cr4   O26   1.979189 S    
C10   H7    1.112717 S    
N2    O30   1.301162 A    
C35   C48   1.428694 S    
