data_mof_unit_13405.cif
_audit_creation_date              2012-12-11T15:45:00-0500
_audit_creation_method            fapswitch 2.2
_symmetry_space_group_name_H-M    P1
_symmetry_Int_Tables_number       1
_space_group_crystal_system       triclinic
_cell_length_a                    6.929469
_cell_length_b                    16.833511
_cell_length_c                    17.089089
_cell_angle_alpha                 100.478552
_cell_angle_beta                  88.300914
_cell_angle_gamma                 91.710744
_cell_volume                      1958.68354717

loop_
_atom_site_label
_atom_site_type_symbol
_atom_type_description
_atom_site_fract_x
_atom_site_fract_y
_atom_site_fract_z
_atom_type_partial_charge
O1    O     O_R   0.494370 0.415690 0.413450 -0.547365
O2    O     O_R   0.819420 0.429360 0.578420 -0.516146
O3    O     O_R   0.994280 0.584310 0.586550 -0.538572
C1    C     C_R   0.646772 0.411386 0.603081 0.768232
O4    O     O_R   0.823790 0.406230 0.413570 -0.541119
O5    O     O_R   0.998670 0.561000 0.420530 -0.544156
C2    C     C_R   0.654936 0.383034 0.384967 0.683157
O6    O     O_R   0.489970 0.439000 0.579470 -0.540237
O7    O     O_3   0.662300 0.550810 0.502470 -0.356062
V1    V     V_3+5 0.935380 0.490570 0.499540 1.503165
O8    O     O_R   0.328650 0.570640 0.421580 -0.542318
C3    C     C_R   0.164357 0.587043 0.395103 0.693009
O9    O     O_R   0.324290 0.593770 0.586430 -0.518069
C4    C     C_R   0.155626 0.618230 0.614005 0.731820
V2    V     V_3+5 0.435930 0.509430 0.500460 1.502316
O10   O     O_3   0.159140 0.449190 0.497530 -0.355644
C5    C     C_R   0.302007 0.744499 0.700138 0.262356
C6    C     C_R   0.288621 0.806696 0.766658 -0.167580
H1    H     H_    0.409048 0.849217 0.779226 0.152359
C7    C     C_R   0.121021 0.816009 0.815319 -0.103186
C8    C     C_R   0.965098 0.761470 0.796150 -0.129761
H2    H     H_    0.833507 0.767121 0.832329 0.132778
C9    C     C_R   0.978409 0.697954 0.730873 -0.145938
H3    H     H_    0.856622 0.656057 0.719102 0.152065
C10   C     C_R   0.146552 0.687855 0.681988 -0.107444
C11   C     C_R   0.174456 0.641104 0.334504 -0.064178
C12   C     C_R   0.090405 0.858869 0.165496 -0.069146
C13   C     C_R   0.893800 0.797739 0.261618 -0.186429
C14   C     C_R   0.916304 0.852499 0.209262 -0.156725
C15   C     C_R   0.243656 0.809298 0.176546 -0.232956
C16   C     C_R   0.220786 0.753080 0.228688 0.160634
C17   C     C_R   0.044123 0.746958 0.271388 0.155233
C18   C     C_R   0.021238 0.690715 0.323507 -0.222480
C19   C     C_R   0.348587 0.647511 0.290771 -0.153231
C20   C     C_R   0.371119 0.702306 0.238458 -0.195212
H4    H     H_    0.886798 0.687236 0.356949 0.133500
H5    H     H_    0.469559 0.610175 0.297380 0.124556
H6    H     H_    0.757847 0.794772 0.294077 0.131826
H7    H     H_    0.507085 0.705288 0.206011 0.119177
H8    H     H_    0.795332 0.889830 0.202636 0.132286
H9    H     H_    0.378102 0.812773 0.143110 0.121750
C21   C     C_R   0.623089 0.356265 0.662107 -0.153175
C22   C     C_R   0.642691 0.137286 0.833254 -0.078846
C23   C     C_R   0.840390 0.177914 0.726736 -0.134825
C24   C     C_R   0.805821 0.127788 0.782299 -0.164938
C25   C     C_R   0.512608 0.198016 0.827183 -0.194438
C26   C     C_R   0.547418 0.250541 0.772018 0.100179
C27   C     C_R   0.714233 0.240547 0.720956 0.055606
C28   C     C_R   0.751335 0.292938 0.665478 0.187079
C29   C     C_R   0.459747 0.365224 0.713410 -0.211285
C30   C     C_R   0.419900 0.313247 0.767655 0.210945
H10   H     H_    0.360722 0.413297 0.710982 0.142213
H11   H     H_    0.969361 0.167409 0.689655 0.176703
H12   H     H_    0.908403 0.081212 0.785506 0.134528
H13   H     H_    0.387982 0.205584 0.867353 0.150808
C31   C     C_R   0.811427 0.275848 0.282439 -0.137134
H14   H     H_    0.951908 0.294801 0.306219 0.121809
C32   C     C_R   0.800250 0.212085 0.217308 -0.146240
H15   H     H_    0.932701 0.183792 0.193095 0.120106
C33   C     C_R   0.621002 0.185202 0.184059 -0.048013
C34   C     C_R   0.453230 0.223858 0.217901 -0.149009
H16   H     H_    0.312743 0.204893 0.194135 0.117240
C35   C     C_R   0.464407 0.287626 0.283028 -0.139434
H17   H     H_    0.331956 0.315913 0.307250 0.119793
C36   C     C_R   0.643673 0.314554 0.316228 -0.040718
O11   O     O_R   0.774880 0.061150 0.920630 -0.538882
O12   O     O_R   0.440980 0.093710 0.086500 -0.543841
O13   O     O_R   0.266190 0.938890 0.079390 -0.536952
C37   C     C_R   0.609795 0.116838 0.115194 0.688115
O14   O     O_R   0.445420 0.070740 0.921670 -0.541711
O15   O     O_R   0.270660 0.915760 0.913380 -0.541222
C38   C     C_R   0.618058 0.086276 0.895165 0.710026
O16   O     O_R   0.770400 0.084270 0.086640 -0.541261
O17   O     O_3   0.602590 0.949210 0.997500 -0.369911
V3    V     V_3+5 0.329470 0.009420 0.000470 1.413646
O18   O     O_R   0.940650 0.906250 0.913470 -0.541508
C39   C     C_R   0.109778 0.883355 0.884744 0.705288
O19   O     O_R   0.936210 0.929220 0.078300 -0.545369
C40   C     C_R   0.100493 0.912870 0.104835 0.699716
V4    V     V_3+5 0.828930 0.990510 0.999490 1.414227
O20   O     O_3   0.105680 0.050790 0.002500 -0.368947
Br1   Br    Br    0.532813 0.745362 0.634909 -0.562047
Br2   Br    Br    0.969435 0.274125 0.591322 -0.563827
N1    N     N_3   0.250360 0.324451 0.818738 -0.672901
H18   H     H_    0.179400 0.376703 0.812129 0.233995
H19   H     H_    0.154905 0.276029 0.799756 0.238149

loop_
_geom_bond_atom_site_label_1
_geom_bond_atom_site_label_2
_ccdc_geom_bond_type
C35   C36   A    
C22   C38   S    
C12   C14   A    
C19   H5    S    
O2    C1    A    
C1    O6    A    
O13   V3    S    
C7    C39   S    
C13   C14   A    
N1    H19   S    
C6    H1    S    
C12   C40   S    
O5    C3    A    
C15   C16   A    
O19   V4    S    
C32   C33   A    
C31   C36   A    
C18   H4    S    
C31   H14   S    
C19   C20   A    
C34   C35   A    
O8    V2    S    
C23   H11   S    
C11   C19   A    
O11   C38   A    
C16   C17   A    
C25   H13   S    
C29   H10   S    
C9    H3    S    
C15   H9    S    
C37   O16   A    
O1    V2    S    
O7    V1    S    
O13   C40   A    
O17   V4    S    
O9    C4    A    
C12   C15   A    
C29   C30   A    
O17   V3    S    
C13   C17   A    
N1    H18   S    
O4    C2    A    
O19   C40   A    
V3    O20   S    
C26   C30   A    
C32   H15   S    
C3    C11   S    
C33   C34   A    
O12   C37   A    
C20   H7    S    
C2    C36   S    
C11   C18   A    
C26   C27   A    
C13   H6    S    
C5    Br1   S    
C5    C6    A    
O18   C39   A    
C22   C24   A    
O3    C4    A    
C21   C29   A    
C27   C28   A    
C24   H12   S    
O6    V2    S    
C8    C9    A    
C16   C20   A    
O12   V3    S    
O2    V1    S    
O15   C39   A    
C23   C24   A    
C25   C26   A    
O1    C2    A    
O18   V4    S    
V4    O20   S    
O5    V1    S    
O8    C3    A    
O11   V4    S    
C5    C10   A    
C17   C18   A    
C28   Br2   S    
O9    V2    S    
O7    V2    S    
O4    V1    S    
O3    V1    S    
V1    O10   S    
O15   V3    S    
C1    C21   S    
C33   C37   S    
C14   H8    S    
O16   V4    S    
C31   C32   A    
C6    C7    A    
C9    C10   A    
C4    C10   S    
C34   H16   S    
C22   C25   A    
C21   C28   A    
C35   H17   S    
C23   C27   A    
C7    C8    A    
O14   V3    S    
O14   C38   A    
C8    H2    S    
C30   N1    S    
V2    O10   S    
