data_mof_unit_57411.cif
_audit_creation_date              2012-12-11T14:30:07-0500
_audit_creation_method            fapswitch 2.2
_symmetry_space_group_name_H-M    P1
_symmetry_Int_Tables_number       1
_space_group_crystal_system       triclinic
_cell_length_a                    12.859457
_cell_length_b                    12.863596
_cell_length_c                    26.859239
_cell_angle_alpha                 90.095034
_cell_angle_beta                  90.120289
_cell_angle_gamma                 120.227889
_cell_volume                      3838.87854158

loop_
_atom_site_label
_atom_site_type_symbol
_atom_type_description
_atom_site_fract_x
_atom_site_fract_y
_atom_site_fract_z
_atom_type_partial_charge
C1    C     C_R   0.556656 0.454491 0.822179 0.567348
C2    C     C_R   0.454493 0.555739 0.178028 0.571616
C3    C     C_R   0.038003 0.353311 0.476465 -0.128661
C4    C     C_R   0.372276 0.059241 0.026905 -0.107494
C5    C     C_R   0.650903 0.683958 0.476689 -0.129185
C6    C     C_R   0.313206 0.957097 0.527227 -0.105391
C7    C     C_R   0.971804 0.318990 0.976686 -0.120685
C8    C     C_R   0.642906 0.687507 0.528053 -0.108283
C9    C     C_R   0.362062 0.045799 0.975690 -0.134385
C10   C     C_R   0.048906 0.361764 0.527815 -0.107099
C11   C     C_R   0.686465 0.645014 0.978242 -0.121520
C12   C     C_R   0.443636 0.898674 0.322012 0.584903
C13   C     C_R   0.098635 0.543428 0.178782 0.545072
C14   C     C_R   0.987921 0.514604 0.975763 -0.023862
C15   C     C_R   0.516934 0.991690 0.527563 -0.032915
C16   C     C_R   0.488616 0.465691 0.975693 -0.032920
C17   C     C_R   0.008554 0.526909 0.526918 -0.023567
C18   C     C_R   0.535020 0.018346 0.973482 -0.026930
C19   C     C_R   0.473981 0.482885 0.527347 -0.032210
C20   C     C_R   0.513576 0.985474 0.475009 -0.023796
C21   C     C_R   0.898206 0.443407 0.677876 0.585894
C22   C     C_R   0.993358 0.517749 0.028494 -0.022850
C23   C     C_R   0.471302 0.487062 0.474825 -0.031662
C24   C     C_R   0.531848 0.010982 0.026122 -0.022295
C25   C     C_R   0.016455 0.529665 0.474459 -0.032051
C26   C     C_R   0.483015 0.469158 0.028035 -0.031507
C27   C     C_R   0.004736 0.711489 0.974804 0.121117
C28   C     C_R   0.717840 0.016683 0.526561 0.133100
C29   C     C_R   0.289687 0.285398 0.973487 0.119386
C30   C     C_R   0.979227 0.699851 0.524857 0.102012
C31   C     C_R   0.714193 0.999354 0.972687 0.138869
C32   C     C_R   0.544451 0.099833 0.821436 0.564009
C33   C     C_R   0.297389 0.281432 0.525405 0.114669
C34   C     C_R   0.709907 0.000010 0.474270 0.106215
C35   C     C_R   0.025062 0.721034 0.026965 0.113347
C36   C     C_R   0.289431 0.289656 0.473128 0.121308
C37   C     C_R   0.701463 0.977283 0.024698 0.116741
C38   C     C_R   0.998291 0.709160 0.472770 0.141712
C39   C     C_R   0.280440 0.294147 0.025644 0.114238
C40   C     C_R   0.959481 0.587914 0.896256 0.075015
C41   C     C_R   0.627733 0.037920 0.605496 0.093320
C42   C     C_R   0.410181 0.368582 0.895605 0.087032
C43   C     C_R   0.555642 0.455230 0.678172 0.565415
C44   C     C_R   0.947280 0.581539 0.603312 0.088695
C45   C     C_R   0.626067 0.027449 0.892302 0.098465
C46   C     C_R   0.410229 0.370206 0.604587 0.093300
C47   C     C_R   0.588104 0.958916 0.395619 0.082024
C48   C     C_R   0.029679 0.624388 0.107756 0.116020
C49   C     C_R   0.372095 0.409187 0.395059 0.086705
C50   C     C_R   0.579162 0.941817 0.102196 0.090801
C51   C     C_R   0.035396 0.626629 0.394637 0.084210
C52   C     C_R   0.367109 0.409743 0.104390 0.091665
C53   C     C_R   0.028855 0.525088 0.131874 -0.028970
C54   C     C_R   0.898417 0.443437 0.822235 0.586629
C55   C     C_R   0.489608 0.958890 0.371053 0.031198
C56   C     C_R   0.468158 0.503966 0.130384 -0.010193
C57   C     C_R   0.040468 0.530012 0.370519 -0.012104
C58   C     C_R   0.492220 0.958998 0.128630 0.030406
C59   C     C_R   0.469393 0.510458 0.370864 -0.009371
C60   C     C_R   0.527496 0.033316 0.630681 -0.010263
C61   C     C_R   0.958612 0.489112 0.871571 0.026360
C62   C     C_R   0.505393 0.470771 0.630368 -0.011843
C63   C     C_R   0.529766 0.036112 0.869439 -0.001077
C64   C     C_R   0.960998 0.492397 0.629495 0.024977
C65   C     C_R   0.544114 0.099901 0.678356 0.562534
C66   C     C_R   0.511976 0.466107 0.871748 -0.003395
C67   C     C_R   0.985193 0.606957 0.948562 0.066005
C68   C     C_R   0.621133 0.013283 0.553618 0.092441
C69   C     C_R   0.394210 0.372528 0.947914 0.090697
C70   C     C_R   0.980398 0.605632 0.552200 0.067660
C71   C     C_R   0.626532 0.014107 0.945655 0.080597
C72   C     C_R   0.391432 0.377813 0.552866 0.093882
C73   C     C_R   0.606398 0.983160 0.447906 0.064556
C74   C     C_R   0.014559 0.622000 0.054806 0.072190
C75   C     C_R   0.377053 0.393299 0.447324 0.093065
C76   C     C_R   0.455164 0.556301 0.321941 0.562322
C77   C     C_R   0.606731 0.978334 0.051485 0.067045
C78   C     C_R   0.015214 0.622335 0.446931 0.093829
C79   C     C_R   0.376424 0.388508 0.053126 0.095772
C80   C     C_R   0.994696 0.419813 0.898230 0.226999
C81   C     C_R   0.415959 0.979979 0.606191 0.230782
C82   C     C_R   0.584967 0.568967 0.899304 0.228923
C83   C     C_R   0.020994 0.440299 0.606065 0.219290
C84   C     C_R   0.428777 0.009084 0.897317 0.220966
C85   C     C_R   0.562801 0.582612 0.606501 0.224782
C86   C     C_R   0.419762 0.994128 0.397712 0.209969
C87   C     C_R   0.443035 0.897365 0.177486 0.601549
C88   C     C_R   0.978643 0.414624 0.106927 0.189270
C89   C     C_R   0.574223 0.582137 0.397876 0.216350
C90   C     C_R   0.444655 0.023697 0.105401 0.230126
C91   C     C_R   0.009677 0.426430 0.397669 0.224538
C92   C     C_R   0.580188 0.557724 0.107301 0.238756
C93   C     C_R   0.986860 0.418301 0.950176 0.013494
C94   C     C_R   0.414156 0.974423 0.553929 0.017457
C95   C     C_R   0.587178 0.560411 0.950988 0.017358
C96   C     C_R   0.028141 0.443758 0.553882 0.019877
C97   C     C_R   0.440773 0.023043 0.948770 0.014309
C98   C     C_R   0.100910 0.544688 0.321764 0.553762
C99   C     C_R   0.559332 0.585527 0.554240 0.015319
C100  C     C_R   0.417247 0.984577 0.449501 0.013401
C101  C     C_R   0.974755 0.414155 0.054690 0.024324
C102  C     C_R   0.566817 0.584256 0.449722 0.013843
C103  C     C_R   0.450706 0.033693 0.053146 0.022309
C104  C     C_R   0.020191 0.435266 0.449447 0.014541
C105  C     C_R   0.585322 0.554034 0.055252 0.020543
C106  C     C_R   0.958802 0.313897 0.027874 -0.105413
C107  C     C_R   0.317472 0.968765 0.475953 -0.126792
C108  C     C_R   0.688813 0.637268 0.029652 -0.105565
Cr1   Cr    Cr6+3 0.487630 0.241180 0.750000 1.083027
Cr2   Cr    Cr6+3 0.753550 0.512370 0.750000 1.143437
Cr3   Cr    Cr6+3 0.758820 0.246450 0.750000 1.104262
Cr4   Cr    Cr6+3 0.241180 0.487630 0.250000 1.088701
Cr5   Cr    Cr6+3 0.512370 0.753550 0.250000 1.157051
Cr6   Cr    Cr6+3 0.246450 0.758820 0.250000 1.105842
H1    H     H_    0.942900 0.233331 0.046432 0.167451
H2    H     H_    0.295770 0.057986 0.956610 0.157086
H3    H     H_    0.065625 0.298477 0.547083 0.170957
H4    H     H_    0.763763 0.714600 0.959411 0.138386
H5    H     H_    0.975005 0.743445 0.125180 0.314563
H6    H     H_    0.002592 0.690132 0.172771 0.248738
H7    H     H_    0.748373 0.002594 0.362718 0.329508
H8    H     H_    0.666865 0.857869 0.385719 0.273983
H9    H     H_    0.211481 0.383294 0.135096 0.276046
H10   H     H_    0.269784 0.300739 0.162233 0.293826
H11   H     H_    0.138385 0.784390 0.358263 0.282053
H12   H     H_    0.240205 0.958828 0.456482 0.149942
H13   H     H_    0.995363 0.696895 0.334296 0.271494
H14   H     H_    0.722720 0.941302 0.134988 0.329535
H15   H     H_    0.622120 0.808737 0.104491 0.253597
H16   H     H_    0.297904 0.297775 0.334990 0.274223
H17   H     H_    0.214443 0.357230 0.358818 0.282532
H18   H     H_    0.787297 0.155451 0.638768 0.278628
H19   H     H_    0.712821 0.013116 0.665180 0.286897
H20   H     H_    0.003480 0.747919 0.863231 0.326761
H21   H     H_    0.859260 0.667359 0.886751 0.277959
H22   H     H_    0.299823 0.280004 0.663251 0.291005
H23   H     H_    0.769033 0.702051 0.049242 0.165985
H24   H     H_    0.374515 0.212633 0.636850 0.277893
H25   H     H_    0.731501 0.959819 0.869970 0.324342
H26   H     H_    0.687773 0.003814 0.825309 0.229129
H27   H     H_    0.958436 0.731754 0.634970 0.327486
H28   H     H_    0.819954 0.631539 0.608280 0.263014
H29   H     H_    0.356706 0.212241 0.858166 0.283940
H30   H     H_    0.298128 0.297448 0.835537 0.272547
H31   H     H_    0.139715 0.900387 0.034142 0.229996
H32   H     H_    0.993831 0.855819 0.046738 0.222210
H33   H     H_    0.883857 0.098649 0.452841 0.272689
H34   H     H_    0.049184 0.286364 0.457439 0.152513
H35   H     H_    0.838503 0.953491 0.462813 0.200240
H36   H     H_    0.099236 0.206115 0.034707 0.207066
H37   H     H_    0.162107 0.120657 0.045776 0.227705
H38   H     H_    0.904393 0.787385 0.449240 0.268422
H39   H     H_    0.048868 0.885805 0.461749 0.193640
H40   H     H_    0.792277 0.886946 0.033597 0.213790
H41   H     H_    0.873117 0.034918 0.048543 0.242701
H42   H     H_    0.212634 0.116562 0.450180 0.264609
H43   H     H_    0.113153 0.161144 0.461169 0.195244
H44   H     H_    0.839603 0.966201 0.546386 0.231868
H45   H     H_    0.311139 0.079527 0.045895 0.173811
H46   H     H_    0.898546 0.115572 0.537359 0.211368
H47   H     H_    0.956813 0.839003 0.964035 0.200619
H48   H     H_    0.101727 0.885209 0.952235 0.277887
H49   H     H_    0.123704 0.162335 0.544927 0.227110
H50   H     H_    0.210633 0.100617 0.535112 0.207933
H51   H     H_    0.893395 0.054372 0.966268 0.199481
H52   H     H_    0.799089 0.912098 0.949072 0.266538
H53   H     H_    0.037401 0.873557 0.545412 0.237936
H54   H     H_    0.888591 0.789853 0.533752 0.211135
H55   H     H_    0.160973 0.108929 0.961967 0.194161
H56   H     H_    0.718998 0.761417 0.457566 0.133830
H57   H     H_    0.116862 0.208058 0.949789 0.265624
H58   H     H_    0.818533 0.335460 0.195540 0.354888
H59   H     H_    0.411844 0.190698 0.301871 0.364510
H60   H     H_    0.743942 0.535995 0.212272 0.360639
H61   H     H_    0.817297 0.214958 0.301151 0.392054
H62   H     H_    0.449417 0.201866 0.210631 0.372576
H63   H     H_    0.774144 0.574765 0.303908 0.361758
H64   H     H_    0.228233 0.808410 0.710841 0.377826
H65   H     H_    0.176475 0.393044 0.799894 0.365494
H66   H     H_    0.585222 0.767284 0.714480 0.371325
H67   H     H_    0.233000 0.941439 0.545967 0.168636
H68   H     H_    0.214081 0.808813 0.804099 0.370860
H69   H     H_    0.205248 0.451282 0.709946 0.374072
H70   H     H_    0.564118 0.769471 0.809978 0.360314
H71   H     H_    0.963116 0.242420 0.957237 0.160011
H72   H     H_    0.707114 0.767908 0.547266 0.170297
N1    N     N_3   0.038743 0.722447 0.137574 -0.479590
N2    N     N_3   0.720077 0.031541 0.861385 -0.486651
N3    N     N_3   0.894041 0.641684 0.628510 -0.532824
N4    N     N_3   0.322060 0.267601 0.867386 -0.490792
N5    N     N_3   0.061527 0.834141 0.050844 -0.595714
N6    N     N_3   0.812216 0.011450 0.447916 -0.597099
N7    N     N_3   0.173144 0.206111 0.050509 -0.541259
N8    N     N_3   0.991319 0.802046 0.445905 -0.511333
N9    N     N_3   0.788301 0.957901 0.050374 -0.626077
N10   N     N_3   0.197508 0.188241 0.446074 -0.509862
N11   N     N_3   0.825559 0.038448 0.551881 -0.541333
N12   N     N_3   0.663048 0.927488 0.367563 -0.537713
N13   N     N_3   0.014351 0.812996 0.948400 -0.596748
N14   N     N_3   0.209353 0.174330 0.550340 -0.539698
N15   N     N_3   0.812740 0.999096 0.947747 -0.574531
N16   N     N_3   0.961674 0.788632 0.549752 -0.622709
N17   N     N_3   0.188711 0.192936 0.946353 -0.513308
N18   N     N_3   0.255341 0.334843 0.129274 -0.497657
N19   N     N_3   0.047826 0.727123 0.366631 -0.489423
N20   N     N_3   0.632673 0.880662 0.126423 -0.533438
N21   N     N_3   0.269671 0.321905 0.367252 -0.489002
N22   N     N_3   0.734671 0.063164 0.632314 -0.493680
N23   N     N_3   0.928084 0.662875 0.868252 -0.542030
N24   N     N_3   0.330871 0.261132 0.630440 -0.493685
O1    O     O_R   0.460870 0.120930 0.805240 -0.442037
O2    O     O_R   0.120930 0.460870 0.194760 -0.442221
O3    O     O_R   0.539130 0.660060 0.305240 -0.416079
O4    O     O_R   0.339940 0.879070 0.194760 -0.413565
O5    O     O_R   0.498910 0.350470 0.801870 -0.545009
O6    O     O_R   0.851560 0.501090 0.698130 -0.476469
O7    O     O_R   0.649530 0.148440 0.801870 -0.508538
O8    O     O_R   0.498910 0.350470 0.698130 -0.541298
O9    O     O_R   0.851560 0.501090 0.801870 -0.484011
O10   O     O_R   0.649530 0.148440 0.698130 -0.543366
O11   O     O_R   0.350470 0.498910 0.301870 -0.543741
O12   O     O_R   0.660060 0.539130 0.694760 -0.415582
O13   O     O_R   0.501090 0.851560 0.198130 -0.475462
O14   O     O_R   0.148440 0.649530 0.301870 -0.546850
O15   O     O_R   0.350470 0.498910 0.198130 -0.540670
O16   O     O_R   0.501090 0.851560 0.301870 -0.478904
O17   O     O_R   0.148440 0.649530 0.198130 -0.502064
O18   O     O_3   0.666667 0.333333 0.750000 -0.304609
O19   O     O_3   0.333333 0.666667 0.250000 -0.306622
O20   O     O_2   0.786116 0.193809 0.115913 -0.296368
O21   O     O_2   0.979084 0.219672 0.143278 -0.235792
O22   O     O_3   0.873573 0.303136 0.199553 -0.448626
O23   O     O_R   0.879070 0.339940 0.805240 -0.415553
O24   O     O_2   0.232957 0.015904 0.364984 -0.266658
O25   O     O_2   0.409699 0.194222 0.399559 -0.282786
O26   O     O_3   0.426840 0.124925 0.311220 -0.461049
O27   O     O_2   0.780564 0.552475 0.118326 -0.345878
O28   O     O_2   0.783578 0.736432 0.146690 -0.292671
O29   O     O_3   0.674437 0.543427 0.201230 -0.467197
O30   O     O_2   0.984780 0.214860 0.367352 -0.284788
O31   O     O_2   0.807720 0.216667 0.400284 -0.295847
O32   O     O_3   0.877635 0.297894 0.311457 -0.453847
O33   O     O_2   0.429490 0.221435 0.117260 -0.307188
O34   O     O_R   0.460870 0.120930 0.694760 -0.438377
O35   O     O_2   0.255280 0.030972 0.143763 -0.230578
O36   O     O_3   0.447788 0.127640 0.199464 -0.466973
O37   O     O_2   0.788230 0.762435 0.365018 -0.272823
O38   O     O_2   0.780266 0.583555 0.401230 -0.284317
O39   O     O_3   0.695193 0.565896 0.312450 -0.466276
O40   O     O_2   0.219853 0.977188 0.643256 -0.267186
O41   O     O_2   0.197877 0.785956 0.615025 -0.304198
O42   O     O_3   0.307156 0.873198 0.698737 -0.456676
O43   O     O_2   0.188053 0.397293 0.898837 -0.286929
O44   O     O_2   0.003129 0.226686 0.864691 -0.241577
O45   O     O_R   0.660060 0.539130 0.805240 -0.414306
O46   O     O_3   0.120462 0.420005 0.811039 -0.464472
O47   O     O_2   0.752282 0.784342 0.643432 -0.272544
O48   O     O_2   0.574360 0.793070 0.616835 -0.288486
O49   O     O_3   0.562533 0.687626 0.700118 -0.461951
O50   O     O_2   0.219269 0.807575 0.901902 -0.296706
O51   O     O_2   0.215668 0.983598 0.868731 -0.287687
O52   O     O_3   0.296073 0.875104 0.812369 -0.465294
O53   O     O_2   0.032401 0.253226 0.644839 -0.254878
O54   O     O_2   0.220034 0.427904 0.616427 -0.297818
O55   O     O_3   0.129537 0.447481 0.699421 -0.465005
O56   O     O_R   0.879070 0.339940 0.694760 -0.454261
O57   O     O_2   0.582661 0.770849 0.907138 -0.320835
O58   O     O_2   0.760134 0.783179 0.866543 -0.310908
O59   O     O_3   0.559138 0.691419 0.816723 -0.467338
O60   O     O_R   0.120930 0.460870 0.305240 -0.434760
O61   O     O_R   0.539130 0.660060 0.194760 -0.408723
O62   O     O_R   0.339940 0.879070 0.305240 -0.452457
S1    S     S_3+6 0.903153 0.277976 0.141230 0.036596
S2    S     S_3+6 0.284741 0.918047 0.870300 0.010947
S3    S     S_3+6 0.102007 0.388175 0.641743 0.030146
S4    S     S_3+6 0.626027 0.709125 0.872469 -0.006192
S5    S     S_3+6 0.367910 0.083100 0.368474 0.028700
S6    S     S_3+6 0.710327 0.601566 0.143590 -0.004053
S7    S     S_3+6 0.919121 0.283806 0.369330 0.017521
S8    S     S_3+6 0.390356 0.102307 0.141474 0.038115
S9    S     S_3+6 0.714829 0.627938 0.369328 0.028226
S10   S     S_3+6 0.280018 0.903000 0.640763 0.029924
S11   S     S_3+6 0.077265 0.361461 0.868282 0.039810
S12   S     S_3+6 0.617090 0.717087 0.641797 0.029912

loop_
_geom_bond_atom_site_label_1
_geom_bond_atom_site_label_2
_ccdc_geom_bond_type
C3    C104  A    
H61   O32   S    
C92   C105  A    
O29   S6    S    
C35   C74   A    
C29   N17   S    
C84   S2    S    
C89   C102  A    
C45   C71   A    
H43   N10   S    
Cr4   O11   S    
O31   S7    D    
C19   C23   A    
C2    C56   S    
Cr5   O3    S    
C91   C104  A    
H7    N12   S    
H17   N21   S    
C58   C87   S    
H44   N11   S    
Cr6   O19   S    
C88   C101  A    
H58   O22   S    
C54   O9    A    
H36   N7    S    
C44   C64   A    
H19   N22   S    
C2    O61   A    
C39   N7    S    
C30   C38   A    
C22   C101  A    
O39   S9    S    
H9    N18   S    
H10   N18   S    
C18   C24   A    
H70   O59   S    
C37   N9    S    
C65   O10   A    
O49   S12   S    
C28   C68   A    
C8    C99   A    
C81   S10   S    
C108  H23   S    
C83   S3    S    
H53   N16   S    
C4    H45   S    
H55   N17   S    
C15   C68   A    
C61   C80   A    
H24   N24   S    
Cr6   O4    S    
H68   O52   S    
C4    C103  A    
C101  C106  A    
C33   C36   A    
O21   S1    D    
C90   S8    S    
C59   C89   A    
C86   S5    S    
H51   N15   S    
Cr5   O13   S    
C21   C64   S    
Cr1   O8    S    
C33   C72   A    
Cr6   O17   S    
H66   O49   S    
C76   O3    A    
O55   S3    S    
H39   N8    S    
C49   N21   S    
C6    C94   A    
C40   C67   A    
C98   O14   A    
C1    O5    A    
O47   S12   D    
C9    C97   A    
C6    C107  A    
C49   C75   A    
C47   N12   S    
C44   C70   A    
H16   N21   S    
C18   C97   A    
C53   C88   A    
C52   C79   A    
C86   C100  A    
Cr2   O45   S    
C14   C93   A    
C29   C69   A    
C32   O7    A    
O59   S4    S    
H59   O26   S    
C82   S4    S    
O52   S2    S    
O50   S2    D    
O44   S11   D    
C31   C71   A    
C28   C34   A    
C3    H34   S    
H20   N23   S    
H31   N5    S    
H57   N17   S    
O40   S10   D    
C13   O2    A    
O58   S4    D    
C19   C72   A    
C15   C20   A    
H14   N20   S    
O32   S7    S    
C15   C94   A    
C80   C93   A    
C30   N16   S    
C65   O34   A    
C26   C105  A    
C54   O23   A    
O38   S9    D    
C30   C70   A    
Cr1   O18   S    
C41   C68   A    
C13   C53   S    
C16   C26   A    
C48   C53   A    
C7    C93   A    
C105  C108  A    
C81   C94   A    
O57   S4    D    
O30   S7    D    
O54   S3    D    
H47   N13   S    
C6    H67   S    
C52   C56   A    
O26   S5    S    
H26   N2    S    
C48   C74   A    
C42   C66   A    
C43   O12   A    
C38   N8    S    
C23   C102  A    
Cr3   O56   S    
C48   N1    S    
Cr4   O60   S    
C32   O1    A    
C19   C99   A    
H62   O36   S    
O51   S2    D    
C38   C78   A    
Cr1   O34   S    
C8    H72   S    
C46   N24   S    
H28   N3    S    
C37   C77   A    
H48   N13   S    
C45   C63   A    
C42   C69   A    
C98   O60   A    
Cr4   O19   S    
C25   C78   A    
C31   C37   A    
C52   N18   S    
O41   S10   D    
C87   O13   A    
Cr2   O6    S    
C88   S1    S    
C36   N10   S    
C64   C83   A    
C85   C99   A    
C36   C75   A    
O42   S10   S    
C44   N3    S    
C66   C82   A    
C60   C81   A    
C42   N4    S    
C40   C61   A    
C12   O16   A    
C20   C100  A    
C10   C96   A    
H33   N6    S    
C14   C67   A    
H63   O39   S    
C29   C39   A    
C1    C66   S    
C7    C106  A    
C27   N13   S    
C25   C104  A    
C17   C96   A    
H8    N12   S    
C91   S7    S    
Cr2   O9    S    
C58   C90   A    
C47   C73   A    
C21   O56   A    
C5    H56   S    
C51   C57   A    
C21   O6    A    
C50   N20   S    
C50   C58   A    
H21   N23   S    
C46   C62   A    
H49   N14   S    
H18   N22   S    
O53   S3    D    
O20   S1    D    
H22   N24   S    
H32   N5    S    
C43   O8    A    
Cr3   O10   S    
C84   C97   A    
H25   N2    S    
Cr2   O12   S    
H6    N1    S    
Cr4   O2    S    
C11   C108  A    
C85   S12   S    
C47   C55   A    
Cr5   O19   S    
C11   C95   A    
C18   C71   A    
C5    C102  A    
C100  C107  A    
C35   N5    S    
C82   C95   A    
C57   C91   A    
O46   S11   S    
H42   N10   S    
C9    H2    S    
C46   C72   A    
O22   S1    S    
C7    H71   S    
Cr3   O18   S    
C16   C69   A    
C12   O62   A    
C41   C60   A    
C23   C75   A    
C87   O4    A    
Cr6   O62   S    
O33   S8    D    
C13   O17   A    
C5    C8    A    
O43   S11   D    
C51   N19   S    
C45   N2    S    
O28   S6    D    
H46   N11   S    
C54   C61   S    
C76   O11   A    
C32   C63   S    
C60   C65   S    
C63   C84   A    
O25   S5    D    
C89   S9    S    
C26   C79   A    
C49   C59   A    
H38   N8    S    
C106  H1    S    
Cr5   O61   S    
C24   C103  A    
C27   C35   A    
H69   O55   S    
C14   C22   A    
C41   N22   S    
C34   N6    S    
O27   S6    D    
H13   N19   S    
C51   C78   A    
C17   C25   A    
O37   S9    D    
C10   H3    S    
Cr2   O18   S    
H60   O29   S    
C28   N11   S    
H15   N20   S    
C16   C95   A    
H37   N7    S    
Cr5   O16   S    
H40   N9    S    
H30   N4    S    
C55   C86   A    
C3    C10   A    
C83   C96   A    
C40   N23   S    
H11   N19   S    
Cr3   O23   S    
H29   N4    S    
H54   N16   S    
C20   C73   A    
O35   S8    D    
Cr1   O5    S    
O36   S8    S    
C92   S6    S    
C57   C98   S    
C90   C103  A    
C31   N15   S    
C12   C55   S    
C27   C67   A    
C33   N14   S    
C34   C73   A    
H35   N6    S    
C1    O45   A    
C24   C77   A    
C56   C92   A    
C107  H12   S    
H64   O42   S    
C43   C62   S    
C80   S11   S    
Cr4   O15   S    
C50   C77   A    
O24   S5    D    
H27   N3    S    
C22   C74   A    
C62   C85   A    
H65   O46   S    
O48   S12   D    
Cr3   O7    S    
H5    N1    S    
Cr6   O14   S    
C4    C9    A    
Cr1   O1    S    
C11   H4    S    
C17   C70   A    
C59   C76   S    
H52   N15   S    
H41   N9    S    
H50   N14   S    
C2    O15   A    
C39   C79   A    
