data_mof_unit_31759.cif
_audit_creation_date              2012-12-10T17:52:23-0500
_audit_creation_method            fapswitch 2.2
_symmetry_space_group_name_H-M    P1
_symmetry_Int_Tables_number       1
_space_group_crystal_system       triclinic
_cell_length_a                    19.070715
_cell_length_b                    10.714703
_cell_length_c                    9.948768
_cell_angle_alpha                 88.293163
_cell_angle_beta                  89.055315
_cell_angle_gamma                 93.303347
_cell_volume                      2028.2860851

loop_
_atom_site_label
_atom_site_type_symbol
_atom_type_description
_atom_site_fract_x
_atom_site_fract_y
_atom_site_fract_z
_atom_type_partial_charge
C1    C     C_R   0.499216 0.259428 0.503292 0.929192
C2    C     C_R   0.291081 0.527269 0.504861 -0.083466
C3    C     C_R   0.932776 0.578434 0.510158 0.276064
C4    C     C_R   0.074436 0.596066 0.515125 0.334027
C5    C     C_R   0.818472 0.523401 0.623690 -0.155397
C6    C     C_R   0.746372 0.500978 0.620219 -0.194031
C7    C     C_R   0.711061 0.513811 0.498614 -0.030768
C8    C     C_R   0.748931 0.547436 0.379801 -0.196813
C9    C     C_R   0.821371 0.570268 0.383329 -0.153177
C10   C     C_R   0.856491 0.558907 0.505571 0.090052
C11   C     C_R   0.434146 0.098837 0.735588 -0.195743
C12   C     C_R   0.365602 0.504001 0.501199 0.907390
C13   C     C_R   0.388265 0.026558 0.821048 -0.135849
C14   C     C_R   0.368330 0.904594 0.789128 -0.106320
C15   C     C_R   0.398559 0.852368 0.677439 -0.143693
C16   C     C_R   0.447814 0.923584 0.593972 0.102800
C17   C     C_R   0.459713 0.051827 0.613682 0.108994
C18   C     C_R   0.497281 0.124983 0.510604 -0.102469
C19   C     C_R   0.528888 0.068432 0.402348 -0.167915
C20   C     C_R   0.525795 0.940968 0.395933 -0.200036
C21   C     C_R   0.487197 0.869229 0.493057 -0.108118
C22   C     C_R   0.380930 0.381584 0.138533 0.389995
C23   C     C_R   0.496135 0.738586 0.497882 0.859237
C24   C     C_R   0.319736 0.360147 0.065335 -0.207994
C25   C     C_R   0.324168 0.354491 0.927580 -0.238499
C26   C     C_R   0.388065 0.382715 0.863570 -0.185193
C27   C     C_R   0.444265 0.442294 0.930141 0.117724
C28   C     C_R   0.443115 0.441169 0.074555 0.091265
C29   C     C_R   0.553620 0.555242 0.067946 -0.119340
C30   C     C_R   0.553534 0.555350 0.925207 -0.097942
C31   C     C_R   0.634625 0.501554 0.499101 0.852328
C32   C     C_R   0.260069 0.563831 0.625163 -0.254186
C33   C     C_R   0.190404 0.594672 0.629176 0.298419
C34   C     C_R   0.150322 0.585862 0.511635 0.013885
C35   C     C_R   0.182117 0.552783 0.390600 -0.192163
C36   C     C_R   0.252087 0.524253 0.387130 -0.150104
H1    H     H_    0.290275 0.571366 0.716115 0.188552
H2    H     H_    0.452650 0.186437 0.773347 0.170943
H3    H     H_    0.368684 0.065149 0.912819 0.170281
H4    H     H_    0.331618 0.848910 0.853624 0.165830
H5    H     H_    0.383085 0.756287 0.656795 0.148574
H6    H     H_    0.555201 0.898251 0.317091 0.162304
H7    H     H_    0.597384 0.600951 0.118428 0.136196
H8    H     H_    0.271670 0.322383 0.114753 0.191331
H9    H     H_    0.279957 0.316446 0.871930 0.189800
H10   H     H_    0.393125 0.350797 0.764061 0.209405
H11   H     H_    0.597286 0.601200 0.869127 0.144849
H12   H     H_    0.152303 0.545043 0.299167 0.177733
H13   H     H_    0.275367 0.499291 0.292623 0.171365
H14   H     H_    0.844229 0.513412 0.719295 0.156327
H15   H     H_    0.718267 0.475030 0.713323 0.156811
H16   H     H_    0.722547 0.558660 0.284983 0.150262
H17   H     H_    0.849715 0.596411 0.290595 0.155450
H18   H     H_    0.558269 0.123005 0.324542 0.165853
N1    N     N_R   0.040294 0.630825 0.402737 -0.162689
N2    N     N_R   0.970563 0.622514 0.400413 -0.167385
N3    N     N_R   0.967011 0.545404 0.622787 -0.160379
N4    N     N_R   0.036559 0.553333 0.624893 -0.107098
N5    N     N_R   0.499340 0.498800 0.142780 -0.110386
N6    N     N_R   0.499320 0.498720 0.857170 -0.112738
O1    O     O_R   0.500000 0.316780 0.614690 -0.660393
O2    O     O_R   0.499990 0.316750 0.385360 -0.549088
O3    O     O_R   0.398140 0.500000 0.614700 -0.658103
O4    O     O_R   0.398130 0.499970 0.385370 -0.585718
O5    O     O_R   0.500010 0.683250 0.614640 -0.614962
O6    O     O_R   0.500000 0.683220 0.385310 -0.617665
O7    O     O_R   0.601870 0.500030 0.614630 -0.620638
O8    O     O_R   0.601860 0.500000 0.385300 -0.627249
Zn1   Zn    Zn3+2 0.500000 0.500020 0.653130 0.935607
Zn2   Zn    Zn3+2 0.500000 0.499980 0.346870 0.986484
Cl1   Cl    Cl    0.378929 0.269430 0.270407 -0.624526
Br1   Br    Br    0.155112 0.654100 0.796259 -0.507100

loop_
_geom_bond_atom_site_label_1
_geom_bond_atom_site_label_2
_ccdc_geom_bond_type
O1    Zn1   S    
C11   H2    S    
C20   H6    S    
N1    N2    A    
C16   C21   A    
O4    Zn2   S    
C6    H15   S    
C29   C30   A    
C9    C10   A    
C30   H11   S    
C35   C36   A    
O3    Zn1   S    
C29   H7    S    
C2    C12   S    
C32   C33   A    
C23   O5    A    
C17   C18   A    
C1    C18   S    
C5    C10   A    
C3    C10   S    
C22   C28   A    
C32   H1    S    
C1    O2    A    
C31   O7    A    
C5    C6    A    
C11   C13   A    
C15   H5    S    
N3    N4    A    
O6    Zn2   S    
N6    Zn1   S    
O5    Zn1   S    
C35   H12   S    
C3    N3    A    
C23   O6    A    
C2    C32   A    
C24   H8    S    
C33   C34   A    
C6    C7    A    
C4    C34   S    
C27   N6    A    
C21   C23   S    
C4    N1    A    
C26   C27   A    
C31   O8    A    
C12   O4    A    
C22   C24   A    
C5    H14   S    
C13   H3    S    
C9    H17   S    
C26   H10   S    
N5    Zn2   S    
C14   H4    S    
C15   C16   A    
C20   C21   A    
C25   H9    S    
C22   Cl1   S    
C7    C8    A    
C7    C31   S    
C24   C25   A    
O2    Zn2   S    
O8    Zn2   S    
C34   C35   A    
C3    N2    A    
C28   N5    A    
C2    C36   A    
C27   C28   A    
C12   O3    A    
C8    H16   S    
C14   C15   A    
C18   C19   A    
C19   H18   S    
C33   Br1   S    
C4    N4    A    
C25   C26   A    
C13   C14   A    
C11   C17   A    
C36   H13   S    
C19   C20   A    
C16   C17   A    
C30   N6    A    
C8    C9    A    
O7    Zn1   S    
C29   N5    A    
C1    O1    A    
