data_mof_unit_16780.cif
_audit_creation_date              2012-12-10T17:17:25-0500
_audit_creation_method            fapswitch 2.2
_symmetry_space_group_name_H-M    P1
_symmetry_Int_Tables_number       1
_space_group_crystal_system       triclinic
_cell_length_a                    10.327112
_cell_length_b                    10.883067
_cell_length_c                    13.329569
_cell_angle_alpha                 92.764434
_cell_angle_beta                  111.824886
_cell_angle_gamma                 95.788859
_cell_volume                      1377.67478874

loop_
_atom_site_label
_atom_site_type_symbol
_atom_type_description
_atom_site_fract_x
_atom_site_fract_y
_atom_site_fract_z
_atom_type_partial_charge
C1    C     C_R   0.044452 0.730930 0.483964 0.799237
C2    C     C_R   0.434435 0.518194 0.986762 0.083221
C3    C     C_R   0.361998 0.517607 0.874058 -0.105727
C4    C     C_R   0.567869 0.476003 0.024627 -0.062653
C5    C     C_R   0.631627 0.450387 0.950274 -0.020179
C6    C     C_R   0.561438 0.467311 0.841528 0.102352
C7    C     C_R   0.446193 0.532574 0.813386 0.366918
C8    C     C_R   0.636342 0.451528 0.132013 0.287531
C9    C     C_R   0.849268 0.434424 0.097631 0.159688
C10   C     C_R   0.220604 0.540768 0.831499 -0.173993
C11   C     C_2   0.049943 0.856777 0.447308 0.065839
C12   C     C_R   0.138069 0.516910 0.711834 0.857656
C13   C     C_2   0.941429 0.920871 0.435162 0.234409
C14   C     C_2   0.899655 0.132762 0.491484 0.248090
C15   C     C_2   0.978302 0.055631 0.464682 -0.281918
C16   C     C_2   0.422136 0.520672 0.457116 0.317873
C17   C     C_2   0.569626 0.484776 0.485192 0.008405
C18   C     C_R   0.945890 0.267183 0.504101 0.811380
C19   C     C_R   0.862479 0.480900 0.289522 0.901520
C20   C     C_R   0.768206 0.419478 0.987554 -0.140657
C21   C     C_R   0.783321 0.455649 0.172324 -0.227731
C22   C     C_R   0.167989 0.596521 0.904903 0.143138
C23   C     C_R   0.261297 0.637362 0.011013 0.184505
C24   C     C_R   0.388135 0.588658 0.054670 -0.080402
H1    H     H_    0.583603 0.395116 0.456893 0.224141
H2    H     H_    0.818588 0.398363 0.932051 0.203155
H3    H     H_    0.458156 0.619865 0.137095 0.184522
H4    H     H_    0.079436 0.094201 0.465079 0.246841
N1    N     N_2   0.313640 0.446500 0.454900 -0.005014
N2    N     N_2   0.686360 0.553430 0.545150 0.018421
O1    O     O_R   0.936910 0.692950 0.509080 -0.556410
O2    O     O_R   0.138320 0.658600 0.480130 -0.543988
O3    O     O_R   0.002900 0.525670 0.675280 -0.563799
O4    O     O_R   0.204310 0.491320 0.646330 -0.608930
O5    O     O_R   0.861680 0.341400 0.519870 -0.554462
O6    O     O_R   0.063090 0.307050 0.490920 -0.563378
O7    O     O_R   0.795690 0.508680 0.353670 -0.590145
O8    O     O_R   0.997100 0.474330 0.324720 -0.568715
Zn1   Zn    Zn3+2 0.865520 0.522940 0.519330 1.145998
Zn2   Zn    Zn3+2 0.134480 0.477060 0.480670 1.143010
I1    I     I_    0.066585 0.425407 0.132586 -0.150577
I2    I     I_    0.767259 0.868239 0.283870 -0.090997
S1    S     S_3+6 0.746092 0.079172 0.515517 0.139580
O9    O     O_2   0.634478 0.011153 0.415250 -0.158911
O10   O     O_2   0.787240 0.994937 0.604497 -0.240594
O11   O     O_3   0.676222 0.194963 0.555774 -0.507163
H5    H     H_    0.592537 0.153343 0.565609 0.426151
S2    S     S_3+6 0.133630 0.881510 0.354718 0.102586
O12   O     O_2   0.084620 0.988053 0.289191 -0.260692
O13   O     O_2   0.289774 0.907841 0.415969 -0.143299
O14   O     O_3   0.090429 0.752567 0.268546 -0.518056
H6    H     H_    0.991926 0.754936 0.218787 0.358297
I3    I     I_    0.372080 0.658873 0.351958 0.105765
S3    S     S_3+6 0.687987 0.710549 0.569799 0.212203
O15   O     O_2   0.682570 0.770961 0.470195 -0.209209
O16   O     O_2   0.565120 0.739960 0.596043 -0.194261
O17   O     O_3   0.839067 0.769057 0.671189 -0.471315
H7    H     H_    0.811567 0.818172 0.722809 0.416198
S4    S     S_3+6 0.301765 0.289096 0.417357 0.158298
O18   O     O_2   0.395272 0.258979 0.358685 -0.208649
O19   O     O_2   0.335556 0.218944 0.516346 -0.270546
O20   O     O_3   0.135339 0.240149 0.332924 -0.484109
H8    H     H_    0.141112 0.211361 0.263324 0.413737
I4    I     I_    0.613288 0.382719 0.719987 -0.196020
S5    S     S_3+6 0.537147 0.359462 0.191038 0.076150
O21   O     O_2   0.626848 0.277444 0.268310 -0.251181
O22   O     O_2   0.477975 0.442588 0.250769 -0.298692
O23   O     O_3   0.402693 0.270274 0.093280 -0.471266
H9    H     H_    0.447737 0.216117 0.057624 0.368577
I5    I     I_    0.955617 0.623561 0.868684 -0.167643
I6    I     I_    0.234946 0.799408 0.092670 -0.012380
S6    S     S_3+6 0.482020 0.690750 0.794885 0.080427
O24   O     O_2   0.467479 0.772146 0.883697 -0.299762
O25   O     O_2   0.630391 0.718253 0.801421 -0.217415
O26   O     O_3   0.368043 0.724930 0.675154 -0.475233
H10   H     H_    0.294721 0.763313 0.692140 0.350254

loop_
_geom_bond_atom_site_label_1
_geom_bond_atom_site_label_2
_ccdc_geom_bond_type
C2    C4    A    
C23   C24   A    
O26   H10   S    
C6    C7    A    
C19   O8    A    
N2    S3    S    
C18   O5    A    
C14   C18   S    
C9    C20   A    
C9    I1    S    
C14   C15   D    
C24   H3    S    
C4    C8    A    
S1    O9    D    
S5    O23   S    
C17   H1    S    
C14   S1    S    
S2    O13   D    
C2    C3    A    
O17   H7    S    
S4    O18   D    
O7    Zn1   S    
C3    C10   A    
O3    Zn1   S    
C10   C22   A    
O8    Zn2   S    
C17   N2    D    
C11   C13   D    
C9    C21   A    
C15   H4    S    
O20   H8    S    
C10   C12   S    
S2    O14   S    
S6    O26   S    
O4    Zn2   S    
C5    C6    A    
N1    Zn2   S    
C16   I3    S    
S2    O12   D    
C19   C21   S    
O1    Zn1   S    
N2    Zn1   S    
C8    C21   A    
C3    C7    A    
C13   C15   S    
C2    C24   A    
O5    Zn1   S    
O23   H9    S    
S1    O11   S    
S3    O16   D    
S4    O19   D    
C8    S5    S    
C16   C17   S    
C12   O4    A    
O14   H6    S    
C23   I6    S    
C1    O1    A    
O2    Zn2   S    
C16   N1    D    
S6    O24   D    
S6    O25   D    
S5    O21   D    
O11   H5    S    
C6    I4    S    
C7    S6    S    
C5    C20   A    
C22   C23   A    
C13   I2    S    
O6    Zn2   S    
C11   S2    S    
C19   O7    A    
S5    O22   D    
C12   O3    A    
S3    O15   D    
C18   O6    A    
S1    O10   D    
C22   I5    S    
C1    O2    A    
N1    S4    S    
C20   H2    S    
C4    C5    A    
S4    O20   S    
S3    O17   S    
C1    C11   S    
