data_mof_unit_47200.cif
_audit_creation_date              2012-10-26T20:19:32-0400
_audit_creation_method            fapswitch 2.2
_symmetry_space_group_name_H-M    P1
_symmetry_Int_Tables_number       1
_space_group_crystal_system       triclinic
_cell_length_a                    10.769998
_cell_length_b                    10.792654
_cell_length_c                    9.599065
_cell_angle_alpha                 90.116806
_cell_angle_beta                  89.922883
_cell_angle_gamma                 93.621713
_cell_volume                      1113.53371388

loop_
_atom_site_label
_atom_site_type_symbol
_atom_type_description
_atom_site_fract_x
_atom_site_fract_y
_atom_site_fract_z
_atom_type_partial_charge
C1    C     C_R   0.492823 0.262445 0.499890 0.536778
C2    C     C_R   0.397136 0.060209 0.589861 0.031321
C3    C     C_R   0.479830 0.127974 0.498955 -0.001883
C4    C     C_R   0.259980 0.497036 0.499865 0.526537
C5    C     C_R   0.551945 0.066732 0.403287 -0.150154
C6    C     C_R   0.549689 0.939066 0.402182 -0.128529
C7    C     C_R   0.478405 0.869819 0.499748 -0.001565
C8    C     C_R   0.667021 0.665977 0.144255 -0.093845
C9    C     C_R   0.748768 0.747167 0.071969 -0.173106
C10   C     C_R   0.748740 0.747080 0.928310 -0.181918
C11   C     C_R   0.666784 0.665954 0.856193 -0.093358
C12   C     C_3   0.879099 0.505323 0.499165 0.031403
C13   C     C_R   0.582083 0.581566 0.925367 0.153732
C14   C     C_R   0.582133 0.581532 0.074890 0.149616
C15   C     C_R   0.421475 0.422595 0.073856 -0.003329
C16   C     C_R   0.489866 0.736365 0.500113 0.577578
C17   C     C_R   0.421466 0.422682 0.925956 -0.002098
C18   C     C_R   0.740436 0.503708 0.499820 0.593721
C19   C     C_3   0.062257 0.378877 0.566859 -0.257771
C20   C     C_3   0.919221 0.385156 0.571549 -0.274972
C21   C     C_3   0.083606 0.611478 0.584314 -0.189983
C22   C     C_3   0.072360 0.508307 0.348226 -0.227873
C23   C     C_3   0.940821 0.619782 0.580753 0.142689
C24   C     C_3   0.122359 0.498358 0.499579 0.004995
C25   C     C_3   0.929891 0.503577 0.347599 -0.217168
C26   C     C_R   0.310250 0.119179 0.673921 -0.106207
C27   C     C_R   0.230442 0.050463 0.763040 -0.097139
C28   C     C_R   0.233843 0.922071 0.768548 -0.074493
C29   C     C_R   0.315755 0.861463 0.683478 -0.100181
C30   C     C_R   0.398270 0.929058 0.592525 0.020875
Cu1   Cu    Cu3+1 0.499990 0.499990 0.640660 0.919546
Cu2   Cu    Cu3+1 0.500010 0.500010 0.359340 0.937063
H1    H     H_    0.098215 0.367681 0.674470 0.121894
H2    H     H_    0.357088 0.359161 0.129004 0.113350
H3    H     H_    0.086868 0.296187 0.505678 0.136418
H4    H     H_    0.674442 0.673492 0.254205 0.220371
H5    H     H_    0.812502 0.810750 0.128084 0.175675
H6    H     H_    0.812580 0.810419 0.872029 0.157062
H7    H     H_    0.673612 0.673205 0.746458 0.208976
H8    H     H_    0.356953 0.359427 0.870793 0.103939
H9    H     H_    0.874621 0.301490 0.519487 0.137211
H10   H     H_    0.887717 0.383052 0.682061 0.130901
H11   H     H_    0.114043 0.603816 0.694615 0.092451
H12   H     H_    0.897474 0.581878 0.285559 0.182868
H13   H     H_    0.906169 0.615259 0.690016 0.101171
H14   H     H_    0.109512 0.596774 0.299944 0.166256
H15   H     H_    0.103811 0.430723 0.283074 0.123516
H16   H     H_    0.893916 0.417006 0.293994 0.119558
H17   H     H_    0.737429 0.847552 0.587871 0.349473
H18   H     H_    0.132988 0.696707 0.541465 0.172939
H19   H     H_    0.612986 0.118196 0.331070 0.138219
H20   H     H_    0.300140 0.217985 0.669045 0.119428
H21   H     H_    0.164524 0.096952 0.826724 0.110653
H22   H     H_    0.170737 0.868819 0.836778 0.128512
H23   H     H_    0.310682 0.761484 0.688021 0.134836
H24   H     H_    0.608564 0.894387 0.328264 0.166943
N1    N     N_R   0.501200 0.501210 0.147910 -0.248302
N2    N     N_R   0.501250 0.501290 0.852040 -0.247471
O1    O     O_R   0.499990 0.319640 0.618810 -0.503478
O2    O     O_2   0.956985 0.792431 0.372164 -0.304730
O3    O     O_3   0.752620 0.784888 0.515200 -0.564176
O4    O     O_R   0.500000 0.319660 0.381240 -0.504159
O5    O     O_R   0.317680 0.499970 0.618790 -0.525924
O6    O     O_R   0.317700 0.499990 0.381210 -0.509348
O7    O     O_R   0.500000 0.680340 0.618760 -0.522328
O8    O     O_R   0.500010 0.680360 0.381190 -0.505260
O9    O     O_R   0.682300 0.500010 0.618790 -0.518405
O10   O     O_R   0.682320 0.500030 0.381210 -0.516051
O11   O     O_2   0.966064 0.867798 0.611758 -0.326988
S1    S     S_3+6 0.906212 0.770673 0.516495 -0.066284

loop_
_geom_bond_atom_site_label_1
_geom_bond_atom_site_label_2
_ccdc_geom_bond_type
O3    S1    S    
C20   H10   S    
C27   H21   S    
C6    C7    A    
C23   H13   S    
C26   H20   S    
C11   C13   A    
C9    C10   A    
C4    O6    A    
C15   H2    S    
C29   H23   S    
C19   C20   S    
C25   H16   S    
O2    S1    D    
C12   C25   S    
C10   H6    S    
C1    O4    A    
C12   C20   S    
C9    H5    S    
C22   H15   S    
Cu2   O4    S    
C2    C26   A    
C7    C30   A    
C19   H3    S    
C13   C14   A    
C17   N2    A    
C11   H7    S    
C15   N1    A    
C12   C23   S    
Cu2   O6    S    
C26   C27   A    
C29   C30   A    
Cu2   N1    S    
C8    C14   A    
Cu1   N2    S    
C4    O5    A    
C28   C29   A    
C22   H14   S    
C20   H9    S    
C2    C3    A    
O11   S1    D    
C1    O1    A    
C21   C23   S    
C8    H4    S    
C5    C6    A    
C4    C24   S    
Cu2   O10   S    
C22   C24   S    
C16   O8    A    
C10   C11   A    
Cu1   O9    S    
C18   O10   A    
Cu1   O1    S    
Cu1   O5    S    
H17   O3    S    
C25   H12   S    
Cu2   O8    S    
C19   H1    S    
C21   C24   S    
C12   C18   S    
C27   C28   A    
C15   C17   A    
C14   N1    A    
Cu1   O7    S    
C7    C16   S    
C2    C30   A    
C28   H22   S    
C16   O7    A    
C21   H18   S    
C3    C5    A    
C18   O9    A    
C21   H11   S    
C19   C24   S    
C22   C25   S    
Cu1   Cu2   S    
C5    H19   S    
C13   N2    A    
C6    H24   S    
C8    C9    A    
C1    C3    S    
C17   H8    S    
C23   S1    S    
