data_mof_unit_47571.cif
_audit_creation_date              2012-12-10T20:41:02-0500
_audit_creation_method            fapswitch 2.2
_symmetry_space_group_name_H-M    P1
_symmetry_Int_Tables_number       1
_space_group_crystal_system       triclinic
_cell_length_a                    27.735536
_cell_length_b                    10.671118
_cell_length_c                    9.851595
_cell_angle_alpha                 90.308389
_cell_angle_beta                  89.85316
_cell_angle_gamma                 89.984837
_cell_volume                      2915.71654502

loop_
_atom_site_label
_atom_site_type_symbol
_atom_type_description
_atom_site_fract_x
_atom_site_fract_y
_atom_site_fract_z
_atom_type_partial_charge
C1    C     C_R   0.499911 0.260267 0.499521 0.889632
C2    C     C_R   0.974598 0.391705 0.546969 0.046411
C3    C     C_R   0.974611 0.620698 0.510099 0.046399
C4    C     C_R   0.406005 0.500110 0.500163 0.873357
C5    C     C_R   0.949381 0.506325 0.529508 0.071299
C6    C     C_R   0.947782 0.282053 0.575143 -0.215759
C7    C     C_R   0.897826 0.283539 0.577558 -0.136484
C8    C     C_R   0.872734 0.394351 0.553011 -0.022825
C9    C     C_R   0.898300 0.506350 0.530386 -0.051619
C10   C     C_R   0.872655 0.618147 0.507527 -0.023251
C11   C     C_R   0.822245 0.615325 0.504837 0.509987
C12   C     C_R   0.278081 0.492531 0.625135 -0.103548
C13   C     C_R   0.822334 0.395914 0.550406 0.507992
C14   C     C_R   0.724810 0.444529 0.406625 -0.097104
C15   C     C_R   0.674551 0.441281 0.396970 0.149325
C16   C     C_R   0.500604 0.739840 0.499913 0.892478
C17   C     C_R   0.669791 0.557312 0.611204 -0.262343
C18   C     C_R   0.719656 0.559593 0.618962 -0.097681
C19   C     C_R   0.747104 0.503304 0.516866 0.269943
C20   C     C_R   0.025522 0.390250 0.535940 0.046740
C21   C     C_R   0.050817 0.505169 0.521704 0.070614
C22   C     C_R   0.025695 0.620859 0.512863 0.046603
C23   C     C_R   0.252938 0.502023 0.503045 0.325543
C24   C     C_R   0.052193 0.277171 0.536424 -0.214673
C25   C     C_R   0.102731 0.731241 0.503101 -0.135248
C26   C     C_R   0.947657 0.731051 0.486445 -0.215019
C27   C     C_R   0.897687 0.729531 0.485425 -0.136362
C28   C     C_R   0.593969 0.498609 0.499761 0.878623
C29   C     C_R   0.052774 0.733108 0.507016 -0.214499
C30   C     C_R   0.531581 0.065193 0.586750 0.074564
C31   C     C_R   0.502365 0.128629 0.495748 -0.093400
C32   C     C_R   0.479476 0.063910 0.390185 -0.212593
C33   C     C_R   0.479738 0.934658 0.390565 -0.209151
C34   C     C_R   0.101859 0.504346 0.515852 -0.051719
C35   C     C_R   0.503213 0.871706 0.496000 -0.125424
C36   C     C_R   0.532737 0.937252 0.585602 0.128422
C37   C     C_3   0.538567 0.930607 0.736259 -0.042513
C38   C     C_3   0.536053 0.073494 0.737610 -0.464308
C39   C     C_R   0.484129 0.397506 0.070800 0.223738
C40   C     C_R   0.177663 0.391498 0.514021 0.504807
C41   C     C_R   0.519617 0.596389 0.072493 -0.131197
C42   C     C_R   0.519511 0.596387 0.928596 -0.140307
C43   C     C_R   0.484124 0.397548 0.928103 0.218398
C44   C     C_3   0.434797 0.342463 0.922425 -0.505139
C45   C     C_R   0.127288 0.390144 0.519856 -0.021915
C46   C     C_3   0.434828 0.342211 0.076506 -0.505623
C47   C     C_R   0.177986 0.614707 0.500414 0.505272
C48   C     C_R   0.277630 0.510891 0.379724 -0.100067
C49   C     C_R   0.327742 0.509984 0.378406 -0.215750
C50   C     C_R   0.328121 0.492085 0.624258 -0.209626
C51   C     C_3   0.588049 0.878780 0.775829 -0.875394
C52   C     C_3   0.652053 0.372612 0.278811 -0.853135
C53   C     C_R   0.102092 0.277435 0.528921 -0.135620
C54   C     C_R   0.127603 0.617705 0.505860 -0.022184
C55   C     C_R   0.353322 0.500597 0.500832 -0.041523
C56   C     C_R   0.646717 0.499166 0.500809 -0.053834
H1    H     H_    0.346938 0.485036 0.719994 0.153390
H2    H     H_    0.258746 0.485827 0.720480 0.135676
H3    H     H_    0.569857 0.121356 0.769204 0.214632
H4    H     H_    0.534723 0.675279 0.127061 0.155852
H5    H     H_    0.534294 0.675176 0.875026 0.155324
H6    H     H_    0.407874 0.407840 0.878788 0.214017
H7    H     H_    0.434800 0.246849 0.877205 0.198767
H8    H     H_    0.407831 0.407150 0.121895 0.215438
H9    H     H_    0.434969 0.246357 0.119872 0.196116
H10   H     H_    0.120861 0.188367 0.529954 0.190478
H11   H     H_    0.747012 0.401167 0.328816 0.142983
H12   H     H_    0.257941 0.518301 0.285312 0.136505
H13   H     H_    0.878925 0.196806 0.598142 0.191107
H14   H     H_    0.035638 0.185983 0.539289 0.138179
H15   H     H_    0.346336 0.517125 0.281977 0.154980
H16   H     H_    0.649182 0.601804 0.691617 0.164757
H17   H     H_    0.459062 0.112569 0.313113 0.156915
H18   H     H_    0.617720 0.932536 0.727287 0.263052
H19   H     H_    0.592291 0.883796 0.887737 0.243295
H20   H     H_    0.591167 0.779627 0.742528 0.238159
H21   H     H_    0.502785 0.110084 0.786943 0.182995
H22   H     H_    0.679559 0.323104 0.216312 0.232972
H23   H     H_    0.121807 0.819710 0.498015 0.190839
H24   H     H_    0.626161 0.301318 0.316406 0.243378
H25   H     H_    0.633244 0.439920 0.211705 0.256125
H26   H     H_    0.964240 0.193301 0.598093 0.140525
H27   H     H_    0.963957 0.820256 0.464679 0.140153
H28   H     H_    0.878729 0.816418 0.466165 0.191326
H29   H     H_    0.737064 0.604702 0.704504 0.152054
H30   H     H_    0.036600 0.824815 0.507782 0.138057
H31   H     H_    0.459378 0.884544 0.313775 0.167688
H32   H     H_    0.507658 0.884837 0.788314 0.174340
N1    N     N_R   0.201667 0.502719 0.504767 -0.359571
N2    N     N_R   0.798377 0.505091 0.525161 -0.352718
N3    N     N_R   0.499670 0.499140 0.142800 -0.110493
N4    N     N_R   0.499670 0.499180 0.857150 -0.107325
O1    O     O_R   0.500010 0.316790 0.614690 -0.618234
O2    O     O_R   0.571250 0.500000 0.614690 -0.622333
O3    O     O_R   0.571240 0.499960 0.385340 -0.611939
O4    O     O_2   0.202585 0.282875 0.517670 -0.549157
O5    O     O_2   0.797348 0.289386 0.572665 -0.553964
O6    O     O_2   0.203228 0.722526 0.491598 -0.548818
O7    O     O_2   0.797206 0.721318 0.480448 -0.553505
O8    O     O_R   0.500000 0.316760 0.385350 -0.622375
O9    O     O_R   0.428760 0.500040 0.614660 -0.620800
O10   O     O_R   0.428750 0.500000 0.385310 -0.623844
O11   O     O_R   0.500000 0.683240 0.614650 -0.627606
O12   O     O_R   0.499990 0.683210 0.385310 -0.624662
Zn1   Zn    Zn3+2 0.500000 0.500020 0.653130 0.946638
Zn2   Zn    Zn3+2 0.500000 0.499980 0.346870 0.947321

loop_
_geom_bond_atom_site_label_1
_geom_bond_atom_site_label_2
_ccdc_geom_bond_type
C10   C27   A    
O2    Zn1   S    
C8    C13   A    
C6    H26   S    
C22   C29   A    
C13   N2    A    
C41   C42   A    
C37   H32   S    
C35   C36   A    
C51   H18   S    
O12   Zn2   S    
C28   C56   S    
C24   H14   S    
C7    C8    A    
C12   C23   A    
C26   C27   A    
C26   H27   S    
C47   O6    S    
C28   O3    A    
C11   O7    S    
C27   H28   S    
C51   H19   S    
C16   C35   S    
C30   C31   A    
C37   C51   S    
C1    C31   S    
C30   C38   S    
C28   O2    A    
C18   C19   A    
O1    Zn1   S    
C16   O12   A    
C20   C24   A    
C8    C9    A    
C4    O10   A    
C14   H11   S    
C23   N1    S    
C40   N1    A    
C9    C10   A    
C12   H2    S    
C45   C53   A    
C21   C22   A    
O9    Zn1   S    
C47   N1    A    
N3    Zn2   S    
C2    C6    A    
C40   O4    S    
C52   H22   S    
C1    O8    A    
C39   N3    A    
C44   C46   S    
C44   H7    S    
C25   C29   A    
C40   C45   A    
C18   H29   S    
C2    C20   A    
C51   H20   S    
C46   H9    S    
C32   H17   S    
C39   C43   A    
C21   C34   A    
C44   H6    S    
C24   C53   A    
C49   C55   A    
C48   H12   S    
C46   H8    S    
C43   C44   S    
C5    C9    A    
C37   C38   S    
O3    Zn2   S    
C16   O11   A    
C31   C32   A    
C17   C56   A    
C4    O9    A    
C17   C18   A    
O11   Zn1   S    
C34   C45   A    
C15   C52   S    
C25   C54   A    
C53   H10   S    
C42   H5    S    
C29   H30   S    
C39   C46   S    
C48   C49   A    
C41   N3    A    
C34   C54   A    
C47   C54   A    
C4    C55   S    
C2    C5    A    
C36   C37   S    
C23   C48   A    
C25   H23   S    
C50   H1    S    
C14   C19   A    
C3    C26   A    
C43   N4    A    
C41   H4    S    
C3    C5    A    
C7    H13   S    
C12   C50   A    
C6    C7    A    
C38   H21   S    
O8    Zn2   S    
C50   C55   A    
C30   C36   A    
C15   C56   A    
C33   H31   S    
C19   N2    S    
C32   C33   A    
C11   N2    A    
C33   C35   A    
O10   Zn2   S    
C42   N4    A    
C13   O5    S    
C52   H25   S    
C10   C11   A    
C38   H3    S    
N4    Zn1   S    
C20   C21   A    
C17   H16   S    
C1    O1    A    
C49   H15   S    
C14   C15   A    
C3    C22   A    
C52   H24   S    
