data_mof_unit_53220.cif
_audit_creation_date              2013-03-05T16:36:14-0500
_audit_creation_method            fapswitch 2.2
_symmetry_space_group_name_H-M    P1
_symmetry_Int_Tables_number       1
_space_group_crystal_system       triclinic
_cell_length_a                    27.842619
_cell_length_b                    9.07857
_cell_length_c                    7.779937
_cell_angle_alpha                 90.062595
_cell_angle_beta                  90.000583
_cell_angle_gamma                 90.00036
_cell_volume                      1966.54256988

loop_
_atom_site_label
_atom_site_type_symbol
_atom_site_description
_atom_site_fract_x
_atom_site_fract_y
_atom_site_fract_z
_atom_type_partial_charge
O1    O     O_R   0.500000 0.288390 0.642760 -0.574008
O2    O     O_R   0.500000 0.711610 0.357240 -0.574008
O3    O     O_R   0.500000 0.711610 0.642760 -0.577530
O4    O     O_R   0.500000 0.288390 0.357240 -0.577530
C1    C     C_R   0.500000 0.220023 0.499943 0.850997
C2    C     C_R   0.500000 0.779977 0.500057 0.850997
O5    O     O_R   0.430260 0.500000 0.642770 -0.583873
O6    O     O_R   0.569740 0.500000 0.357230 -0.583797
O7    O     O_R   0.569740 0.500000 0.642770 -0.583797
O8    O     O_R   0.430260 0.500000 0.357230 -0.583875
C3    C     C_R   0.407260 0.500000 0.499999 0.807026
C4    C     C_R   0.592739 0.500000 0.500001 0.806866
Cu1   Cu    Cu3+1 0.500000 0.500000 0.669080 1.011938
Cu2   Cu    Cu3+1 0.500000 0.500000 0.330920 1.011937
C5    C     C_R   0.178188 0.374491 0.544818 0.611206
C6    C     C_R   0.821764 0.623016 0.446460 0.611989
C7    C     C_R   0.178190 0.625519 0.455119 0.611207
C8    C     C_R   0.821764 0.377045 0.553542 0.612000
O9    O     O_2   0.203478 0.253557 0.589118 -0.412530
O10   O     O_2   0.796460 0.741575 0.394250 -0.414426
O11   O     O_2   0.203483 0.746449 0.410820 -0.412531
O12   O     O_2   0.796459 0.258488 0.605759 -0.414417
N1    N     N_R   0.202081 0.500005 0.499975 -0.500345
N2    N     N_R   0.797886 0.500031 0.500001 -0.500553
C9    C     C_R   0.279015 0.554093 0.643363 0.010287
C10   C     C_R   0.720981 0.445585 0.356808 0.009477
C11   C     C_R   0.279016 0.445911 0.356609 0.010288
C12   C     C_R   0.720981 0.554471 0.643186 0.009472
C13   C     C_R   0.329180 0.552337 0.643521 -0.234448
C14   C     C_R   0.670815 0.447287 0.356656 -0.234103
C15   C     C_R   0.329181 0.447665 0.356463 -0.234446
C16   C     C_R   0.670815 0.552741 0.643344 -0.234107
C17   C     C_R   0.253685 0.500003 0.499982 0.244890
C18   C     C_R   0.746295 0.500029 0.499998 0.246313
C19   C     C_R   0.102024 0.500009 0.499962 -0.210046
C20   C     C_R   0.897926 0.500026 0.499990 -0.209089
C21   C     C_R   0.127661 0.371386 0.544851 -0.129832
C22   C     C_R   0.872290 0.626004 0.445798 -0.125900
C23   C     C_R   0.127663 0.628627 0.455071 -0.129838
C24   C     C_R   0.872290 0.374052 0.554196 -0.125906
C25   C     C_R   0.102280 0.243289 0.587533 0.713409
C26   C     C_R   0.897674 0.750948 0.391855 0.707568
C27   C     C_R   0.102285 0.756722 0.412364 0.713425
C28   C     C_R   0.897673 0.249112 0.608152 0.707582
C29   C     C_R   0.354498 0.500000 0.499995 -0.050711
C30   C     C_R   0.645498 0.500005 0.500002 -0.050664
H1    H     H_    0.348481 0.406017 0.245515 0.161906
H2    H     H_    0.651516 0.594731 0.754116 0.161937
H3    H     H_    0.348479 0.593985 0.754472 0.161905
H4    H     H_    0.651517 0.405295 0.245881 0.161940
C31   C     C_R   0.974415 0.371484 0.551404 0.011601
C32   C     C_R   0.025534 0.629835 0.453116 0.010960
C33   C     C_R   0.974417 0.628557 0.448550 0.011605
C34   C     C_R   0.025533 0.370194 0.546812 0.010962
C35   C     C_R   0.949112 0.500022 0.499980 0.074907
C36   C     C_R   0.050837 0.500013 0.499963 0.074476
C37   C     C_R   0.947494 0.248257 0.607076 -0.283271
C38   C     C_R   0.052463 0.757392 0.412881 -0.285349
C39   C     C_R   0.947495 0.751797 0.392915 -0.283274
C40   C     C_R   0.052459 0.242626 0.587013 -0.285358
H5    H     H_    0.963680 0.148454 0.653692 0.173220
H6    H     H_    0.036292 0.861746 0.382561 0.170502
H7    H     H_    0.963681 0.851611 0.346328 0.173214
H8    H     H_    0.036285 0.138267 0.617297 0.170498
C41   C     C_1   0.500000 0.065397 0.499921 -0.163792
C42   C     C_1   0.500000 0.934603 0.500079 -0.163793
N3    N     N_1   0.500000 0.500000 0.076820 -0.047126
N4    N     N_1   0.500000 0.500000 0.923180 -0.047126
C43   C     C_1   0.253860 0.387156 0.209585 0.299416
N5    N     N_1   0.233634 0.339595 0.092015 -0.203282
C44   C     C_1   0.746163 0.613681 0.789902 0.297396
N6    N     N_1   0.766410 0.661552 0.907255 -0.196032
C45   C     C_1   0.253858 0.612850 0.790381 0.299414
N7    N     N_1   0.233631 0.660411 0.907946 -0.203277
C46   C     C_1   0.746164 0.386429 0.210066 0.297384
N8    N     N_1   0.766413 0.338608 0.092692 -0.196068
F1    F     F_    0.125285 0.116512 0.630011 -0.560797
F2    F     F_    0.874682 0.874252 0.337007 -0.570239
F3    F     F_    0.125292 0.883490 0.369860 -0.560790
F4    F     F_    0.874681 0.125821 0.663039 -0.570236

loop_
_geom_bond_atom_site_label_1
_geom_bond_atom_site_label_2
_geom_bond_distance
_ccdc_geom_bond_type
C38   H6    1.075358 S    
O5    Cu1   1.952501 S    
C45   N7    1.157303 T    
O3    C2    1.272528 A    
C33   C39   1.414936 A    
C13   H3    1.084470 S    
C11   C17   1.407694 A    
O5    C3    1.282128 A    
C7    N1    1.365113 A    
O1    C1    1.272121 A    
C19   C21   1.412766 A    
C22   C26   1.401192 A    
C25   F1    1.358313 S    
C27   F3    1.358313 S    
C7    C23   1.407098 A    
O7    Cu1   1.952503 S    
C5    C21   1.407097 A    
C20   C24   1.412924 A    
C8    C24   1.407040 A    
C27   C38   1.387175 A    
C5    O9    1.349386 S    
C10   C18   1.407435 A    
N1    C17   1.436796 S    
Cu2   N3    1.976881 S    
C31   C37   1.414934 A    
C31   C35   1.420979 A    
C11   C43   1.442948 S    
C6    O10   1.349395 S    
C5    N1    1.365113 A    
C14   H4    1.084462 S    
C12   C18   1.407429 A    
C6    N2    1.364987 A    
C15   H1    1.084472 S    
Cu1   Cu2   2.630864 S    
C21   C25   1.401039 A    
C16   H2    1.084462 S    
O2    C2    1.272121 A    
C12   C16   1.396833 A    
C33   C35   1.420983 A    
C9    C13   1.396828 A    
C34   C36   1.420975 A    
C11   C15   1.396824 A    
N3    N4    1.195310 T    
C28   F4    1.358685 S    
C4    C30   1.468943 S    
O8    Cu2   1.952505 S    
C34   C40   1.414903 A    
N2    C18   1.436409 S    
C13   C29   1.402994 A    
C19   C23   1.412766 A    
C46   N8    1.157302 T    
C2    C42   1.403778 S    
C28   C37   1.387191 A    
O6    C4    1.282110 A    
C10   C46   1.442947 S    
C37   H5    1.075322 S    
C32   C38   1.414908 A    
C1    C41   1.403778 S    
C10   C14   1.396828 A    
C8    N2    1.364988 A    
C3    C29   1.469010 S    
C12   C44   1.442940 S    
O1    Cu1   1.931777 S    
C32   C33   1.423743 A    
O6    Cu2   1.952498 S    
C19   C36   1.425177 A    
C8    O12   1.349396 S    
C16   C30   1.403049 A    
C14   C30   1.403046 A    
C25   C40   1.387166 A    
O4    C1    1.272528 A    
O3    Cu1   1.932221 S    
C26   C39   1.387196 A    
C23   C27   1.401036 A    
C26   F2    1.358684 S    
C39   H7    1.075320 S    
C40   H8    1.075360 S    
C31   C34   1.423733 A    
C20   C22   1.412925 A    
C44   N6    1.157305 T    
C20   C35   1.425144 A    
C9    C45   1.442950 S    
O4    Cu2   1.932222 S    
C43   N5    1.157304 T    
O2    Cu2   1.931776 S    
O7    C4    1.282110 A    
C7    O11   1.349386 S    
O8    C3    1.282125 A    
C24   C28   1.401193 A    
C41   C42   1.187433 T    
C15   C29   1.402996 A    
C9    C17   1.407698 A    
C32   C36   1.420979 A    
C6    C22   1.407039 A    
Cu1   N4    1.976881 S    
