data_mof_unit_47297.cif
_audit_creation_date              2012-12-11T14:58:37-0500
_audit_creation_method            fapswitch 2.2
_symmetry_space_group_name_H-M    P1
_symmetry_Int_Tables_number       1
_space_group_crystal_system       triclinic
_cell_length_a                    10.982492
_cell_length_b                    10.873886
_cell_length_c                    18.800841
_cell_angle_alpha                 90.753063
_cell_angle_beta                  91.002731
_cell_angle_gamma                 59.700311
_cell_volume                      1938.21610091

loop_
_atom_site_label
_atom_site_type_symbol
_atom_type_description
_atom_site_fract_x
_atom_site_fract_y
_atom_site_fract_z
_atom_type_partial_charge
C1    C     C_R   0.359768 0.769097 0.396201 0.534932
C2    C     C_R   0.234812 0.433730 0.201786 -0.162883
C3    C     C_R   0.236688 0.436108 0.275788 -0.045979
C4    C     C_R   0.386472 0.354161 0.387394 0.534525
C5    C     C_R   0.882319 0.752351 0.393545 -0.099277
C6    C     C_R   0.948084 0.609530 0.413543 -0.092453
C7    C     C_R   0.056294 0.504572 0.372329 -0.060565
C8    C     C_R   0.106764 0.543091 0.313363 0.039781
C9    C     C_R   0.364449 0.341811 0.311486 -0.002415
C10   C     C_R   0.905607 0.213033 0.303076 -0.157918
C11   C     C_R   0.949591 0.196735 0.233006 -0.151924
C12   C     C_R   0.617387 0.157354 0.159815 0.045029
C13   C     C_R   0.922312 0.316582 0.192600 -0.000867
C14   C     C_R   0.851206 0.454944 0.223713 0.008932
C15   C     C_R   0.806093 0.468195 0.292274 -0.095017
C16   C     C_R   0.778052 0.378185 0.403235 0.539984
C17   C     C_R   0.835114 0.349232 0.332629 0.000777
C18   C     C_R   0.337876 0.713618 0.272741 -0.124046
C19   C     C_R   0.335221 0.736432 0.200482 -0.130252
C20   C     C_R   0.356459 0.844593 0.176162 0.067436
C21   C     C_R   0.389149 0.924114 0.224439 -0.077730
C22   C     C_R   0.390976 0.901212 0.297397 -0.131238
C23   C     C_R   0.353838 0.336342 0.163057 -0.004989
C24   C     C_R   0.358107 0.800417 0.321428 0.030348
C25   C     C_R   0.381680 0.198629 0.693327 -0.139317
C26   C     C_R   0.369185 0.185271 0.765157 -0.122443
C27   C     C_R   0.297611 0.307117 0.808602 0.030065
C28   C     C_R   0.345411 0.768539 0.604951 0.545566
C29   C     C_R   0.228247 0.442511 0.778697 -0.158747
C30   C     C_R   0.239678 0.456031 0.706197 -0.134869
C31   C     C_R   0.322121 0.333989 0.664130 0.029391
C32   C     C_R   0.907130 0.394133 0.708229 -0.131196
C33   C     C_R   0.944809 0.375064 0.779455 -0.130717
C34   C     C_R   0.486630 0.254105 0.272064 -0.146966
C35   C     C_R   0.921466 0.282911 0.820776 0.026130
C36   C     C_R   0.869807 0.200931 0.788644 -0.136886
C37   C     C_R   0.830144 0.221253 0.716946 -0.136451
C38   C     C_R   0.842800 0.323032 0.677395 0.026943
C39   C     C_R   0.196014 0.851047 0.710624 -0.136770
C40   C     C_R   0.369243 0.350583 0.595522 0.545672
C41   C     C_R   0.185250 0.861028 0.783716 -0.138129
C42   C     C_R   0.300289 0.841840 0.825466 0.033480
C43   C     C_R   0.428078 0.807248 0.793474 -0.140036
C44   C     C_R   0.439561 0.795385 0.720221 -0.142300
C45   C     C_R   0.484288 0.252393 0.198376 -0.028338
C46   C     C_R   0.323744 0.816292 0.678391 0.029238
C47   C     C_R   0.966269 0.293979 0.118817 0.550229
C48   C     C_R   0.328382 0.296177 0.092242 0.531104
C49   C     C_R   0.309006 0.898439 0.105015 0.537853
C50   C     C_R   0.948762 0.279661 0.897133 0.574598
C51   C     C_R   0.292447 0.285421 0.883896 0.538791
C52   C     C_R   0.768529 0.373574 0.609393 0.547038
C53   C     C_R   0.275379 0.893123 0.898137 0.541171
C54   C     C_R   0.846545 0.967178 0.076017 -0.087973
C55   C     C_R   0.757891 0.106975 0.053587 -0.058622
C56   C     C_R   0.038509 0.687271 0.293272 -0.095767
C57   C     C_R   0.648694 0.203737 0.096858 -0.048110
C58   C     C_2   0.820602 0.589840 0.188781 0.243663
C59   C     C_R   0.926805 0.791031 0.333101 -0.093480
C60   C     C_R   0.706635 0.015787 0.181830 -0.081116
C61   C     C_R   0.822345 0.922480 0.140730 -0.102374
Cr1   Cr    Cr6+3 0.601770 0.606860 0.505860 0.998307
Cr2   Cr    Cr6+3 0.291380 0.601660 0.495070 1.017740
Cr3   Cr    Cr6+3 0.606880 0.291510 0.499120 1.007837
Cr4   Cr    Cr6+3 0.062440 0.063090 0.008210 0.975811
Cr5   Cr    Cr6+3 0.062880 0.375170 0.998920 0.995247
Cr6   Cr    Cr6+3 0.374700 0.061720 0.992470 1.024786
H1    H     H_    0.587577 0.190061 0.298658 0.140663
H2    H     H_    0.403684 0.009832 0.206051 0.132739
H3    H     H_    0.890902 0.814257 0.157855 0.105662
H4    H     H_    0.412604 0.964805 0.334693 0.109247
H5    H     H_    0.444132 0.103897 0.661500 0.122344
H6    H     H_    0.418714 0.078915 0.787028 0.140459
H7    H     H_    0.169790 0.536720 0.811422 0.117286
H8    H     H_    0.192748 0.562217 0.684275 0.139873
H9    H     H_    0.919981 0.471554 0.678587 0.128410
H10   H     H_    0.985760 0.438103 0.803277 0.135137
H11   H     H_    0.852918 0.127562 0.819487 0.122961
H12   H     H_    0.797871 0.833156 0.425280 0.102067
H13   H     H_    0.781124 0.164713 0.693976 0.131354
H14   H     H_    0.105543 0.865955 0.679571 0.127859
H15   H     H_    0.877204 0.901927 0.318166 0.097656
H16   H     H_    0.084775 0.890151 0.807130 0.125926
H17   H     H_    0.517509 0.793970 0.824934 0.130011
H18   H     H_    0.540239 0.765414 0.696730 0.135719
H19   H     H_    0.933309 0.893379 0.043070 0.112330
H20   H     H_    0.773612 0.140896 0.002688 0.147572
H21   H     H_    0.582395 0.312308 0.078828 0.106889
H22   H     H_    0.074735 0.720264 0.248165 0.091261
H23   H     H_    0.916494 0.580372 0.461649 0.131763
H24   H     H_    0.684064 0.976028 0.229311 0.128957
H25   H     H_    0.136273 0.502284 0.174446 0.115281
H26   H     H_    0.899099 0.595327 0.157360 0.118818
H27   H     H_    0.105605 0.394246 0.388491 0.097177
H28   H     H_    0.925869 0.120789 0.333728 0.122874
H29   H     H_    0.004521 0.090504 0.210208 0.147014
H30   H     H_    0.747305 0.574845 0.314528 0.189064
H31   H     H_    0.322875 0.628651 0.291074 0.143607
H32   H     H_    0.309792 0.674654 0.163811 0.114714
O1    O     O_R   0.748800 0.497470 0.428000 -0.544827
O2    O     O_R   0.417600 0.174890 0.067840 -0.500617
O3    O     O_R   0.375320 0.946260 0.070860 -0.480110
O4    O     O_R   0.476420 0.724060 0.429470 -0.499826
O5    O     O_R   0.160600 0.919630 0.926660 -0.538400
O6    O     O_R   0.933060 0.190520 0.936020 -0.522766
O7    O     O_R   0.908880 0.403460 0.925020 -0.507424
O8    O     O_R   0.179600 0.361450 0.918490 -0.527657
O9    O     O_R   0.391510 0.170860 0.907530 -0.523532
O10   O     O_R   0.351130 0.942530 0.922260 -0.506975
O11   O     O_3   0.166667 0.166667 0.999870 -0.282593
O12   O     O_R   0.300070 0.471040 0.567100 -0.510021
O13   O     O_R   0.264580 0.744340 0.416750 -0.513164
O14   O     O_R   0.309380 0.472470 0.418200 -0.492889
O15   O     O_R   0.501710 0.260430 0.414300 -0.533149
O16   O     O_R   0.728090 0.305600 0.428960 -0.501593
O17   O     O_R   0.738760 0.495930 0.588610 -0.531142
O18   O     O_R   0.467110 0.722640 0.578360 -0.506748
O19   O     O_R   0.254530 0.742800 0.577360 -0.527271
O20   O     O_2   0.707048 0.698669 0.196791 -0.531396
O21   O     O_R   0.491670 0.258900 0.574910 -0.521349
O22   O     O_R   0.718780 0.304180 0.577850 -0.503398
O23   O     O_3   0.500010 0.500010 0.500020 -0.241323
O24   O     O_R   0.186690 0.923650 0.086970 -0.541905
O25   O     O_R   0.957250 0.194250 0.084630 -0.494108
O26   O     O_R   0.934970 0.407490 0.085330 -0.526499
O27   O     O_R   0.203780 0.365190 0.067090 -0.526253

loop_
_geom_bond_atom_site_label_1
_geom_bond_atom_site_label_2
_ccdc_geom_bond_type
C11   H29   S    
C25   C31   A    
C23   C45   A    
C27   C29   A    
C41   C42   A    
C19   C20   A    
C59   H15   S    
Cr5   O8    S    
C8    C56   A    
C7    C8    A    
C39   C41   A    
C61   H3    S    
C28   C46   S    
C26   C27   A    
C29   C30   A    
C18   C24   A    
C4    O15   A    
C36   C37   A    
C37   C38   A    
Cr5   O7    S    
C28   O18   A    
C1    O13   A    
C30   C31   A    
Cr6   O9    S    
C38   C52   S    
C10   C17   A    
Cr3   O22   S    
C41   H16   S    
C26   H6    S    
C31   C40   S    
C18   C19   A    
Cr4   O25   S    
Cr2   O13   S    
Cr1   O18   S    
Cr6   O10   S    
C35   C36   A    
C27   C51   S    
C16   C17   S    
C50   O6    A    
C32   C38   A    
C5    H12   S    
C1    O4    A    
Cr3   O16   S    
C21   C22   A    
Cr2   O12   S    
C43   H17   S    
C15   H30   S    
Cr4   O6    S    
C44   C46   A    
C47   O26   A    
C40   O12   A    
C52   O17   A    
C14   C58   S    
C37   H13   S    
Cr3   O15   S    
C5    C59   A    
C4    O14   A    
C39   H14   S    
C3    C8    S    
C34   H1    S    
C49   O3    A    
C54   H19   S    
Cr2   O19   S    
C19   H32   S    
C16   O1    A    
C29   H7    S    
C25   C26   A    
C6    H23   S    
Cr5   O27   S    
C21   H2    S    
C60   C61   A    
Cr2   O14   S    
C43   C44   A    
Cr1   O17   S    
C20   C49   S    
C3    C9    A    
C52   O22   A    
Cr6   O11   S    
C35   C50   S    
C25   H5    S    
Cr5   O11   S    
C2    H25   S    
C34   C45   A    
C39   C46   A    
Cr1   O1    S    
C12   C57   A    
C56   H22   S    
C40   O21   A    
C51   O9    A    
C55   C57   A    
C9    C34   A    
C22   C24   A    
C42   C43   A    
C44   H18   S    
C16   O16   A    
C22   H4    S    
Cr1   O23   S    
Cr2   O23   S    
Cr6   O2    S    
C57   H21   S    
C13   C47   S    
Cr1   O4    S    
C60   H24   S    
C53   O10   A    
C15   C17   A    
C7    H27   S    
C54   C55   A    
C23   C48   S    
C58   H26   S    
C12   C45   S    
C32   H9    S    
Cr5   O26   S    
C6    C7    A    
C54   C61   A    
C18   H31   S    
Cr3   O21   S    
C56   C59   A    
C32   C33   A    
C2    C3    A    
C42   C53   S    
C36   H11   S    
C30   H8    S    
C11   C13   A    
C33   H10   S    
C47   O25   A    
C5    C6    A    
C10   H28   S    
Cr3   O23   S    
C48   O2    A    
C58   O20   D    
C33   C35   A    
Cr4   O24   S    
C55   H20   S    
Cr4   O11   S    
C10   C11   A    
C48   O27   A    
C12   C60   A    
C20   C21   A    
C1    C24   S    
C51   O8    A    
C2    C23   A    
C50   O7    A    
C14   C15   A    
C28   O19   A    
C53   O5    A    
Cr4   O5    S    
C4    C9    S    
C13   C14   A    
Cr6   O3    S    
C49   O24   A    
