data_mof_unit_52537.cif
_audit_creation_date              2012-12-10T20:31:56-0500
_audit_creation_method            fapswitch 2.2
_symmetry_space_group_name_H-M    P1
_symmetry_Int_Tables_number       1
_space_group_crystal_system       triclinic
_cell_length_a                    9.969631
_cell_length_b                    10.701695
_cell_length_c                    15.4637
_cell_angle_alpha                 90.748274
_cell_angle_beta                  68.935215
_cell_angle_gamma                 89.511667
_cell_volume                      1539.3145653

loop_
_atom_site_label
_atom_site_type_symbol
_atom_type_description
_atom_site_fract_x
_atom_site_fract_y
_atom_site_fract_z
_atom_type_partial_charge
C1    C     C_R   0.500020 0.739824 0.498504 0.876104
C2    C     C_R   0.430899 0.481432 0.907434 0.096384
C3    C     C_R   0.330447 0.385287 0.945429 0.134781
C4    C     C_R   0.527318 0.518284 0.951720 0.064830
C5    C     C_R   0.525515 0.453954 0.031988 0.061147
C6    C     C_R   0.429906 0.353201 0.063966 -0.119780
C7    C     C_R   0.331177 0.322686 0.023292 -0.181681
C8    C     C_R   0.624828 0.617632 0.918757 -0.208998
C9    C     C_R   0.716033 0.654218 0.963586 -0.201301
C10   C     C_R   0.707017 0.599209 0.046136 0.149634
C11   C     C_R   0.613250 0.497475 0.080694 0.097119
C12   C     C_R   0.410128 0.499136 0.675100 0.873659
C13   C     C_R   0.782269 0.651652 0.098516 -0.174661
C14   C     C_R   0.750842 0.614891 0.189470 -0.183043
C15   C     C_R   0.598631 0.452556 0.168305 -0.172452
C16   C     C_R   0.383204 0.938872 0.487517 0.006743
C17   C     C_R   0.504618 0.871649 0.487110 -0.132066
C18   C     C_R   0.635648 0.933498 0.468831 -0.173212
C19   C     C_R   0.637908 0.062647 0.467450 -0.190301
C20   C     C_R   0.509191 0.128889 0.484035 -0.057077
C21   C     C_R   0.386987 0.066209 0.485712 0.047272
C22   C     C_3   0.234313 0.084206 0.547972 -0.511545
C23   C     C_R   0.502066 0.260479 0.497262 0.895779
C24   C     C_3   0.226411 0.942050 0.550075 0.717820
C25   C     C_R   0.888235 0.548654 0.573573 0.259989
C26   C     C_R   0.966185 0.457668 0.426506 -0.189179
C27   C     C_R   0.107695 0.450958 0.426859 0.482298
C28   C     C_R   0.030270 0.548798 0.573651 0.309322
C29   C     C_3   0.981805 0.500454 0.669962 -0.497210
C30   C     C_3   0.830022 0.501763 0.670066 -0.511410
C31   C     C_R   0.590826 0.501561 0.324862 0.889918
C32   C     C_R   0.356840 0.481794 0.774428 -0.034576
C33   C     C_R   0.651540 0.520112 0.225567 -0.052975
C34   C     C_R   0.235611 0.347611 0.901752 -0.161347
C35   C     C_R   0.250062 0.394717 0.815495 -0.178261
C36   C     C_R   0.437022 0.531901 0.823082 -0.232884
H1    H     H_    0.257931 0.246595 0.051305 0.171847
H2    H     H_    0.854902 0.728622 0.072324 0.156560
H3    H     H_    0.734260 0.883309 0.461042 0.197176
H4    H     H_    0.737392 0.109729 0.459327 0.190643
H5    H     H_    0.169841 0.131962 0.512463 0.254037
H6    H     H_    0.940823 0.423724 0.368118 0.213015
H7    H     H_    0.024116 0.404747 0.672995 0.194851
H8    H     H_    0.996769 0.568537 0.720410 0.262263
H9    H     H_    0.782972 0.407131 0.674612 0.226901
H10   H     H_    0.760448 0.572913 0.718438 0.213539
H11   H     H_    0.796883 0.665321 0.233087 0.163398
H12   H     H_    0.786907 0.732228 0.936818 0.178000
H13   H     H_    0.186816 0.355581 0.777855 0.154077
H14   H     H_    0.512608 0.602298 0.788275 0.134912
N1    N     N_R   0.856900 0.500860 0.500610 -0.155548
N2    N     N_R   0.142540 0.500820 0.500610 -0.170447
O1    O     O_R   0.385310 0.683210 0.499990 -0.542853
O2    O     O_R   0.614650 0.683240 0.500000 -0.619338
O3    O     O_R   0.319830 0.499970 0.632240 -0.601987
O4    O     O_R   0.549170 0.500000 0.632250 -0.620005
O5    O     O_R   0.385350 0.316760 0.500000 -0.578460
O6    O     O_R   0.614690 0.316790 0.500010 -0.627651
O7    O     O_R   0.450830 0.500000 0.367750 -0.501122
O8    O     O_R   0.680170 0.500030 0.367760 -0.640348
Zn1   Zn    Zn3+2 0.346870 0.499980 0.499990 1.084108
Zn2   Zn    Zn3+2 0.653130 0.500020 0.500010 0.968062
H15   H     H_    0.225167 0.129868 0.614964 0.204040
S1    S     S_3+6 0.188854 0.885085 0.665413 0.030657
O9    O     O_2   0.047582 0.939097 0.728846 -0.253243
O10   O     O_2   0.179240 0.745295 0.666604 -0.321570
O11   O     O_3   0.318420 0.929811 0.704709 -0.572209
H16   H     H_    0.387552 0.858669 0.690588 0.352564
S2    S     S_3+6 0.108785 0.882159 0.494219 0.032162
O12   O     O_2   0.168682 0.761641 0.443952 -0.307128
O13   O     O_2   0.962281 0.860160 0.565552 -0.295690
O14   O     O_3   0.093409 0.984454 0.416440 -0.567166
H17   H     H_    0.019927 0.948719 0.394348 0.377203
S3    S     S_3+6 0.227598 0.375803 0.325881 0.011625
O15   O     O_2   0.145078 0.294054 0.283143 -0.352110
O16   O     O_2   0.296023 0.476935 0.258610 -0.303636
O17   O     O_3   0.351478 0.284645 0.345157 -0.563888
H18   H     H_    0.371170 0.214834 0.299417 0.364625
H19   H     H_    0.536152 0.372396 0.197795 0.173596
H20   H     H_    0.157655 0.275260 0.931007 0.156882
H21   H     H_    0.427567 0.295428 0.120850 0.173309
H22   H     H_    0.630517 0.673466 0.860346 0.155506

loop_
_geom_bond_atom_site_label_1
_geom_bond_atom_site_label_2
_ccdc_geom_bond_type
O6    Zn2   S    
C23   O6    A    
C16   C21   A    
C32   C35   A    
C30   H9    S    
C19   C20   A    
C4    C8    A    
C14   C33   A    
O17   H18   S    
C25   C28   A    
C26   C27   A    
S3    O16   D    
C8    H22   S    
C32   C36   A    
C28   C29   S    
C5    C11   A    
C3    C7    A    
N2    Zn1   S    
C5    C6    A    
C22   H5    S    
C8    C9    A    
O8    Zn2   S    
C34   C35   A    
C31   O7    A    
S2    O13   D    
C1    O1    A    
C34   H20   S    
C22   H15   S    
O1    Zn1   S    
C15   H19   S    
C16   C17   A    
S3    O17   S    
C35   H13   S    
C31   C33   S    
C27   S3    S    
C9    C10   A    
C16   C24   S    
C6    H21   S    
C21   C22   S    
C29   H7    S    
N1    Zn2   S    
C11   C15   A    
C24   S2    S    
C6    C7    A    
O7    Zn1   S    
S3    O15   D    
O11   H16   S    
S1    O11   S    
C19   H4    S    
C18   C19   A    
O2    Zn2   S    
C3    C34   A    
S1    O10   D    
C31   O8    A    
S2    O14   S    
C2    C4    A    
C18   H3    S    
C25   N1    A    
C29   C30   S    
C20   C23   S    
C17   C18   A    
C7    H1    S    
C13   H2    S    
C12   O4    A    
C1    O2    A    
C29   H8    S    
C22   C24   S    
C36   H14   S    
C27   N2    A    
C26   H6    S    
C2    C36   A    
C25   C30   S    
C23   O5    A    
C30   H10   S    
O14   H17   S    
C10   C13   A    
O5    Zn1   S    
C14   H11   S    
C1    C17   S    
S1    O9    D    
C2    C3    A    
C26   N1    A    
C28   N2    A    
O3    Zn1   S    
O4    Zn2   S    
S2    O12   D    
C12   O3    A    
C10   C11   A    
C4    C5    A    
C20   C21   A    
C9    H12   S    
C24   S1    S    
C13   C14   A    
C15   C33   A    
C12   C32   S    
