data_mof_unit_64509.cif
_audit_creation_date              2012-12-10T20:04:01-0500
_audit_creation_method            fapswitch 2.2
_symmetry_space_group_name_H-M    P1
_symmetry_Int_Tables_number       1
_space_group_crystal_system       triclinic
_cell_length_a                    22.509014
_cell_length_b                    25.856897
_cell_length_c                    22.505712
_cell_angle_alpha                 89.999945
_cell_angle_beta                  90.000417
_cell_angle_gamma                 89.999965
_cell_volume                      13098.6227322

loop_
_atom_site_label
_atom_site_type_symbol
_atom_type_description
_atom_site_fract_x
_atom_site_fract_y
_atom_site_fract_z
_atom_type_partial_charge
C1    C     C_R   0.499021 0.890167 0.749020 0.556118
C2    C     C_R   0.999030 0.890167 0.750970 0.556115
C3    C     C_1   0.723363 0.250000 0.750000 0.010659
C4    C     C_1   0.223363 0.750000 0.250000 0.010699
C5    C     C_1   0.223363 0.750000 0.750000 0.010645
C6    C     C_1   0.223363 0.250000 0.750000 0.010644
C7    C     C_1   0.223363 0.250000 0.250000 0.010700
C8    C     C_1   0.776650 0.750000 0.750000 0.013662
C9    C     C_1   0.776650 0.750000 0.250000 0.013628
C10   C     C_1   0.776650 0.250000 0.250000 0.013629
C11   C     C_1   0.776650 0.250000 0.750000 0.013662
C12   C     C_1   0.276650 0.750001 0.250001 0.013685
C13   C     C_R   0.999031 0.109833 0.750969 0.556115
C14   C     C_1   0.276650 0.750000 0.750000 0.013663
C15   C     C_1   0.276650 0.250000 0.750000 0.013662
C16   C     C_1   0.276650 0.249999 0.250001 0.013688
C17   C     C_R   0.418425 0.554441 0.834690 0.082559
C18   C     C_R   0.418174 0.554442 0.165541 0.082526
C19   C     C_R   0.418172 0.445558 0.165544 0.082525
C20   C     C_R   0.418425 0.445558 0.834690 0.082559
C21   C     C_R   0.419211 0.054441 0.335462 0.082692
C22   C     C_R   0.418522 0.054442 0.665187 0.082586
C23   C     C_R   0.418520 0.945559 0.665189 0.082586
C24   C     C_R   0.999023 0.109833 0.249022 0.556117
C25   C     C_R   0.419215 0.945561 0.335468 0.082692
C26   C     C_R   0.918176 0.554441 0.334470 0.082524
C27   C     C_R   0.918459 0.554442 0.665268 0.082564
C28   C     C_R   0.918458 0.445559 0.665269 0.082564
C29   C     C_R   0.918177 0.445557 0.334469 0.082525
C30   C     C_R   0.918708 0.054442 0.834963 0.082611
C31   C     C_R   0.918470 0.054442 0.165240 0.082551
C32   C     C_R   0.918471 0.945558 0.165239 0.082552
C33   C     C_R   0.918708 0.945560 0.834964 0.082611
C34   C     C_R   0.382298 0.526592 0.873206 -0.095063
C35   C     C_R   0.999030 0.390167 0.749028 0.556131
C36   C     C_R   0.381830 0.526592 0.127230 -0.095065
C37   C     C_R   0.381828 0.473408 0.127232 -0.095065
C38   C     C_R   0.382298 0.473407 0.873206 -0.095064
C39   C     C_R   0.383690 0.026595 0.374541 -0.095148
C40   C     C_R   0.382457 0.026593 0.626611 -0.095263
C41   C     C_R   0.382456 0.973408 0.626612 -0.095262
C42   C     C_R   0.383692 0.973409 0.374544 -0.095146
C43   C     C_R   0.881860 0.526591 0.372807 -0.095072
C44   C     C_R   0.882350 0.526593 0.626733 -0.095058
C45   C     C_R   0.882350 0.473408 0.626734 -0.095058
C46   C     C_R   0.999027 0.390167 0.250977 0.556148
C47   C     C_R   0.881861 0.473406 0.372807 -0.095074
C48   C     C_R   0.882789 0.026593 0.873675 -0.095131
C49   C     C_R   0.882348 0.026593 0.126718 -0.095245
C50   C     C_R   0.882349 0.973408 0.126717 -0.095244
C51   C     C_R   0.882788 0.973409 0.873675 -0.095131
C52   C     C_R   0.957503 0.972212 0.794345 -0.009394
C53   C     C_R   0.957383 0.972211 0.205747 -0.009385
C54   C     C_R   0.957382 0.027789 0.205748 -0.009385
C55   C     C_R   0.957503 0.027789 0.794344 -0.009393
C56   C     C_R   0.957231 0.472211 0.294099 -0.009395
C57   C     C_R   0.999026 0.609833 0.250978 0.556148
C58   C     C_R   0.957376 0.472212 0.705771 -0.009397
C59   C     C_R   0.957376 0.527788 0.705771 -0.009397
C60   C     C_R   0.957231 0.527788 0.294100 -0.009396
C61   C     C_R   0.457751 0.972213 0.294603 -0.009402
C62   C     C_R   0.457403 0.972212 0.705724 -0.009384
C63   C     C_R   0.457404 0.027789 0.705724 -0.009384
C64   C     C_R   0.457750 0.027789 0.294600 -0.009400
C65   C     C_R   0.457360 0.472211 0.794204 -0.009396
C66   C     C_R   0.457234 0.472211 0.205907 -0.009392
C67   C     C_R   0.457235 0.527788 0.205906 -0.009392
C68   C     C_R   0.999030 0.609833 0.749028 0.556131
C69   C     C_R   0.457360 0.527788 0.794204 -0.009396
C70   C     C_R   0.496061 0.553962 0.753886 0.018331
C71   C     C_R   0.496060 0.553962 0.246106 0.018340
C72   C     C_R   0.496060 0.446038 0.246107 0.018340
C73   C     C_R   0.499019 0.890167 0.250977 0.556093
C74   C     C_R   0.496060 0.446038 0.753885 0.018332
C75   C     C_R   0.496009 0.053962 0.253862 0.018287
C76   C     C_R   0.496036 0.053962 0.746110 0.018291
C77   C     C_R   0.496037 0.946038 0.746109 0.018291
C78   C     C_R   0.496009 0.946038 0.253864 0.018286
C79   C     C_R   0.996060 0.553962 0.253904 0.018338
C80   C     C_R   0.996052 0.553962 0.746114 0.018330
C81   C     C_R   0.996052 0.446038 0.746114 0.018330
C82   C     C_R   0.996059 0.446038 0.253902 0.018339
C83   C     C_R   0.996046 0.053962 0.753875 0.018309
C84   C     C_R   0.499021 0.109833 0.250975 0.556092
C85   C     C_R   0.996039 0.053962 0.246111 0.018287
C86   C     C_R   0.996039 0.946038 0.246111 0.018287
C87   C     C_R   0.996046 0.946038 0.753875 0.018308
C88   C     C_R   0.533510 0.526929 0.714851 0.076950
C89   C     C_R   0.533617 0.526929 0.285038 0.076966
C90   C     C_R   0.533617 0.473071 0.285039 0.076966
C91   C     C_R   0.533507 0.473071 0.714848 0.076950
C92   C     C_R   0.532932 0.026928 0.214329 0.076920
C93   C     C_R   0.533379 0.026928 0.785247 0.076942
C94   C     C_R   0.533381 0.973072 0.785245 0.076942
C95   C     C_R   0.499021 0.109833 0.749020 0.556118
C96   C     C_R   0.532932 0.973071 0.214330 0.076924
C97   C     C_R   0.033646 0.526929 0.215001 0.076976
C98   C     C_R   0.033461 0.526929 0.785189 0.076951
C99   C     C_R   0.033461 0.473071 0.785189 0.076951
C100  C     C_R   0.033644 0.473071 0.214998 0.076975
C101  C     C_R   0.033307 0.026929 0.714660 0.076929
C102  C     C_R   0.033394 0.026928 0.285235 0.076922
C103  C     C_R   0.033394 0.973071 0.285236 0.076922
C104  C     C_R   0.033307 0.973071 0.714659 0.076930
C105  C     C_1   0.500006 0.749975 0.526642 0.012601
C106  C     C_R   0.499030 0.390167 0.249027 0.556145
C107  C     C_1   0.500006 0.749974 0.473358 0.012613
C108  C     C_1   0.500006 0.250025 0.473358 0.012609
C109  C     C_1   0.500006 0.250025 0.526642 0.012601
C110  C     C_1   0.500005 0.249975 0.026642 0.012721
C111  C     C_1   0.500005 0.249975 0.973358 0.012700
C112  C     C_1   0.500005 0.750025 0.973358 0.012699
C113  C     C_1   0.500005 0.750025 0.026642 0.012722
C114  C     C_1   0.000005 0.749975 0.026642 0.012611
C115  C     C_1   0.000006 0.749975 0.973358 0.012623
C116  C     C_1   0.000005 0.250025 0.973358 0.012622
C117  C     C_R   0.499033 0.390167 0.750970 0.556133
C118  C     C_1   0.000005 0.250025 0.026642 0.012610
C119  C     C_1   0.000005 0.249975 0.526642 0.012665
C120  C     C_1   0.000005 0.249975 0.473358 0.012650
C121  C     C_1   0.000005 0.750024 0.473358 0.012652
C122  C     C_1   0.000005 0.750025 0.526642 0.012666
C123  C     C_R   0.500046 0.750055 0.910091 0.534528
C124  C     C_R   0.500046 0.750055 0.089909 0.534560
C125  C     C_R   0.500046 0.249945 0.089909 0.534558
C126  C     C_R   0.500046 0.249945 0.910091 0.534528
C127  C     C_R   0.500048 0.250057 0.410091 0.534544
C128  C     C_R   0.499033 0.609833 0.750970 0.556134
C129  C     C_R   0.500046 0.250055 0.589909 0.534513
C130  C     C_R   0.500046 0.749945 0.589909 0.534511
C131  C     C_R   0.500048 0.749943 0.410091 0.534548
C132  C     C_R   0.000045 0.750054 0.410091 0.534507
C133  C     C_R   0.000046 0.750055 0.589909 0.534535
C134  C     C_R   0.000046 0.249945 0.589909 0.534534
C135  C     C_R   0.000045 0.249945 0.410091 0.534505
C136  C     C_R   0.000047 0.250056 0.910091 0.534527
C137  C     C_R   0.000046 0.250055 0.089909 0.534505
C138  C     C_R   0.000046 0.749945 0.089909 0.534505
C139  C     C_R   0.499030 0.609833 0.249027 0.556145
C140  C     C_R   0.000047 0.749944 0.910091 0.534528
C141  C     C_R   0.339920 0.750000 0.750000 0.544269
C142  C     C_R   0.339920 0.750002 0.250003 0.544231
C143  C     C_R   0.339920 0.249998 0.250003 0.544236
C144  C     C_R   0.339920 0.250000 0.749999 0.544269
C145  C     C_R   0.839920 0.750001 0.249999 0.544280
C146  C     C_R   0.839920 0.750001 0.750000 0.544251
C147  C     C_R   0.839920 0.249999 0.750000 0.544252
C148  C     C_R   0.839920 0.249999 0.249999 0.544282
C149  C     C_R   0.660082 0.750000 0.750000 0.523902
C150  C     C_R   0.999023 0.890167 0.249022 0.556117
C151  C     C_R   0.660082 0.750000 0.250000 0.523847
C152  C     C_R   0.660082 0.250000 0.250000 0.523846
C153  C     C_R   0.660082 0.250000 0.750000 0.523900
C154  C     C_R   0.160082 0.750000 0.250000 0.523927
C155  C     C_R   0.160082 0.750000 0.750000 0.523882
C156  C     C_R   0.160082 0.250000 0.750000 0.523882
C157  C     C_R   0.160082 0.250000 0.250000 0.523926
C158  C     C_1   0.723363 0.750000 0.750000 0.010660
C159  C     C_1   0.723363 0.750000 0.250000 0.010591
C160  C     C_1   0.723363 0.250000 0.250000 0.010590
H1    H     H_    0.353062 0.546415 0.903914 0.153790
H2    H     H_    0.853124 0.546416 0.596015 0.153780
H3    H     H_    0.853123 0.453584 0.596016 0.153779
H4    H     H_    0.852510 0.453583 0.403405 0.153844
H5    H     H_    0.853677 0.046417 0.904500 0.153641
H6    H     H_    0.853107 0.046416 0.096013 0.153656
H7    H     H_    0.853108 0.953584 0.096012 0.153656
H8    H     H_    0.853675 0.953585 0.904500 0.153642
H9    H     H_    0.352460 0.546415 0.096649 0.153861
H10   H     H_    0.352456 0.453585 0.096653 0.153862
H11   H     H_    0.353062 0.453584 0.903914 0.153790
H12   H     H_    0.354816 0.046420 0.405590 0.153457
H13   H     H_    0.353256 0.046416 0.595869 0.153593
H14   H     H_    0.353254 0.953584 0.595871 0.153594
H15   H     H_    0.354819 0.953586 0.405595 0.153457
H16   H     H_    0.852507 0.546414 0.403403 0.153845
I1    I     I_    0.590920 0.568769 0.655334 -0.243360
I2    I     I_    0.090799 0.568767 0.844776 -0.243362
I3    I     I_    0.090799 0.431232 0.844775 -0.243360
I4    I     I_    0.091230 0.431233 0.155652 -0.243471
I5    I     I_    0.090440 0.068767 0.654876 -0.243078
I6    I     I_    0.090642 0.068765 0.344908 -0.242743
I7    I     I_    0.090637 0.931234 0.344913 -0.242742
I8    I     I_    0.090436 0.931231 0.654873 -0.243075
I9    I     I_    0.404362 0.635705 0.847028 -0.315434
I10   I     I_    0.404285 0.635709 0.153042 -0.315481
I11   I     I_    0.404279 0.364291 0.153048 -0.315483
I12   I     I_    0.591155 0.568768 0.344432 -0.243460
I13   I     I_    0.404362 0.364295 0.847029 -0.315434
I14   I     I_    0.404671 0.135689 0.347366 -0.315392
I15   I     I_    0.404413 0.135704 0.652894 -0.315643
I16   I     I_    0.404409 0.864297 0.652898 -0.315640
I17   I     I_    0.404688 0.864314 0.347387 -0.315401
I18   I     I_    0.904265 0.635708 0.346946 -0.315487
I19   I     I_    0.904384 0.635705 0.652941 -0.315431
I20   I     I_    0.904383 0.364296 0.652942 -0.315434
I21   I     I_    0.904261 0.364290 0.346940 -0.315483
I22   I     I_    0.904481 0.135700 0.847151 -0.315447
I23   I     I_    0.591151 0.431232 0.344436 -0.243457
I24   I     I_    0.904403 0.135705 0.152908 -0.315702
I25   I     I_    0.904404 0.864295 0.152907 -0.315701
I26   I     I_    0.904486 0.864301 0.847159 -0.315450
I27   I     I_    0.590902 0.431231 0.655316 -0.243354
I28   I     I_    0.589575 0.068764 0.154080 -0.242958
I29   I     I_    0.590610 0.068765 0.844936 -0.242821
I30   I     I_    0.590623 0.931234 0.844924 -0.242826
I31   I     I_    0.589576 0.931234 0.154083 -0.242956
I32   I     I_    0.091244 0.568767 0.155667 -0.243474
O1    O     O_3   0.500000 0.750000 0.750000 -0.457544
O2    O     O_R   0.534620 0.865830 0.284610 -0.512583
O3    O     O_R   0.965390 0.134170 0.284610 -0.510472
O4    O     O_R   0.965390 0.365830 0.784610 -0.510464
O5    O     O_R   0.965390 0.365830 0.215390 -0.510512
O6    O     O_R   0.965390 0.634170 0.215390 -0.510514
O7    O     O_R   0.965390 0.634170 0.784610 -0.510465
O8    O     O_R   0.534620 0.134170 0.284610 -0.512588
O9    O     O_R   0.534620 0.134170 0.715390 -0.512412
O10   O     O_R   0.534620 0.365830 0.215390 -0.512299
O11   O     O_R   0.534620 0.365830 0.784610 -0.512344
O12   O     O_R   0.534620 0.634170 0.784610 -0.512342
O13   O     O_R   0.534620 0.634170 0.215390 -0.512297
O14   O     O_R   0.034620 0.865830 0.215390 -0.512361
O15   O     O_R   0.034620 0.865830 0.784610 -0.512423
O16   O     O_R   0.034620 0.134170 0.784610 -0.512424
O17   O     O_3   0.500000 0.750000 0.250000 -0.457547
O18   O     O_R   0.034620 0.134170 0.215390 -0.512361
O19   O     O_R   0.034620 0.365830 0.715390 -0.512357
O20   O     O_R   0.034620 0.365830 0.284610 -0.512296
O21   O     O_R   0.034620 0.634170 0.284610 -0.512293
O22   O     O_R   0.034620 0.634170 0.715390 -0.512357
O23   O     O_R   0.465390 0.780380 0.882040 -0.518482
O24   O     O_R   0.465390 0.780380 0.117960 -0.518407
O25   O     O_R   0.465390 0.219620 0.117960 -0.518407
O26   O     O_R   0.465390 0.219620 0.882040 -0.518481
O27   O     O_R   0.465390 0.280380 0.382040 -0.518538
O28   O     O_3   0.500000 0.250000 0.250000 -0.457547
O29   O     O_R   0.465390 0.280380 0.617960 -0.518533
O30   O     O_R   0.465390 0.719620 0.617960 -0.518535
O31   O     O_R   0.465390 0.719620 0.382040 -0.518540
O32   O     O_R   0.965390 0.780380 0.382040 -0.518517
O33   O     O_R   0.965390 0.780380 0.617960 -0.518496
O34   O     O_R   0.965390 0.219620 0.617960 -0.518497
O35   O     O_R   0.965390 0.219620 0.382040 -0.518517
O36   O     O_R   0.965390 0.280380 0.882040 -0.518529
O37   O     O_R   0.965390 0.280380 0.117960 -0.518561
O38   O     O_R   0.965390 0.719620 0.117960 -0.518562
O39   O     O_3   0.500000 0.250000 0.750000 -0.457543
O40   O     O_R   0.965390 0.719620 0.882040 -0.518530
O41   O     O_R   0.367970 0.780380 0.784610 -0.514450
O42   O     O_R   0.367970 0.780380 0.215390 -0.514484
O43   O     O_R   0.367970 0.219620 0.215390 -0.514478
O44   O     O_R   0.367970 0.219620 0.784610 -0.514450
O45   O     O_R   0.367970 0.280380 0.284610 -0.514444
O46   O     O_R   0.367970 0.280380 0.715390 -0.514442
O47   O     O_R   0.367970 0.719620 0.715390 -0.514441
O48   O     O_R   0.367970 0.719620 0.284610 -0.514446
O49   O     O_R   0.867970 0.780380 0.284610 -0.514478
O50   O     O_3   1.000000 0.750000 0.250000 -0.457540
O51   O     O_R   0.867970 0.780380 0.715390 -0.514468
O52   O     O_R   0.867970 0.219620 0.715390 -0.514465
O53   O     O_R   0.867970 0.219620 0.284610 -0.514476
O54   O     O_R   0.867970 0.280380 0.784610 -0.514448
O55   O     O_R   0.867970 0.280380 0.215390 -0.514410
O56   O     O_R   0.867970 0.719620 0.215390 -0.514412
O57   O     O_R   0.867970 0.719620 0.784610 -0.514448
O58   O     O_R   0.632030 0.780380 0.715400 -0.526154
O59   O     O_R   0.632030 0.780380 0.284600 -0.526260
O60   O     O_R   0.632030 0.219620 0.284600 -0.526261
O61   O     O_3   1.000000 0.750000 0.750000 -0.457544
O62   O     O_R   0.632030 0.219620 0.715400 -0.526155
O63   O     O_R   0.632030 0.280380 0.215400 -0.526071
O64   O     O_R   0.632030 0.280380 0.784600 -0.526113
O65   O     O_R   0.632030 0.719620 0.784600 -0.526112
O66   O     O_R   0.632030 0.719620 0.215400 -0.526071
O67   O     O_R   0.132030 0.780380 0.215400 -0.526141
O68   O     O_R   0.132030 0.780380 0.784600 -0.526164
O69   O     O_R   0.132030 0.219620 0.784600 -0.526164
O70   O     O_R   0.132030 0.219620 0.215400 -0.526141
O71   O     O_R   0.132030 0.280380 0.715400 -0.526121
O72   O     O_3   0.000000 0.250000 0.750000 -0.457543
O73   O     O_R   0.132030 0.280380 0.284600 -0.526089
O74   O     O_R   0.132030 0.719620 0.284600 -0.526088
O75   O     O_R   0.132030 0.719620 0.715400 -0.526121
O76   O     O_R   0.534620 0.719650 0.882050 -0.521592
O77   O     O_R   0.534620 0.719650 0.117950 -0.521617
O78   O     O_R   0.534620 0.280350 0.117950 -0.521618
O79   O     O_R   0.534620 0.280350 0.882050 -0.521592
O80   O     O_R   0.534620 0.219650 0.382050 -0.521543
O81   O     O_R   0.534620 0.219650 0.617950 -0.521578
O82   O     O_R   0.534620 0.780350 0.617950 -0.521578
O83   O     O_3   1.000000 0.250000 0.250000 -0.457540
O84   O     O_R   0.534620 0.780350 0.382050 -0.521538
O85   O     O_R   0.034620 0.719650 0.382050 -0.521595
O86   O     O_R   0.034620 0.719650 0.617950 -0.521579
O87   O     O_R   0.034620 0.280350 0.617950 -0.521580
O88   O     O_R   0.034620 0.280350 0.382050 -0.521595
O89   O     O_R   0.034620 0.219650 0.882050 -0.521556
O90   O     O_R   0.034620 0.219650 0.117950 -0.521553
O91   O     O_R   0.034620 0.780350 0.117950 -0.521552
O92   O     O_R   0.034620 0.780350 0.882050 -0.521555
O93   O     O_R   0.465390 0.865830 0.784610 -0.510410
O94   O     O_R   0.534620 0.865830 0.715390 -0.512411
O95   O     O_R   0.465390 0.865830 0.215390 -0.510266
O96   O     O_R   0.465390 0.134170 0.215390 -0.510262
O97   O     O_R   0.465390 0.134170 0.784610 -0.510410
O98   O     O_R   0.465390 0.365830 0.284610 -0.510506
O99   O     O_R   0.465390 0.365830 0.715390 -0.510480
O100  O     O_R   0.465390 0.634170 0.715390 -0.510481
O101  O     O_R   0.465390 0.634170 0.284610 -0.510507
O102  O     O_R   0.965390 0.865830 0.284610 -0.510471
O103  O     O_R   0.965390 0.865830 0.715390 -0.510411
O104  O     O_R   0.965390 0.134170 0.715390 -0.510409
Zn1   Zn    Zn3+2 0.549450 0.706630 0.799470 1.002300
Zn2   Zn    Zn3+2 0.049450 0.706630 0.700530 1.002282
Zn3   Zn    Zn3+2 0.049450 0.293370 0.700530 1.002282
Zn4   Zn    Zn3+2 0.049450 0.293370 0.299470 1.002340
Zn5   Zn    Zn3+2 0.049450 0.206630 0.799470 1.002232
Zn6   Zn    Zn3+2 0.049450 0.206630 0.200530 1.002292
Zn7   Zn    Zn3+2 0.049450 0.793370 0.200530 1.002291
Zn8   Zn    Zn3+2 0.049450 0.793370 0.799470 1.002233
Zn9   Zn    Zn3+2 0.450550 0.793390 0.799460 1.012169
Zn10  Zn    Zn3+2 0.450550 0.793390 0.200540 1.012273
Zn11  Zn    Zn3+2 0.450550 0.206610 0.200540 1.012276
Zn12  Zn    Zn3+2 0.549450 0.706630 0.200530 1.002320
Zn13  Zn    Zn3+2 0.450550 0.206610 0.799460 1.012170
Zn14  Zn    Zn3+2 0.450550 0.293390 0.299460 1.012078
Zn15  Zn    Zn3+2 0.450550 0.293390 0.700540 1.012091
Zn16  Zn    Zn3+2 0.450550 0.706610 0.700540 1.012090
Zn17  Zn    Zn3+2 0.450550 0.706610 0.299460 1.012077
Zn18  Zn    Zn3+2 0.950550 0.793390 0.299460 1.012085
Zn19  Zn    Zn3+2 0.950550 0.793390 0.700540 1.012147
Zn20  Zn    Zn3+2 0.950550 0.206610 0.700540 1.012147
Zn21  Zn    Zn3+2 0.950550 0.206610 0.299460 1.012085
Zn22  Zn    Zn3+2 0.950550 0.293390 0.799460 1.012102
Zn23  Zn    Zn3+2 0.549450 0.293370 0.200530 1.002319
Zn24  Zn    Zn3+2 0.950550 0.293390 0.200540 1.012074
Zn25  Zn    Zn3+2 0.950550 0.706610 0.200540 1.012072
Zn26  Zn    Zn3+2 0.950550 0.706610 0.799460 1.012102
Zn27  Zn    Zn3+2 0.549450 0.293370 0.799470 1.002298
Zn28  Zn    Zn3+2 0.549450 0.206630 0.299470 1.002083
Zn29  Zn    Zn3+2 0.549450 0.206630 0.700530 1.002231
Zn30  Zn    Zn3+2 0.549450 0.793370 0.700530 1.002233
Zn31  Zn    Zn3+2 0.549450 0.793370 0.299470 1.002086
Zn32  Zn    Zn3+2 0.049450 0.706630 0.299470 1.002342

loop_
_geom_bond_atom_site_label_1
_geom_bond_atom_site_label_2
_ccdc_geom_bond_type
O46   Zn15  S    
C41   H14   S    
C60   C79   A    
O104  Zn20  S    
C141  O41   A    
C62   C77   A    
O32   Zn18  S    
C34   H1    S    
C114  C115  T    
C137  O90   A    
C38   H11   S    
C140  O92   A    
O28   Zn11  S    
C143  O43   A    
O15   Zn8   S    
C103  I7    S    
C63   C76   A    
O21   Zn32  S    
C1    C77   S    
C108  C109  T    
C135  O35   A    
C147  O52   A    
C110  C111  T    
C19   C37   A    
C66   C72   A    
C78   C96   A    
O27   Zn14  S    
C4    C12   T    
C24   C85   S    
O39   Zn27  S    
O57   Zn26  S    
C124  O77   A    
O42   Zn10  S    
C148  O55   A    
C31   I24   S    
C145  O49   A    
O2    Zn31  S    
C102  I6    S    
O39   Zn13  S    
C88   I1    S    
C156  O71   A    
C20   I13   S    
O12   Zn1   S    
O61   Zn2   S    
C81   C99   A    
C5    C155  S    
O83   Zn21  S    
O64   Zn27  S    
O36   Zn22  S    
O68   Zn8   S    
C138  O38   A    
O70   Zn6   S    
C145  O56   A    
C124  O24   A    
O26   Zn13  S    
O39   Zn15  S    
C47   H4    S    
O72   Zn22  S    
C72   C106  S    
O7    Zn26  S    
C35   O19   A    
C154  O74   A    
C17   C34   A    
C13   O16   A    
C55   C83   A    
C26   I18   S    
C10   C160  T    
C32   C53   A    
O14   Zn7   S    
C129  O29   A    
C79   C97   A    
O62   Zn29  S    
C155  O68   A    
O75   Zn2   S    
C59   C80   A    
C7    C157  S    
C28   C58   A    
C127  O27   A    
C23   C41   A    
C120  C135  S    
C51   H8    S    
C45   H3    S    
C49   H6    S    
C113  C124  S    
O28   Zn28  S    
C116  C118  T    
C117  O11   A    
O33   Zn19  S    
C155  O75   A    
C69   C70   A    
C151  O66   A    
O52   Zn20  S    
C3    C11   T    
O1    Zn9   S    
O74   Zn32  S    
C98   C99   A    
O8    Zn28  S    
C43   C47   A    
C95   O97   A    
O65   Zn1   S    
O94   Zn30  S    
C17   C69   A    
C128  O100  A    
O83   Zn24  S    
C94   I30   S    
O89   Zn5   S    
O1    Zn16  S    
O79   Zn27  S    
O76   Zn1   S    
C152  O60   A    
C33   C52   A    
C105  C107  T    
C29   C47   A    
C30   C48   A    
C36   C37   A    
O20   Zn4   S    
C86   C150  S    
C75   C84   S    
C77   C94   A    
C32   I25   S    
C142  O48   A    
O60   Zn28  S    
C19   C66   A    
O82   Zn30  S    
C68   O7    A    
C21   C64   A    
C95   O9    A    
C22   C63   A    
O102  Zn18  S    
C27   C44   A    
C106  O98   A    
C23   C62   A    
C48   H5    S    
C71   C89   A    
O50   Zn32  S    
C98   I2    S    
C149  C158  S    
C128  O12   A    
O50   Zn18  S    
C139  O13   A    
C66   C67   A    
C22   C40   A    
O3    Zn21  S    
O97   Zn13  S    
C130  O82   A    
C23   I16   S    
C24   O3    A    
C68   O22   A    
O84   Zn31  S    
C119  C134  S    
C17   I9    S    
C90   I23   S    
O23   Zn9   S    
C144  O46   A    
O61   Zn26  S    
C65   C74   A    
C151  C159  S    
C146  O57   A    
C35   O4    A    
O77   Zn12  S    
C72   C90   A    
C88   C91   A    
C46   O5    A    
C2    C87   S    
C133  O86   A    
O11   Zn27  S    
C30   I22   S    
C2    O103  A    
C109  C129  S    
O34   Zn20  S    
C1    O94   A    
O29   Zn15  S    
C121  C132  S    
O53   Zn21  S    
C100  I4    S    
C97   I32   S    
C97   C100  A    
C101  I5    S    
C136  O89   A    
C83   C101  A    
C140  O40   A    
C8    C146  S    
O17   Zn17  S    
C56   C82   A    
C105  C130  S    
C132  O32   A    
O43   Zn11  S    
C28   I20   S    
C64   C75   A    
O83   Zn6   S    
C114  C138  S    
O96   Zn11  S    
C102  C103  A    
C126  O26   A    
O4    Zn22  S    
C49   C50   A    
C143  O45   A    
C10   C148  S    
O24   Zn10  S    
C22   I15   S    
C26   C60   A    
C6    C156  S    
C85   C102  A    
C4    C154  S    
O72   Zn5   S    
O88   Zn4   S    
C153  O62   A    
O37   Zn24  S    
C8    C158  T    
O91   Zn7   S    
O92   Zn8   S    
O71   Zn3   S    
C44   H2    S    
O39   Zn29  S    
C123  O76   A    
O54   Zn22  S    
C152  O63   A    
C33   I26   S    
C132  O85   A    
C134  O34   A    
C19   I11   S    
O63   Zn23  S    
O61   Zn19  S    
O67   Zn7   S    
C73   O95   A    
O73   Zn4   S    
C92   I28   S    
C52   C55   A    
O103  Zn19  S    
C70   C88   A    
C150  O14   A    
O99   Zn15  S    
C149  O58   A    
C31   C49   A    
O41   Zn9   S    
C39   C42   A    
O48   Zn17  S    
O28   Zn14  S    
O101  Zn17  S    
O30   Zn16  S    
O56   Zn25  S    
C20   C65   A    
C16   C143  S    
C112  C123  S    
C58   C81   A    
O72   Zn20  S    
C96   I31   S    
C58   C59   A    
C53   C54   A    
C56   C60   A    
O5    Zn24  S    
O83   Zn4   S    
C149  O65   A    
C74   C91   A    
C61   C64   A    
C99   I3    S    
C39   H12   S    
O100  Zn16  S    
C76   C93   A    
C57   O21   A    
C43   H16   S    
C139  O101  A    
O47   Zn16  S    
C111  C126  S    
C25   C61   A    
C5    C14   T    
O22   Zn2   S    
O78   Zn23  S    
C151  O59   A    
C7    C16   T    
C104  I8    S    
O45   Zn14  S    
C101  C104  A    
C153  O64   A    
C27   I19   S    
C25   I17   S    
C44   C45   A    
O9    Zn29  S    
C125  O78   A    
O17   Zn10  S    
C80   C98   A    
C127  O80   A    
C25   C42   A    
C119  C120  T    
C116  C136  S    
C29   C56   A    
C33   C51   A    
C30   C55   A    
C13   C83   S    
O98   Zn14  S    
C11   C147  S    
O28   Zn23  S    
C65   C69   A    
C9    C145  S    
C12   C142  S    
C67   C71   A    
O40   Zn26  S    
C87   C104  A    
C123  O23   A    
C115  C140  S    
C137  O37   A    
O17   Zn31  S    
C46   O20   A    
O50   Zn25  S    
C89   C90   A    
C18   C36   A    
C91   I27   S    
C68   C80   S    
C152  C160  S    
C93   C94   A    
C142  O42   A    
C57   C79   S    
O85   Zn32  S    
C92   C96   A    
C93   I29   S    
C35   C81   S    
C36   H9    S    
C62   C63   A    
C131  O84   A    
O38   Zn25  S    
O49   Zn18  S    
O17   Zn12  S    
C42   H15   S    
O35   Zn21  S    
C76   C95   S    
C40   H13   S    
C9    C159  T    
O66   Zn12  S    
C3    C153  S    
O81   Zn29  S    
C134  O87   A    
C133  O33   A    
C157  O70   A    
O86   Zn2   S    
C48   C51   A    
C117  O99   A    
O59   Zn31  S    
C73   C78   S    
C53   C86   A    
C148  O53   A    
C118  C137  S    
O51   Zn19  S    
O90   Zn6   S    
O95   Zn10  S    
O69   Zn5   S    
C6    C15   T    
C14   C141  S    
C129  O81   A    
C31   C54   A    
C46   C82   S    
C126  O79   A    
C1    O93   A    
C146  O51   A    
C24   O18   A    
C86   C103  A    
O1    Zn1   S    
C112  C113  T    
C26   C43   A    
O80   Zn28  S    
C28   C45   A    
C136  O36   A    
O10   Zn23  S    
C141  O47   A    
C73   O2    A    
C107  C131  S    
C131  O31   A    
C37   H10   S    
C71   C139  S    
C18   C67   A    
C18   I10   S    
O16   Zn5   S    
C135  O88   A    
C122  C133  S    
C20   C38   A    
O1    Zn30  S    
C21   C39   A    
O6    Zn25  S    
C61   C78   A    
O18   Zn6   S    
O87   Zn3   S    
O31   Zn17  S    
O19   Zn3   S    
C121  C122  T    
C147  O54   A    
C32   C50   A    
C75   C92   A    
C40   C41   A    
C29   I21   S    
O93   Zn9   S    
O58   Zn30  S    
O50   Zn7   S    
C157  O73   A    
C70   C128  S    
O25   Zn11  S    
C74   C117  S    
C130  O30   A    
C106  O10   A    
C34   C38   A    
C82   C100  A    
C52   C87   A    
C54   C85   A    
C138  O91   A    
C13   O104  A    
C156  O69   A    
C27   C59   A    
C21   I14   S    
O61   Zn8   S    
O72   Zn3   S    
C2    O15   A    
C89   I12   S    
C108  C127  S    
C144  O44   A    
C154  O67   A    
C125  O25   A    
C110  C125  S    
C15   C144  S    
O13   Zn12  S    
C84   O96   A    
C57   O6    A    
C150  O102  A    
C50   H7    S    
O44   Zn13  S    
C84   O8    A    
O55   Zn24  S    
