data_mof_unit_25153.cif
_audit_creation_date              2013-03-05T16:36:13-0500
_audit_creation_method            fapswitch 2.2
_symmetry_space_group_name_H-M    P1
_symmetry_Int_Tables_number       1
_space_group_crystal_system       monoclinic
_cell_length_a                    27.827031
_cell_length_b                    9.088842
_cell_length_c                    7.788675
_cell_angle_alpha                 90.0
_cell_angle_beta                  90.0
_cell_angle_gamma                 89.999968
_cell_volume                      1969.87653918

loop_
_atom_site_label
_atom_site_type_symbol
_atom_site_description
_atom_site_fract_x
_atom_site_fract_y
_atom_site_fract_z
_atom_type_partial_charge
O1    O     O_R   0.500000 0.288390 0.642760 -0.575971
O2    O     O_R   0.500000 0.711610 0.357240 -0.575971
O3    O     O_R   0.500000 0.711610 0.642760 -0.575971
O4    O     O_R   0.500000 0.288390 0.357240 -0.575971
C1    C     C_R   0.500000 0.220041 0.500000 0.849574
C2    C     C_R   0.500000 0.779959 0.500000 0.849574
O5    O     O_R   0.430260 0.500000 0.642770 -0.585803
O6    O     O_R   0.569740 0.500000 0.357230 -0.585803
O7    O     O_R   0.569740 0.500000 0.642770 -0.585803
O8    O     O_R   0.430260 0.500000 0.357230 -0.585803
C3    C     C_R   0.407224 0.500000 0.500000 0.808172
C4    C     C_R   0.592776 0.500000 0.500000 0.808172
Cu1   Cu    Cu3+1 0.500000 0.500000 0.669080 1.003674
Cu2   Cu    Cu3+1 0.500000 0.500000 0.330920 1.003674
C5    C     C_R   0.177553 0.370339 0.475616 0.648124
C6    C     C_R   0.822447 0.629668 0.475618 0.648131
C7    C     C_R   0.177554 0.629665 0.524384 0.648124
C8    C     C_R   0.822446 0.370342 0.524383 0.648115
O9    O     O_2   0.202433 0.244781 0.450002 -0.516999
O10   O     O_2   0.797567 0.755227 0.450006 -0.516998
O11   O     O_2   0.202433 0.755223 0.549998 -0.516999
O12   O     O_2   0.797567 0.244784 0.549996 -0.517002
N1    N     N_R   0.201600 0.500002 0.500000 -0.432373
N2    N     N_R   0.798400 0.500005 0.500001 -0.432373
C9    C     C_R   0.278780 0.543910 0.350820 -0.009264
C10   C     C_R   0.721221 0.456095 0.350820 -0.009260
C11   C     C_R   0.278780 0.456092 0.649180 -0.009263
C12   C     C_R   0.721220 0.543914 0.649181 -0.009267
C13   C     C_R   0.329056 0.542623 0.352922 -0.301338
C14   C     C_R   0.670944 0.457380 0.352922 -0.301339
C15   C     C_R   0.329056 0.457379 0.647078 -0.301339
C16   C     C_R   0.670944 0.542624 0.647078 -0.301339
C17   C     C_R   0.253236 0.500001 0.500000 0.335095
C18   C     C_R   0.746764 0.500005 0.500000 0.335096
C19   C     C_R   0.101631 0.500003 0.500000 -0.037271
C20   C     C_R   0.898369 0.500005 0.500000 -0.037270
C21   C     C_R   0.127145 0.367406 0.478790 -0.010870
C22   C     C_R   0.872855 0.632601 0.478792 -0.010871
C23   C     C_R   0.127145 0.632599 0.521209 -0.010870
C24   C     C_R   0.872855 0.367408 0.521209 -0.010868
C25   C     C_R   0.101893 0.235383 0.460391 -0.127070
C26   C     C_R   0.898107 0.764625 0.460394 -0.127070
C27   C     C_R   0.101893 0.764623 0.539608 -0.127070
C28   C     C_R   0.898107 0.235384 0.539606 -0.127070
C29   C     C_R   0.354346 0.500000 0.500000 -0.009628
C30   C     C_R   0.645654 0.500001 0.500000 -0.009628
H1    H     H_    0.348665 0.423839 0.760842 0.151020
H2    H     H_    0.651334 0.576163 0.760842 0.151020
H3    H     H_    0.348665 0.576162 0.239158 0.151020
H4    H     H_    0.651335 0.423840 0.239158 0.151020
H5    H     H_    0.120646 0.132317 0.440749 0.184634
H6    H     H_    0.879354 0.867690 0.440753 0.184633
H7    H     H_    0.120647 0.867688 0.559250 0.184634
H8    H     H_    0.879353 0.132319 0.559248 0.184634
C31   C     C_R   0.974591 0.364500 0.507445 0.047328
C32   C     C_R   0.025409 0.635507 0.507446 0.047328
C33   C     C_R   0.974591 0.635508 0.492555 0.047328
C34   C     C_R   0.025409 0.364500 0.492554 0.047328
C35   C     C_R   0.949354 0.500004 0.500000 0.073027
C36   C     C_R   0.050646 0.500003 0.500000 0.073027
C37   C     C_R   0.948020 0.233566 0.531647 -0.197047
C38   C     C_R   0.051980 0.766441 0.531649 -0.197046
C39   C     C_R   0.948021 0.766442 0.468353 -0.197046
C40   C     C_R   0.051979 0.233565 0.468350 -0.197047
H9    H     H_    0.965021 0.128311 0.550788 0.130361
H10   H     H_    0.034979 0.871696 0.550791 0.130361
H11   H     H_    0.965021 0.871697 0.449213 0.130360
H12   H     H_    0.034979 0.128310 0.449209 0.130361
C41   C     C_1   0.500000 0.065384 0.500000 -0.169244
C42   C     C_1   0.500000 0.934616 0.500000 -0.169244
N3    N     N_1   0.500000 0.500000 0.076820 -0.050668
N4    N     N_1   0.500000 0.500000 0.923180 -0.050668
C43   C     C_2   0.254858 0.407869 0.810272 0.421641
H13   H     H_    0.276404 0.364206 0.914743 0.058861
O13   O     O_2   0.211494 0.417307 0.830671 -0.502786
C44   C     C_2   0.745141 0.592137 0.810272 0.421647
H14   H     H_    0.723595 0.635796 0.914744 0.058861
O14   O     O_2   0.788506 0.582702 0.830671 -0.502782
C45   C     C_2   0.254858 0.592134 0.189728 0.421641
H15   H     H_    0.276404 0.635797 0.085257 0.058861
O15   O     O_2   0.211494 0.582696 0.169329 -0.502786
C46   C     C_2   0.745142 0.407872 0.189729 0.421632
H16   H     H_    0.723597 0.364198 0.085262 0.058864
O16   O     O_2   0.788506 0.417324 0.169325 -0.502785

loop_
_geom_bond_atom_site_label_1
_geom_bond_atom_site_label_2
_geom_bond_distance
_ccdc_geom_bond_type
C31   C35   1.418909 A    
C43   O13   1.220134 D    
Cu2   N3    1.979102 S    
C20   C35   1.418770 A    
C13   H3    1.084341 S    
C11   C17   1.419357 A    
C5    O9    1.349598 S    
C7    N1    1.368450 A    
O1    C1    1.273677 A    
C40   H12   1.077590 S    
C19   C21   1.408452 A    
C44   O14   1.220134 D    
C22   C26   1.397914 A    
C33   C35   1.418910 A    
C34   C36   1.418910 A    
O7    Cu1   1.951443 S    
C32   C33   1.418848 A    
C7    C23   1.403193 A    
C8    C24   1.403193 A    
C5    C21   1.403193 A    
C1    C41   1.405651 S    
C27   H7    1.083153 S    
N1    C17   1.436865 S    
C8    N2    1.368449 A    
C8    O12   1.349597 S    
C24   C28   1.397915 A    
O3    Cu1   1.934184 S    
C6    O10   1.349598 S    
O3    C2    1.273677 A    
C5    N1    1.368450 A    
C14   H4    1.084340 S    
C12   C18   1.419358 A    
C6    N2    1.368450 A    
C15   H1    1.084339 S    
Cu1   Cu2   2.633819 S    
C21   C25   1.397916 A    
C16   H2    1.084339 S    
O2    C2    1.273678 A    
C10   C18   1.419358 A    
C33   C39   1.413656 A    
C43   H13   1.085842 S    
C9    C13   1.399193 A    
C39   H11   1.077589 S    
C38   H10   1.077590 S    
C11   C15   1.399196 A    
C12   C16   1.399193 A    
C44   H14   1.085841 S    
C4    C30   1.471421 S    
O8    Cu2   1.951446 S    
C45   O15   1.220134 D    
C23   C27   1.397915 A    
C34   C40   1.413657 A    
N2    C18   1.436865 S    
C32   C36   1.418909 A    
C13   C29   1.399140 A    
C19   C36   1.418770 A    
C19   C23   1.408453 A    
C28   H8    1.083152 S    
O5    C3    1.283530 A    
C20   C24   1.408454 A    
O6    C4    1.283530 A    
C10   C14   1.399193 A    
C46   O16   1.220137 D    
C32   C38   1.413656 A    
C3    C29   1.471421 S    
O1    Cu1   1.934185 S    
C12   C44   1.486424 S    
C2    C42   1.405651 S    
O6    Cu2   1.951443 S    
C9    C45   1.486423 S    
C16   C30   1.399140 A    
C14   C30   1.399139 A    
O4    C1    1.273678 A    
Cu1   N4    1.979102 S    
C28   C37   1.390425 A    
C20   C22   1.408452 A    
N3    N4    1.196653 T    
C31   C37   1.413657 A    
O4    Cu2   1.934185 S    
C41   C42   1.188529 T    
O2    Cu2   1.934184 S    
O7    C4    1.283530 A    
C7    O11   1.349598 S    
C9    C17   1.419358 A    
O8    C3    1.283530 A    
C45   H15   1.085843 S    
C37   H9    1.077591 S    
O5    Cu1   1.951446 S    
C10   C46   1.486422 S    
C46   H16   1.085845 S    
C15   C29   1.399139 A    
C31   C34   1.418848 A    
C6    C22   1.403193 A    
C25   C40   1.390425 A    
C11   C43   1.486423 S    
C26   C39   1.390428 A    
C25   H5    1.083153 S    
C27   C38   1.390425 A    
C26   H6    1.083152 S    
