data_mof_unit_36997.cif
_audit_creation_date              2012-12-11T15:53:39-0500
_audit_creation_method            fapswitch 2.2
_symmetry_space_group_name_H-M    P1
_symmetry_Int_Tables_number       1
_space_group_crystal_system       triclinic
_cell_length_a                    6.928494
_cell_length_b                    14.529852
_cell_length_c                    15.971845
_cell_angle_alpha                 90.583014
_cell_angle_beta                  90.079714
_cell_angle_gamma                 89.80264
_cell_volume                      1607.79125722

loop_
_atom_site_label
_atom_site_type_symbol
_atom_type_description
_atom_site_fract_x
_atom_site_fract_y
_atom_site_fract_z
_atom_type_partial_charge
O1    O     O_R   0.361600 0.167310 0.164620 -0.529429
O2    O     O_R   0.638400 0.832690 0.835380 -0.528891
O3    O     O_R   0.691080 0.157570 0.338750 -0.554716
O4    O     O_R   0.308920 0.842430 0.661250 -0.555086
O5    O     O_R   0.861410 0.336420 0.339360 -0.548873
O6    O     O_R   0.138590 0.663580 0.660640 -0.549369
C1    C     C_R   0.522203 0.135151 0.367473 0.649678
C2    C     C_R   0.477796 0.864844 0.632523 0.649961
O7    O     O_R   0.691320 0.156280 0.165240 -0.500212
O8    O     O_R   0.308680 0.843720 0.834760 -0.501623
O9    O     O_R   0.861640 0.335130 0.164600 -0.515732
O10   O     O_R   0.138360 0.664870 0.835400 -0.515460
C3    C     C_R   0.523210 0.135889 0.134521 0.813996
C4    C     C_R   0.476817 0.864144 0.865453 0.815497
O11   O     O_R   0.361370 0.168600 0.339370 -0.552199
O12   O     O_R   0.638630 0.831400 0.660630 -0.552068
O13   O     O_3   0.527990 0.310540 0.251980 -0.367910
O14   O     O_3   0.472010 0.689460 0.748020 -0.368393
V1    V     V_3+5 0.802830 0.240980 0.251990 1.551751
V2    V     V_3+5 0.197170 0.759020 0.748010 1.553700
O15   O     O_R   0.191360 0.346160 0.165220 -0.536180
O16   O     O_R   0.808640 0.653840 0.834780 -0.536647
C5    C     C_R   0.021411 0.369529 0.137270 0.772478
C6    C     C_R   0.978589 0.630435 0.862700 0.776926
O17   O     O_R   0.191130 0.347440 0.338740 -0.547924
O18   O     O_R   0.808870 0.652560 0.661260 -0.548439
C7    C     C_R   0.022239 0.369656 0.367623 0.648146
C8    C     C_R   0.977761 0.630345 0.632376 0.645869
V3    V     V_3+5 0.302840 0.262750 0.251990 1.507090
V4    V     V_3+5 0.697160 0.737250 0.748010 1.512246
O19   O     O_3   0.027820 0.193180 0.251990 -0.362727
O20   O     O_3   0.972180 0.806820 0.748010 -0.363286
C9    C     C_3   0.923291 0.419929 0.524286 -0.139704
C10   C     C_3   0.076709 0.580073 0.475712 -0.140437
C11   C     C_3   0.097390 0.468452 0.566603 -0.138686
C12   C     C_3   0.902611 0.531550 0.433395 -0.139341
H1    H     H_    0.177531 0.442890 0.621980 0.117730
H2    H     H_    0.822469 0.557112 0.378018 0.118132
H3    H     H_    0.860059 0.353434 0.543838 0.109845
H4    H     H_    0.139941 0.646568 0.456160 0.107416
C13   C     C_3   0.988288 0.560726 0.562128 -0.001483
C14   C     C_3   0.011712 0.439275 0.437870 -0.002283
C15   C     C_3   0.813982 0.513011 0.520608 -0.114650
C16   C     C_3   0.186019 0.486990 0.479390 -0.114391
H5    H     H_    0.660493 0.523988 0.538009 0.110893
H6    H     H_    0.339508 0.476014 0.461989 0.110866
C17   C     C_R   0.836731 0.554972 0.987988 -0.115500
C18   C     C_R   0.163213 0.444918 0.011927 -0.136205
H7    H     H_    0.710584 0.598523 0.980234 0.146602
H8    H     H_    0.289342 0.401354 0.019674 0.145464
C19   C     C_R   0.843984 0.494373 0.055738 -0.031871
C20   C     C_R   0.155963 0.505525 0.944180 -0.033252
C21   C     C_R   0.008748 0.437857 0.068288 -0.082279
C22   C     C_R   0.991223 0.562061 0.931647 -0.080090
C23   C     C_R   0.679627 0.025878 0.468242 -0.153470
C24   C     C_R   0.320370 0.974106 0.531744 -0.154158
H9    H     H_    0.820451 0.044698 0.444762 0.115171
H10   H     H_    0.179545 0.955286 0.555223 0.115791
C25   C     C_R   0.668519 0.960781 0.532023 -0.145846
C26   C     C_R   0.331478 0.039203 0.467963 -0.149096
H11   H     H_    0.801401 0.931415 0.555706 0.116254
H12   H     H_    0.198596 0.068568 0.444279 0.116575
C27   C     C_R   0.488738 0.934024 0.564669 -0.035039
C28   C     C_R   0.511260 0.065963 0.435320 -0.036094
C29   C     C_R   0.647052 0.067060 0.997034 0.493156
C30   C     C_R   0.353328 0.932884 0.003008 0.450246
C31   C     C_R   0.631886 0.999215 0.934158 -0.210815
C32   C     C_R   0.368170 0.000871 0.065762 -0.243997
H13   H     H_    0.732820 0.999352 0.882458 0.197396
H14   H     H_    0.267086 0.000796 0.117407 0.186459
C33   C     C_R   0.485899 0.932432 0.935403 -0.236408
C34   C     C_R   0.514220 0.067612 0.064558 -0.237169
C35   C     C_1   0.682595 0.495141 0.112895 0.314882
N1    N     N_1   0.553014 0.496266 0.158542 -0.341490
C36   C     C_1   0.317330 0.504757 0.887013 0.308450
N2    N     N_1   0.446893 0.503636 0.841356 -0.341337
S1    S     S_3+6 0.825910 0.152941 0.985374 -0.009927
O21   O     O_2   0.737965 0.246289 0.000802 -0.363164
O22   O     O_2   0.985256 0.136844 0.047504 -0.335488
O23   O     O_3   0.918913 0.149278 0.888158 -0.514843
H15   H     H_    0.021371 0.196671 0.888348 0.362014
S2    S     S_3+6 0.175386 0.846602 0.015002 0.010957
O24   O     O_2   0.014422 0.862820 0.953734 -0.310403
O25   O     O_2   0.262164 0.753229 0.998382 -0.362650
O26   O     O_3   0.083147 0.849198 0.112376 -0.494705
H16   H     H_    0.188370 0.826333 0.148803 0.329798

loop_
_geom_bond_atom_site_label_1
_geom_bond_atom_site_label_2
_ccdc_geom_bond_type
C30   C32   A    
O11   V3    S    
C23   C25   A    
O13   V3    S    
C4    C33   S    
C12   C14   S    
O4    C2    A    
C20   C36   S    
V1    O19   S    
C17   H7    S    
S1    O21   D    
O9    V1    S    
C9    H3    S    
C10   H4    S    
C9    C14   S    
C11   H1    S    
O3    C1    A    
O12   V4    S    
C8    C13   S    
C26   H12   S    
C35   N1    T    
O9    C5    A    
O7    C3    A    
O13   V1    S    
O5    C7    A    
O7    V1    S    
O6    C8    A    
O8    V2    S    
C29   C31   A    
O3    V1    S    
O14   V4    S    
O14   V2    S    
C20   C22   A    
C18   H8    S    
C2    O12   A    
C13   C15   S    
C10   C13   S    
C14   C16   S    
O2    C4    A    
C16   H6    S    
C5    C21   S    
S1    O22   D    
O17   V3    S    
C18   C21   A    
C25   H11   S    
C29   S1    S    
C9    C15   S    
C10   C16   S    
O8    C4    A    
C17   C19   A    
O26   H16   S    
O15   V3    S    
C24   C26   A    
C19   C21   A    
C36   N2    T    
C30   S2    S    
C30   C33   A    
C32   C34   A    
C23   C28   A    
O10   V2    S    
O1    V3    S    
C24   C27   A    
C11   C16   S    
C15   H5    S    
C17   C22   A    
O18   V4    S    
S2    O25   D    
C23   H9    S    
O16   C6    A    
O1    C3    A    
C12   H2    S    
S2    O26   S    
V2    O20   S    
S1    O23   S    
O16   V4    S    
C25   C27   A    
C19   C35   S    
O23   H15   S    
O5    V1    S    
C3    C34   S    
O17   C7    A    
C29   C34   A    
O6    V2    S    
O10   C6    A    
O18   C8    A    
O2    V4    S    
C26   C28   A    
O15   C5    A    
V3    O19   S    
V4    O20   S    
C7    C14   S    
C1    O11   A    
C9    C11   S    
C10   C12   S    
C24   H10   S    
C31   C33   A    
C11   C13   S    
C1    C28   S    
C2    C27   S    
O4    V2    S    
C18   C20   A    
C32   H14   S    
S2    O24   D    
C12   C15   S    
C31   H13   S    
C6    C22   S    
