data_mof_unit_19595.cif
_audit_creation_date              2012-12-10T17:53:18-0500
_audit_creation_method            fapswitch 2.2
_symmetry_space_group_name_H-M    P1
_symmetry_Int_Tables_number       1
_space_group_crystal_system       triclinic
_cell_length_a                    23.432399
_cell_length_b                    10.626783
_cell_length_c                    9.913354
_cell_angle_alpha                 89.871506
_cell_angle_beta                  89.809271
_cell_angle_gamma                 91.663453
_cell_volume                      2467.47366602

loop_
_atom_site_label
_atom_site_type_symbol
_atom_type_description
_atom_site_fract_x
_atom_site_fract_y
_atom_site_fract_z
_atom_type_partial_charge
C1    C     C_R   0.501008 0.260893 0.500139 0.864115
C2    C     C_R   0.966277 0.278059 0.541305 -0.145813
C3    C     C_R   0.025511 0.276282 0.540892 -0.150714
C4    C     C_R   0.057722 0.387945 0.520677 -0.013834
C5    C     C_R   0.029988 0.502617 0.500638 -0.017361
C6    C     C_R   0.062279 0.614761 0.480624 -0.028204
C7    C     C_R   0.034730 0.728337 0.460419 -0.192240
C8    C     C_R   0.975271 0.732251 0.459735 -0.019889
C9    C     C_R   0.117310 0.388188 0.520146 0.515630
C10   C     C_R   0.121821 0.610379 0.481497 0.522820
C11   C     C_R   0.238025 0.497923 0.625451 0.046655
C12   C     C_R   0.389401 0.499083 0.500285 0.845247
C13   C     C_R   0.297386 0.498219 0.624266 -0.246001
C14   C     C_R   0.327161 0.497724 0.501119 -0.055372
C15   C     C_R   0.297069 0.496015 0.379009 -0.201207
C16   C     C_R   0.237884 0.495554 0.380025 -0.094281
C17   C     C_R   0.208385 0.496723 0.502639 0.273539
C18   C     C_R   0.762065 0.495201 0.375775 0.045870
C19   C     C_R   0.702689 0.494099 0.376548 -0.243247
C20   C     C_R   0.672839 0.501448 0.499196 -0.059374
C21   C     C_R   0.702861 0.509993 0.621208 -0.236008
C22   C     C_R   0.762049 0.511279 0.620589 -0.117442
C23   C     C_R   0.500083 0.739294 0.499813 0.845299
C24   C     C_R   0.791613 0.503971 0.498461 0.285154
C25   C     C_R   0.601639 0.135585 0.590411 -0.169035
C26   C     C_R   0.649572 0.071883 0.632888 -0.111459
C27   C     C_R   0.649149 0.940962 0.631506 -0.123159
C28   C     C_R   0.600760 0.873453 0.587873 -0.175787
C29   C     C_R   0.551458 0.936685 0.545359 0.101355
C30   C     C_R   0.552129 0.068350 0.546405 0.098239
C31   C     C_R   0.503410 0.128949 0.500157 -0.129804
C32   C     C_R   0.455450 0.064288 0.451836 -0.189519
C33   C     C_R   0.453496 0.934657 0.451799 -0.040248
C34   C     C_R   0.610599 0.500538 0.499747 0.850739
C35   C     C_R   0.501664 0.872068 0.499381 -0.182915
C36   C     C_R   0.424965 0.335285 0.140960 -0.161597
C37   C     C_R   0.387913 0.254423 0.071197 -0.174040
C38   C     C_R   0.387867 0.254569 0.931566 -0.180728
C39   C     C_R   0.424923 0.335468 0.860871 -0.159554
C40   C     C_R   0.462996 0.418926 0.928155 0.167978
C41   C     C_R   0.463011 0.418916 0.072757 0.170671
C42   C     C_R   0.535436 0.577469 0.071021 -0.107716
C43   C     C_R   0.535429 0.577426 0.927902 -0.107013
C44   C     C_R   0.881757 0.616290 0.480969 0.510217
C45   C     C_R   0.878846 0.393938 0.520303 0.516572
C46   C     C_R   0.938211 0.391403 0.521035 -0.009867
C47   C     C_R   0.969975 0.504828 0.500595 -0.027231
C48   C     C_R   0.941955 0.619790 0.480160 -0.058173
H1    H     H_    0.942562 0.190325 0.557567 0.202262
H2    H     H_    0.679944 0.487198 0.281652 0.166428
H3    H     H_    0.680730 0.516010 0.716973 0.167513
H4    H     H_    0.785125 0.517957 0.714906 0.149779
H5    H     H_    0.419036 0.116096 0.416936 0.174112
H6    H     H_    0.603969 0.237312 0.591207 0.146178
H7    H     H_    0.687253 0.124282 0.666073 0.164361
H8    H     H_    0.686515 0.891496 0.663613 0.158369
H9    H     H_    0.602700 0.771935 0.586757 0.140770
H10   H     H_    0.564395 0.640776 0.124372 0.150850
H11   H     H_    0.045914 0.187275 0.556611 0.195237
H12   H     H_    0.422495 0.329265 0.247926 0.202478
H13   H     H_    0.359106 0.191151 0.126021 0.183559
H14   H     H_    0.359002 0.191454 0.877487 0.170160
H15   H     H_    0.422489 0.329681 0.753919 0.205971
H16   H     H_    0.564377 0.640724 0.873710 0.146681
H17   H     H_    0.059561 0.814941 0.444782 0.196245
H18   H     H_    0.320176 0.499328 0.719294 0.170209
H19   H     H_    0.319141 0.495287 0.282856 0.171325
H20   H     H_    0.214760 0.494678 0.285608 0.151681
N1    N     N_R   0.852339 0.504815 0.500164 -0.358024
N2    N     N_R   0.147703 0.498387 0.501277 -0.362119
N3    N     N_R   0.499460 0.498800 0.142780 -0.121754
N4    N     N_R   0.499440 0.498720 0.857170 -0.121224
O1    O     O_R   0.500000 0.316780 0.614690 -0.634130
O2    O     O_2   0.847548 0.286571 0.538974 -0.548847
O3    O     O_2   0.144843 0.279637 0.538314 -0.539779
O4    O     O_2   0.153776 0.716867 0.463323 -0.529512
O5    O     O_R   0.500000 0.316750 0.385360 -0.627000
O6    O     O_R   0.416160 0.499970 0.614690 -0.635841
O7    O     O_R   0.416150 0.499950 0.385360 -0.644706
O8    O     O_R   0.500000 0.683250 0.614640 -0.606753
O9    O     O_R   0.500000 0.683220 0.385310 -0.615184
O10   O     O_R   0.583850 0.500050 0.614640 -0.630020
O11   O     O_R   0.583840 0.500030 0.385310 -0.612475
O12   O     O_2   0.852358 0.722230 0.462876 -0.544457
Zn1   Zn    Zn3+2 0.500000 0.500020 0.653130 0.939078
Zn2   Zn    Zn3+2 0.500000 0.499980 0.346870 0.944293
C49   C     C_2   0.400576 0.866528 0.405479 0.441757
H21   H     H_    0.396156 0.765050 0.413688 0.069998
O13   O     O_2   0.360825 0.923437 0.357698 -0.556147
C50   C     C_1   0.950790 0.853785 0.436978 0.284471
N5    N     N_1   0.931415 0.951273 0.418579 -0.160321
C51   C     C_1   0.208016 0.500097 0.752713 0.198597
N6    N     N_1   0.183913 0.501819 0.854733 -0.178879
C52   C     C_1   0.792231 0.486750 0.249134 0.188613
N7    N     N_1   0.816475 0.479979 0.147629 -0.185071

loop_
_geom_bond_atom_site_label_1
_geom_bond_atom_site_label_2
_ccdc_geom_bond_type
C49   H21   S    
C43   N4    A    
C1    O5    A    
C19   C20   A    
C26   H7    S    
C42   H10   S    
N4    Zn1   S    
C7    C8    A    
C28   H9    S    
C2    C46   A    
C5    C47   A    
C26   C27   A    
C29   C30   A    
C18   C24   A    
C36   C37   A    
C37   C38   A    
C5    C6    A    
C15   C16   A    
C12   O7    A    
C1    C31   S    
C18   C19   A    
C51   N6    T    
C10   O4    S    
C11   C51   S    
C11   C17   A    
C47   C48   A    
C16   C17   A    
C12   O6    A    
C24   N1    S    
C16   H20   S    
C9    O3    S    
C23   O8    A    
C23   O9    A    
O9    Zn2   S    
C41   N3    A    
C20   C34   S    
C17   N2    S    
C21   C22   A    
C36   C41   A    
C43   H16   S    
C13   H18   S    
C38   C39   A    
C45   N1    A    
C25   H6    S    
C39   C40   A    
C27   H8    S    
C44   O12   S    
C25   C26   A    
C45   C46   A    
C45   O2    S    
C8    C48   A    
O8    Zn1   S    
C2    H1    S    
C7    H17   S    
N3    Zn2   S    
C31   C32   A    
C15   H19   S    
C44   N1    A    
C9    N2    A    
O1    Zn1   S    
C10   N2    A    
O6    Zn1   S    
C40   C41   A    
C12   C14   S    
O5    Zn2   S    
C23   C35   S    
C49   O13   D    
C18   C52   S    
C22   C24   A    
C8    C50   S    
C34   O11   A    
C3    C4    A    
C32   H5    S    
C21   H3    S    
C22   H4    S    
C25   C30   A    
C46   C47   A    
C28   C29   A    
C40   N4    A    
C4    C5    A    
C36   H12   S    
C6    C10   A    
C37   H13   S    
C6    C7    A    
O10   Zn1   S    
C39   H15   S    
C29   C35   A    
C1    O1    A    
C32   C33   A    
C2    C3    A    
C33   C49   S    
C11   C13   A    
C19   H2    S    
C50   N5    T    
C30   C31   A    
C42   N3    A    
C33   C35   A    
C52   N7    T    
O11   Zn2   S    
C20   C21   A    
C42   C43   A    
C27   C28   A    
C14   C15   A    
C34   O10   A    
C4    C9    A    
C13   C14   A    
O7    Zn2   S    
C44   C48   A    
C38   H14   S    
C3    H11   S    
