data_mof_unit_55946.cif
_audit_creation_date              2012-12-11T14:28:32-0500
_audit_creation_method            fapswitch 2.2
_symmetry_space_group_name_H-M    P1
_symmetry_Int_Tables_number       1
_space_group_crystal_system       triclinic
_cell_length_a                    10.979353
_cell_length_b                    19.1916
_cell_length_c                    18.452679
_cell_angle_alpha                 89.976182
_cell_angle_beta                  90.052985
_cell_angle_gamma                 89.748156
_cell_volume                      3888.14935641

loop_
_atom_site_label
_atom_site_type_symbol
_atom_type_description
_atom_site_fract_x
_atom_site_fract_y
_atom_site_fract_z
_atom_type_partial_charge
C1    C     C_R   0.319825 0.969630 0.646839 0.534122
C2    C     C_R   0.322233 0.970707 0.852252 0.544350
C3    C     C_R   0.318743 0.031446 0.354497 0.543817
C4    C     C_R   0.321403 0.030411 0.146040 0.549245
C5    C     C_R   0.819825 0.469632 0.646841 0.534147
C6    C     C_R   0.822234 0.470705 0.852253 0.544357
C7    C     C_R   0.818743 0.531450 0.354501 0.543806
C8    C     C_R   0.821404 0.530409 0.146042 0.549238
C9    C     C_3   0.211245 0.730274 0.455763 -0.138527
C10   C     C_3   0.214263 0.742456 0.047853 -0.135122
C11   C     C_3   0.216401 0.234431 0.549801 -0.152142
C12   C     C_3   0.208580 0.224573 0.952013 -0.146861
C13   C     C_3   0.711233 0.230265 0.455768 -0.138531
C14   C     C_3   0.714269 0.242460 0.047853 -0.135119
C15   C     C_3   0.716404 0.734437 0.549800 -0.152133
C16   C     C_3   0.708602 0.724600 0.952007 -0.146858
C17   C     C_3   0.085154 0.748005 0.426160 0.057176
C18   C     C_3   0.082609 0.748243 0.072991 0.056050
C19   C     C_3   0.085975 0.251592 0.572995 0.049729
C20   C     C_3   0.083662 0.251458 0.927642 0.055122
C21   C     C_3   0.585149 0.248003 0.426161 0.057172
C22   C     C_3   0.582612 0.248244 0.072992 0.056055
C23   C     C_3   0.585977 0.751591 0.572995 0.049722
C24   C     C_3   0.583664 0.751459 0.927641 0.055123
C25   C     C_R   0.319487 0.998134 0.426725 -0.040602
C26   C     C_R   0.333172 0.997628 0.073529 -0.036561
C27   C     C_R   0.325709 0.007291 0.577648 -0.044831
C28   C     C_R   0.338135 0.007203 0.921632 -0.031623
C29   C     C_R   0.819493 0.498147 0.426733 -0.040604
C30   C     C_R   0.833176 0.497618 0.073536 -0.036574
C31   C     C_R   0.825710 0.507306 0.577657 -0.044841
C32   C     C_R   0.838138 0.507194 0.921638 -0.031624
C33   C     C_R   0.538539 0.968067 0.427980 0.306926
C34   C     C_R   0.561307 0.981090 0.074321 0.282408
C35   C     C_R   0.550429 0.017011 0.572403 0.299715
C36   C     C_R   0.568047 0.003153 0.924579 0.279554
C37   C     C_R   0.038547 0.468083 0.427995 0.306920
C38   C     C_R   0.061313 0.481079 0.074330 0.282412
C39   C     C_R   0.050430 0.517021 0.572421 0.299687
C40   C     C_R   0.068053 0.503151 0.924586 0.279549
C41   C     C_R   0.648901 0.970299 0.465024 -0.145676
C42   C     C_R   0.669190 0.974135 0.035562 -0.159215
C43   C     C_R   0.654952 0.994933 0.535956 -0.151640
C44   C     C_R   0.673159 0.985704 0.962417 -0.162952
C45   C     C_R   0.148905 0.470305 0.465045 -0.145688
C46   C     C_R   0.169196 0.474133 0.035570 -0.159203
C47   C     C_R   0.154952 0.494934 0.535979 -0.151635
C48   C     C_R   0.173166 0.485705 0.962426 -0.162977
C49   C     C_R   0.435540 0.006621 0.538422 -0.056857
C50   C     C_R   0.451505 0.002096 0.960120 -0.045602
C51   C     C_R   0.431231 0.991654 0.463446 -0.052071
C52   C     C_R   0.448776 0.994985 0.037273 -0.038845
C53   C     C_R   0.935543 0.506642 0.538433 -0.056864
C54   C     C_R   0.951509 0.502086 0.960126 -0.045588
C55   C     C_R   0.931238 0.491674 0.463456 -0.052055
C56   C     C_R   0.948781 0.494973 0.037280 -0.038837
C57   C     C_R   0.214494 0.014700 0.541037 0.000378
C58   C     C_R   0.229299 0.016626 0.959589 -0.010857
C59   C     C_R   0.208925 0.999032 0.467221 -0.005630
C60   C     C_R   0.224719 0.996097 0.031929 -0.017816
C61   C     C_R   0.714496 0.514711 0.541045 0.000383
C62   C     C_R   0.729302 0.516614 0.959595 -0.010868
C63   C     C_R   0.708930 0.499042 0.467229 -0.005630
C64   C     C_R   0.724723 0.496085 0.031935 -0.017816
C65   C     C_R   0.107726 0.036729 0.577482 -0.064472
C66   C     C_R   0.121310 0.040034 0.924770 -0.068153
C67   C     C_R   0.092028 0.991337 0.435582 -0.076954
C68   C     C_R   0.109133 0.983517 0.062617 -0.081676
C69   C     C_R   0.607724 0.536734 0.577489 -0.064466
C70   C     C_R   0.621313 0.540025 0.924779 -0.068150
C71   C     C_R   0.592035 0.491337 0.435591 -0.076957
C72   C     C_R   0.609137 0.483508 0.062626 -0.081652
C73   C     C_R   0.994945 0.032425 0.544250 -0.125206
C74   C     C_R   0.009365 0.034943 0.959224 -0.118789
C75   C     C_R   0.986922 0.009130 0.473378 -0.132626
C76   C     C_R   0.003804 0.006368 0.028143 -0.129646
C77   C     C_R   0.494944 0.532422 0.544257 -0.125205
C78   C     C_R   0.509370 0.534938 0.959235 -0.118783
C79   C     C_R   0.486927 0.509124 0.473386 -0.132626
C80   C     C_R   0.503810 0.506366 0.028155 -0.129619
C81   C     C_R   0.183441 0.771299 0.636111 0.558810
C82   C     C_R   0.184632 0.771468 0.863718 0.562886
C83   C     C_R   0.185429 0.228526 0.363439 0.554099
C84   C     C_R   0.183791 0.229002 0.136582 0.557343
C85   C     C_R   0.683439 0.271299 0.636111 0.558801
C86   C     C_R   0.684634 0.271468 0.863718 0.562882
C87   C     C_R   0.685426 0.728527 0.363439 0.554098
C88   C     C_R   0.683796 0.729001 0.136583 0.557342
C89   C     C_R   0.543472 0.769341 0.645145 0.529201
C90   C     C_R   0.543576 0.769148 0.854851 0.529496
C91   C     C_R   0.544961 0.231121 0.353902 0.530092
C92   C     C_R   0.542708 0.230496 0.145078 0.532370
C93   C     C_R   0.043472 0.269341 0.645145 0.529199
C94   C     C_R   0.043579 0.269147 0.854850 0.529491
C95   C     C_R   0.044963 0.731121 0.353901 0.530090
C96   C     C_R   0.042707 0.730496 0.145077 0.532367
C97   C     C_3   0.082641 0.817987 0.465113 -0.115876
C98   C     C_3   0.062122 0.815288 0.029851 -0.115327
C99   C     C_3   0.032416 0.197471 0.521262 -0.104381
C100  C     C_3   0.016747 0.205624 0.982726 -0.104725
C101  C     C_3   0.582650 0.317987 0.465111 -0.115881
C102  C     C_3   0.562114 0.315287 0.029850 -0.115327
C103  C     C_3   0.532427 0.697466 0.521263 -0.104381
C104  C     C_3   0.516783 0.705601 0.982720 -0.104699
C105  C     C_3   0.210638 0.801017 0.496295 -0.139148
C106  C     C_3   0.195749 0.810081 0.003024 -0.132561
C107  C     C_3   0.163994 0.179807 0.496632 -0.129343
C108  C     C_3   0.142598 0.178329 0.008298 -0.127623
C109  C     C_3   0.710640 0.301009 0.496297 -0.139152
C110  C     C_3   0.695744 0.310084 0.003021 -0.132560
C111  C     C_3   0.664007 0.679809 0.496632 -0.129338
C112  C     C_3   0.642655 0.678332 0.008287 -0.127609
C113  C     C_3   0.148324 0.764800 0.560343 0.060184
C114  C     C_3   0.151261 0.765072 0.939714 0.058208
C115  C     C_3   0.153040 0.236410 0.439263 0.056677
C116  C     C_3   0.147822 0.238055 0.062008 0.055178
C117  C     C_3   0.648316 0.264799 0.560345 0.060187
C118  C     C_3   0.651260 0.265071 0.939713 0.058211
C119  C     C_3   0.653042 0.736411 0.439263 0.056670
C120  C     C_3   0.647838 0.738053 0.062005 0.055166
C121  C     C_3   0.021649 0.782163 0.530471 -0.117539
C122  C     C_3   0.019143 0.770617 0.965209 -0.121261
C123  C     C_3   0.023593 0.254045 0.462610 -0.118150
C124  C     C_3   0.023750 0.265447 0.038124 -0.123595
C125  C     C_3   0.521647 0.282170 0.530470 -0.117528
C126  C     C_3   0.519140 0.270612 0.965208 -0.121266
C127  C     C_3   0.523594 0.754039 0.462611 -0.118145
C128  C     C_3   0.523747 0.765420 0.038125 -0.123605
C129  C     C_3   0.022998 0.711899 0.490016 -0.118573
C130  C     C_3   0.038237 0.703469 0.009610 -0.114455
C131  C     C_3   0.075671 0.308488 0.514811 -0.097687
C132  C     C_3   0.088971 0.311437 0.982608 -0.108390
C133  C     C_3   0.522981 0.211906 0.490018 -0.118560
C134  C     C_3   0.538244 0.203466 0.009612 -0.114466
C135  C     C_3   0.575663 0.808485 0.514811 -0.097683
C136  C     C_3   0.588934 0.811433 0.982615 -0.108402
C137  C     C_3   0.149824 0.694481 0.520586 -0.106129
C138  C     C_3   0.170735 0.697872 0.983634 -0.107024
C139  C     C_3   0.206596 0.291118 0.490631 -0.099077
C140  C     C_3   0.214333 0.284549 0.007707 -0.116444
C141  C     C_3   0.649801 0.194480 0.520591 -0.106124
C142  C     C_3   0.670744 0.197873 0.983634 -0.107035
C143  C     C_3   0.706590 0.791122 0.490630 -0.099067
C144  C     C_3   0.714316 0.784570 0.007709 -0.116424
Cr1   Cr    Cr6+3 0.488160 0.884660 0.750000 1.087791
Cr2   Cr    Cr6+3 0.488160 0.115340 0.250000 1.083471
Cr3   Cr    Cr6+3 0.988160 0.384660 0.750000 1.087796
Cr4   Cr    Cr6+3 0.988160 0.615340 0.250000 1.083463
Cr5   Cr    Cr6+3 0.173480 0.883120 0.750000 1.010119
Cr6   Cr    Cr6+3 0.173480 0.116880 0.250000 0.998036
Cr7   Cr    Cr6+3 0.673480 0.383120 0.750000 1.010118
Cr8   Cr    Cr6+3 0.673480 0.616880 0.250000 0.998038
Cr9   Cr    Cr6+3 0.333410 0.727260 0.750000 0.968475
Cr10  Cr    Cr6+3 0.333410 0.272740 0.250000 0.968048
Cr11  Cr    Cr6+3 0.833410 0.227260 0.750000 0.968491
Cr12  Cr    Cr6+3 0.833410 0.772740 0.250000 0.968069
H1    H     H_    0.287361 0.838043 0.502032 0.098483
H2    H     H_    0.262473 0.853038 0.997936 0.111321
H3    H     H_    0.209829 0.131550 0.480566 0.125939
H4    H     H_    0.169351 0.127373 0.029918 0.146539
H5    H     H_    0.787372 0.338029 0.502032 0.098480
H6    H     H_    0.762462 0.353045 0.997933 0.111325
H7    H     H_    0.709851 0.631556 0.480563 0.125930
H8    H     H_    0.669471 0.627381 0.029896 0.146488
H9    H     H_    0.914998 0.049508 0.573277 0.102812
H10   H     H_    0.927868 0.053980 0.932783 0.092285
H11   H     H_    0.900155 0.007260 0.446443 0.103967
H12   H     H_    0.919644 0.005245 0.057033 0.105277
H13   H     H_    0.414994 0.549500 0.573281 0.102803
H14   H     H_    0.427872 0.553977 0.932794 0.092266
H15   H     H_    0.400162 0.507248 0.446450 0.103968
H16   H     H_    0.419654 0.505250 0.057048 0.105273
H17   H     H_    0.046528 0.864189 0.437278 0.116075
H18   H     H_    0.010617 0.860226 0.051536 0.113226
H19   H     H_    0.954488 0.163976 0.535472 0.126022
H20   H     H_    0.935122 0.174083 0.970616 0.117008
H21   H     H_    0.546548 0.364191 0.437276 0.116072
H22   H     H_    0.510603 0.360224 0.051533 0.113224
H23   H     H_    0.454504 0.663969 0.535474 0.126026
H24   H     H_    0.435170 0.674051 0.970608 0.117003
H25   H     H_    0.947441 0.805251 0.563438 0.123826
H26   H     H_    0.942907 0.783743 0.928218 0.124360
H27   H     H_    0.950494 0.261169 0.422535 0.096709
H28   H     H_    0.955024 0.285984 0.076346 0.097816
H29   H     H_    0.447437 0.305262 0.563434 0.123823
H30   H     H_    0.442896 0.283725 0.928217 0.124356
H31   H     H_    0.450503 0.761160 0.422531 0.096709
H32   H     H_    0.455014 0.785938 0.076354 0.097818
H33   H     H_    0.945775 0.675144 0.484228 0.099954
H34   H     H_    0.972519 0.659803 0.013830 0.111200
H35   H     H_    0.033961 0.359987 0.525648 0.126270
H36   H     H_    0.059444 0.364922 0.969735 0.137622
H37   H     H_    0.445751 0.175156 0.484229 0.099959
H38   H     H_    0.472531 0.159797 0.013833 0.111202
H39   H     H_    0.533945 0.859982 0.525647 0.126263
H40   H     H_    0.559367 0.864915 0.969752 0.137589
H41   H     H_    0.179860 0.643973 0.543771 0.150998
H42   H     H_    0.217266 0.649422 0.966349 0.108917
H43   H     H_    0.277997 0.329219 0.475703 0.120769
H44   H     H_    0.292629 0.318408 0.021261 0.116374
H45   H     H_    0.679823 0.143972 0.543781 0.151038
H46   H     H_    0.717272 0.149420 0.966348 0.108908
H47   H     H_    0.777984 0.829225 0.475700 0.120774
H48   H     H_    0.792595 0.818444 0.021262 0.116371
H49   H     H_    0.281233 0.704807 0.421618 0.118761
H50   H     H_    0.287193 0.727195 0.086161 0.118629
H51   H     H_    0.291756 0.224709 0.588594 0.096750
H52   H     H_    0.280638 0.205680 0.914689 0.099749
H53   H     H_    0.781225 0.204796 0.421628 0.118767
H54   H     H_    0.787211 0.227210 0.086156 0.118629
H55   H     H_    0.791758 0.724715 0.588595 0.096749
H56   H     H_    0.780665 0.705725 0.914676 0.099751
H57   H     H_    0.729510 0.950199 0.438855 0.128183
H58   H     H_    0.750783 0.958453 0.062956 0.104857
H59   H     H_    0.741117 0.995367 0.563722 0.130147
H60   H     H_    0.758608 0.979500 0.934007 0.129780
H61   H     H_    0.229512 0.450199 0.438880 0.128178
H62   H     H_    0.250796 0.458461 0.062961 0.104845
H63   H     H_    0.241113 0.495356 0.563751 0.130148
H64   H     H_    0.258616 0.479503 0.934018 0.129776
H65   H     H_    0.080202 0.970670 0.381494 0.132822
H66   H     H_    0.099965 0.959184 0.115291 0.131297
H67   H     H_    0.111778 0.057824 0.631904 0.126809
H68   H     H_    0.124175 0.062904 0.871083 0.125246
H69   H     H_    0.580209 0.470670 0.381502 0.132819
H70   H     H_    0.599970 0.459174 0.115300 0.131286
H71   H     H_    0.611771 0.557828 0.631911 0.126803
H72   H     H_    0.624177 0.562897 0.871092 0.125249
O1    O     O_R   0.575450 0.828820 0.667950 -0.507119
O2    O     O_R   0.575450 0.828820 0.832050 -0.499084
O3    O     O_R   0.575450 0.171180 0.332050 -0.511283
O4    O     O_R   0.575450 0.171180 0.167950 -0.498928
O5    O     O_R   0.075450 0.328820 0.667950 -0.507122
O6    O     O_R   0.075450 0.328820 0.832050 -0.499090
O7    O     O_R   0.075450 0.671180 0.332050 -0.511281
O8    O     O_R   0.075450 0.671180 0.167950 -0.498930
O9    O     O_R   0.416860 0.942890 0.674680 -0.446379
O10   O     O_R   0.416860 0.942890 0.825320 -0.426986
O11   O     O_R   0.416860 0.057110 0.325320 -0.442871
O12   O     O_R   0.416860 0.057110 0.174680 -0.417876
O13   O     O_R   0.916860 0.442890 0.674680 -0.446358
O14   O     O_R   0.916860 0.442890 0.825320 -0.426976
O15   O     O_R   0.916860 0.557110 0.325320 -0.442857
O16   O     O_R   0.916860 0.557110 0.174680 -0.417880
O17   O     O_R   0.213790 0.953680 0.668330 -0.537533
O18   O     O_R   0.213790 0.953680 0.831670 -0.536260
O19   O     O_R   0.213790 0.046320 0.331670 -0.548677
O20   O     O_R   0.213790 0.046320 0.168330 -0.547266
O21   O     O_R   0.713790 0.453680 0.668330 -0.537535
O22   O     O_R   0.713790 0.453680 0.831670 -0.536265
O23   O     O_R   0.713790 0.546320 0.331670 -0.548675
O24   O     O_R   0.713790 0.546320 0.168330 -0.547254
O25   O     O_R   0.121360 0.817890 0.672660 -0.499624
O26   O     O_R   0.121360 0.817890 0.827340 -0.494505
O27   O     O_R   0.121360 0.182110 0.327340 -0.500760
O28   O     O_R   0.121360 0.182110 0.172660 -0.496396
O29   O     O_R   0.621360 0.317890 0.672660 -0.499627
O30   O     O_R   0.621360 0.317890 0.827340 -0.494501
O31   O     O_R   0.621360 0.682110 0.327340 -0.500769
O32   O     O_R   0.621360 0.682110 0.172660 -0.496385
O33   O     O_R   0.206850 0.711370 0.665820 -0.540879
O34   O     O_R   0.206850 0.711370 0.834180 -0.573111
O35   O     O_R   0.206850 0.288630 0.334180 -0.523834
O36   O     O_R   0.206850 0.288630 0.165820 -0.571047
O37   O     O_R   0.706850 0.211370 0.665820 -0.540887
O38   O     O_R   0.706850 0.211370 0.834180 -0.573111
O39   O     O_R   0.706850 0.788630 0.334180 -0.523802
O40   O     O_R   0.706850 0.788630 0.165820 -0.571052
O41   O     O_R   0.457710 0.733190 0.672630 -0.529061
O42   O     O_R   0.457710 0.733190 0.827370 -0.532731
O43   O     O_R   0.457710 0.266810 0.327370 -0.530649
O44   O     O_R   0.457710 0.266810 0.172630 -0.534646
O45   O     O_R   0.957710 0.233190 0.672630 -0.529057
O46   O     O_R   0.957710 0.233190 0.827370 -0.532728
O47   O     O_R   0.957710 0.766810 0.327370 -0.530650
O48   O     O_R   0.957710 0.766810 0.172630 -0.534645
O49   O     O_3   0.331690 0.831680 0.750000 -0.304473
O50   O     O_3   0.331690 0.168320 0.250000 -0.305702
O51   O     O_3   0.831690 0.331680 0.750000 -0.304474
O52   O     O_3   0.831690 0.668320 0.250000 -0.305706
O53   O     O_3   0.540311 0.941241 0.358025 -0.554121
C145  C     C_3   0.453244 0.887753 0.347731 -0.120339
H73   H     H_    0.403919 0.871635 0.397399 0.082870
H74   H     H_    0.499182 0.841166 0.325350 0.162211
H75   H     H_    0.385657 0.904539 0.306504 0.120867
O54   O     O_3   0.569784 0.979798 0.148853 -0.549268
C146  C     C_3   0.606322 0.914770 0.173676 -0.080859
H76   H     H_    0.705943 0.908949 0.166170 0.146960
H77   H     H_    0.550318 0.873016 0.148819 0.129634
H78   H     H_    0.591592 0.912706 0.232411 0.196954
O55   O     O_3   0.565720 0.045051 0.641662 -0.548941
C147  C     C_3   0.488027 0.102982 0.654891 -0.100578
H79   H     H_    0.408072 0.087311 0.687420 0.112220
H80   H     H_    0.458121 0.130706 0.605180 0.090902
H81   H     H_    0.535657 0.141027 0.689151 0.168682
O56   O     O_3   0.581008 0.013874 0.851116 -0.543090
C148  C     C_3   0.627842 0.079941 0.838970 -0.083440
H82   H     H_    0.720318 0.085007 0.862888 0.115635
H83   H     H_    0.562650 0.120070 0.859156 0.137712
H84   H     H_    0.639268 0.086911 0.779956 0.186022
O57   O     O_3   0.040328 0.441264 0.358038 -0.554153
C149  C     C_3   0.953271 0.387773 0.347734 -0.120339
H85   H     H_    0.903923 0.371655 0.397397 0.082865
H86   H     H_    0.999223 0.341186 0.325361 0.162230
H87   H     H_    0.885702 0.404554 0.306493 0.120894
O58   O     O_3   0.069796 0.479802 0.148863 -0.549267
C150  C     C_3   0.106361 0.414784 0.173703 -0.080855
H88   H     H_    0.205967 0.408940 0.166127 0.146903
H89   H     H_    0.050270 0.373023 0.148918 0.129667
H90   H     H_    0.091773 0.412765 0.232458 0.196987
O59   O     O_3   0.065715 0.545043 0.641688 -0.548939
C151  C     C_3   0.988069 0.602995 0.654910 -0.100476
H91   H     H_    0.907995 0.587336 0.687345 0.112122
H92   H     H_    0.958337 0.630780 0.605196 0.090992
H93   H     H_    0.035674 0.640982 0.689260 0.168652
O60   O     O_3   0.081016 0.513865 0.851122 -0.543080
C152  C     C_3   0.127889 0.579921 0.838967 -0.083434
H94   H     H_    0.220331 0.584998 0.862929 0.115556
H95   H     H_    0.062672 0.620061 0.859098 0.137772
H96   H     H_    0.139411 0.586858 0.779955 0.185996

loop_
_geom_bond_atom_site_label_1
_geom_bond_atom_site_label_2
_ccdc_geom_bond_type
C6    C32   S    
Cr1   O2    S    
C7    C29   S    
C119  C143  S    
O55   C147  S    
C120  C144  S    
C65   H67   S    
C110  C118  S    
C24   C104  S    
O57   C149  S    
C15   C111  S    
C145  H73   S    
C11   H51   S    
C121  H25   S    
C16   C144  S    
C70   H72   S    
C21   C91   S    
C57   C59   A    
C8    O16   A    
C58   C60   A    
C62   C70   A    
C61   C63   A    
C62   C64   A    
Cr10  O35   S    
C144  H48   S    
C23   C103  S    
C49   C51   A    
C34   C42   A    
C84   O28   A    
Cr4   O15   S    
C50   C52   A    
C146  H77   S    
C97   C105  S    
C73   C75   A    
C87   C119  S    
C90   O42   A    
C42   C44   A    
C20   C132  S    
Cr10  O44   S    
C21   C133  S    
C54   C56   A    
C45   C47   A    
C112  H8    S    
C46   C48   A    
C115  C123  S    
C6    O22   A    
C27   C57   A    
C87   O31   A    
C112  C120  S    
C19   C99   S    
C88   O40   A    
C29   C55   A    
C30   C56   A    
O60   C152  S    
C100  C124  S    
C152  H96   S    
C68   H66   S    
C83   C115  S    
C41   H57   S    
C104  C128  S    
Cr10  O50   S    
C107  H3    S    
C12   C20   S    
O58   C150  S    
C13   C21   S    
C85   C117  S    
Cr11  O37   S    
O56   C148  S    
C137  H41   S    
C113  C137  S    
C36   C44   A    
C33   C51   A    
C80   H16   S    
C37   C45   A    
C130  C138  S    
C36   C50   A    
C39   C47   A    
C40   C48   A    
C20   C94   S    
C44   H60   S    
C133  C141  S    
Cr1   O49   S    
C24   C90   S    
C136  H40   S    
C28   C58   A    
C98   C106  S    
C147  H80   S    
C140  H44   S    
C121  C129  S    
C33   C41   A    
C1    O17   A    
C108  C116  S    
C10   C18   S    
C76   H12   S    
Cr12  O48   S    
C2    C28   S    
C32   C62   A    
C36   O56   S    
C129  C137  S    
C126  C134  S    
C7    O23   A    
C92   O4    A    
C84   O36   A    
C10   C138  S    
C81   O25   A    
C130  H34   S    
C143  H47   S    
C14   C142  S    
C81   O33   A    
Cr5   O18   S    
C83   O35   A    
C71   C79   A    
C110  H6    S    
Cr6   O20   S    
C74   C76   A    
C40   O60   S    
C105  C113  S    
C124  H28   S    
C78   C80   A    
Cr3   O13   S    
C9    C105  S    
C66   C74   A    
C78   H14   S    
C151  H91   S    
C124  C132  S    
C125  H29   S    
C67   H65   S    
C97   C121  S    
C59   C67   A    
C35   O55   S    
C129  H33   S    
C35   C49   A    
C101  C125  S    
Cr5   O49   S    
C35   C43   A    
C132  H36   S    
C24   C136  S    
C135  C143  S    
C84   C116  S    
C148  H83   S    
C9    C137  S    
Cr11  O46   S    
Cr7   O22   S    
Cr2   O3    S    
C149  H86   S    
C100  C108  S    
C13   H53   S    
C103  C127  S    
C73   H9    S    
C104  C112  S    
C1    O9    A    
C91   O3    A    
C93   O45   A    
C127  H31   S    
Cr12  O40   S    
C134  H38   S    
Cr1   O10   S    
C23   C89   S    
C15   C143  S    
C40   C54   A    
C96   O48   A    
C10   C106  S    
C67   C75   A    
Cr3   O5    S    
Cr8   O24   S    
Cr7   O29   S    
C14   C110  S    
Cr1   O1    S    
C8    O24   A    
C102  C126  S    
C103  C111  S    
C68   C76   A    
C113  C121  S    
C145  H74   S    
C151  H93   S    
C150  H90   S    
C85   O29   A    
C14   C22   S    
C10   H50   S    
C72   C80   A    
Cr8   O31   S    
Cr6   O27   S    
C102  H22   S    
C34   O54   S    
C114  C138  S    
C38   C46   A    
Cr10  O36   S    
C37   C55   A    
Cr3   O6    S    
C99   H19   S    
C145  H75   S    
C133  H37   S    
Cr4   O16   S    
C22   C92   S    
C90   O2    A    
C25   C59   A    
Cr2   O50   S    
C17   C97   S    
C45   H61   S    
C27   C49   A    
C87   O39   A    
C119  C127  S    
C29   C63   A    
C46   H62   S    
C30   C64   A    
C41   C43   A    
C31   C61   A    
Cr9   O42   S    
C109  C117  S    
C11   C19   S    
C142  H46   S    
C127  C135  S    
Cr12  O52   S    
C128  C136  S    
C92   O44   A    
C101  C109  S    
C95   O47   A    
Cr9   O49   S    
C79   H15   S    
C152  H95   S    
C11   C139  S    
C86   O30   A    
C116  C140  S    
C69   C77   A    
C105  H1    S    
C82   O34   A    
C12   C140  S    
C17   C95   S    
C13   C141  S    
C88   C120  S    
C19   C93   S    
C77   C79   A    
C72   H70   S    
C3    O19   A    
C32   C54   A    
C123  H27   S    
C150  H88   S    
C5    O21   A    
C126  H30   S    
C97   H17   S    
C131  C139  S    
C93   O5    A    
Cr4   O52   S    
C83   O27   A    
C117  C141  S    
C134  C142  S    
Cr3   O51   S    
C146  H76   S    
C20   C100  S    
C3    C25   S    
Cr5   O26   S    
C4    O12   A    
C146  H78   S    
C86   C118  S    
C63   C71   A    
C22   C134  S    
C102  C110  S    
Cr10  O43   S    
C74   H10   S    
C16   C112  S    
C12   C108  S    
C48   H64   S    
Cr5   O17   S    
C116  C124  S    
C123  C131  S    
C128  H32   S    
C94   O6    A    
C57   C65   A    
C94   O46   A    
C4    C26   S    
C120  C128  S    
C100  H20   S    
C132  C140  S    
C99   C107  S    
Cr2   O12   S    
C34   C52   A    
C23   C135  S    
C8    C30   S    
Cr4   O7    S    
C2    O18   A    
C136  C144  S    
C39   C53   A    
C38   O58   S    
C151  H92   S    
C103  H23   S    
Cr11  O38   S    
C101  H21   S    
C88   O32   A    
C135  H39   S    
Cr2   O11   S    
C60   C68   A    
C81   C113  S    
C82   O26   A    
C9    H49   S    
Cr5   O25   S    
C71   H69   S    
C3    O11   A    
O59   C151  S    
C70   C78   A    
C18   C96   S    
C148  H82   S    
Cr11  O45   S    
C43   H59   S    
Cr7   O21   S    
Cr2   O4    S    
C149  H87   S    
C106  C114  S    
C89   O41   A    
C12   H52   S    
C111  C119  S    
C147  H79   S    
C141  H45   S    
C91   O43   A    
O54   C146  S    
C98   H18   S    
C139  H43   S    
C37   O57   S    
C65   C73   A    
Cr7   O51   S    
C4    O20   A    
Cr12  O47   S    
C15   H55   S    
Cr8   O52   S    
C28   C50   A    
C58   C66   A    
Cr1   O9    S    
Cr11  O51   S    
C21   C101  S    
C15   C23   S    
C13   C109  S    
C16   C24   S    
C95   O7    A    
C69   H71   S    
C53   C55   A    
C19   C131  S    
Cr6   O19   S    
C33   O53   S    
C14   H54   S    
C17   C129  S    
C85   O37   A    
C16   H56   S    
C111  H7    S    
C82   C114  S    
C66   H68   S    
C2    O10   A    
Cr3   O14   S    
O53   C145  S    
C106  H2    S    
C47   H63   S    
Cr4   O8    S    
Cr6   O50   S    
C42   H58   S    
C26   C52   A    
Cr8   O32   S    
Cr6   O28   S    
C125  C133  S    
C96   O8    A    
C38   C56   A    
C31   C53   A    
Cr9   O34   S    
C107  C115  S    
C98   C122  S    
C138  H42   S    
C9    C17   S    
C11   C107  S    
C148  H84   S    
Cr9   O33   S    
C99   C123  S    
C61   C69   A    
C149  H85   S    
C147  H81   S    
Cr9   O41   S    
C115  C139  S    
C118  C142  S    
C39   O59   S    
C108  H4    S    
C131  H35   S    
C18   C98   S    
C25   C51   A    
C22   C102  S    
C5    O13   A    
C150  H89   S    
C109  H5    S    
C104  H24   S    
Cr12  O39   S    
C26   C60   A    
C64   C72   A    
C152  H94   S    
C18   C130  S    
C114  C122  S    
C122  H26   S    
C77   H13   S    
C7    O15   A    
C1    C27   S    
C86   O38   A    
C6    O14   A    
C75   H11   S    
C118  C126  S    
C89   O1    A    
C117  C125  S    
C122  C130  S    
Cr8   O23   S    
Cr7   O30   S    
C5    C31   S    
