data_mof_unit_6682.cif
_audit_creation_date              2013-03-05T15:43:18-0500
_audit_creation_method            fapswitch 2.2
_symmetry_space_group_name_H-M    P1
_symmetry_Int_Tables_number       1
_space_group_crystal_system       triclinic
_cell_length_a                    10.737765
_cell_length_b                    10.651888
_cell_length_c                    10.022632
_cell_angle_alpha                 91.623671
_cell_angle_beta                  88.726267
_cell_angle_gamma                 90.096005
_cell_volume                      1145.61924703

loop_
_atom_site_label
_atom_site_type_symbol
_atom_site_description
_atom_site_fract_x
_atom_site_fract_y
_atom_site_fract_z
_atom_type_partial_charge
O1    O     O_R   0.499980 0.319060 0.613040 -0.590128
O2    O     O_R   0.500020 0.319100 0.386900 -0.612510
C1    C     C_R   0.503707 0.262417 0.497601 0.881052
O3    O     O_R   0.316750 0.499980 0.613090 -0.634920
O4    O     O_R   0.316790 0.500020 0.386950 -0.600162
C2    C     C_R   0.259923 0.511753 0.502463 0.867907
Zn1   Zn    Zn3+2 0.499970 0.499970 0.650990 1.007848
Zn2   Zn    Zn3+2 0.500030 0.500030 0.349010 0.994855
O5    O     O_R   0.499980 0.680900 0.613100 -0.566622
O6    O     O_R   0.500020 0.680940 0.386960 -0.632796
O7    O     O_R   0.683210 0.499980 0.613050 -0.623677
O8    O     O_R   0.683250 0.500020 0.386910 -0.598477
C3    C     C_R   0.484887 0.737039 0.502717 0.828305
C4    C     C_R   0.739561 0.489587 0.498635 0.879407
C5    C     C_R   0.104142 0.513567 0.758064 -0.172011
H1    H     H_    0.185669 0.569564 0.778900 0.190001
C6    C     C_R   0.040812 0.463957 0.867675 -0.206083
H2    H     H_    0.078899 0.477504 0.966062 0.196679
C7    C     C_R   0.930659 0.396079 0.850013 0.357548
C8    C     C_R   0.879279 0.390311 0.722687 -0.215647
H3    H     H_    0.794173 0.337561 0.708542 0.194321
C9    C     C_R   0.935964 0.454001 0.614905 0.035133
C10   C     C_R   0.057570 0.498078 0.627438 0.099769
C11   C     C_R   0.125553 0.526734 0.508540 -0.165115
C12   C     C_R   0.061943 0.548726 0.389596 -0.024639
H4    H     H_    0.886315 0.552227 0.297256 0.190458
C13   C     C_R   0.935864 0.528311 0.386288 -0.175276
C14   C     C_R   0.872837 0.481449 0.497287 -0.112834
C15   C     C_2   0.418504 0.933952 0.405188 -0.121902
C16   C     C_2   0.440201 0.865825 0.513841 0.075460
C17   C     C_2   0.421336 0.069770 0.418837 -0.145436
C18   C     C_2   0.510083 0.129686 0.488566 -0.117346
H5    H     H_    0.348893 0.122319 0.370557 0.169611
C19   C     C_2   0.554092 0.584855 0.928626 -0.073211
N1    N     N_2   0.501340 0.501330 0.852150 -0.149955
H6    H     H_    0.613575 0.654248 0.882076 0.180977
C20   C     C_2   0.537724 0.594385 0.077365 -0.098144
N2    N     N_2   0.501380 0.501360 0.147810 -0.188642
H7    H     H_    0.562358 0.681961 0.127576 0.180422
H8    H     H_    0.508022 0.413030 0.104437 0.206050
C21   C     C_1   0.120975 0.598921 0.271218 0.242342
N3    N     N_1   0.167721 0.638931 0.176324 -0.183583
C22   C     C_1   0.621267 0.070799 0.537629 0.218281
N4    N     N_1   0.710221 0.024252 0.576655 -0.146771
C23   C     C_1   0.399731 0.433144 0.899701 0.351191
N5    N     N_1   0.315696 0.375572 0.938733 -0.206392
N6    N     N_R   0.868293 0.338736 0.961516 0.211063
O9    O     O_R   0.916899 0.343613 0.079385 -0.396430
O10   O     O_R   0.761758 0.282153 0.946614 -0.387414
C24   C     C_1   0.396622 0.881719 0.272994 0.230702
N7    N     N_1   0.377864 0.841849 0.166743 -0.148192
N8    N     N_R   0.414576 0.919383 0.646338 0.220120
O11   O     O_R   0.315351 0.987422 0.669291 -0.357604
O12   O     O_R   0.486325 0.895463 0.745519 -0.357584

loop_
_geom_bond_atom_site_label_1
_geom_bond_atom_site_label_2
_geom_bond_distance
_ccdc_geom_bond_type
O4    Zn2   1.995680 S    
Zn1   O7    1.995681 S    
C10   C11   1.423843 A    
C17   H5    1.089077 S    
C5    C6    1.395379 A    
C20   N2    1.287934 D    
N6    O10   1.301687 A    
C19   C20   1.497790 S    
C21   N3    1.157226 T    
C17   C18   1.343928 D    
Zn2   O8    2.011983 S    
C2    C11   1.451632 S    
C8    H3    1.081874 S    
C4    C14   1.433592 S    
C5    C10   1.417020 A    
O2    C1    1.279510 A    
O8    C4    1.291994 A    
C20   H7    1.082557 S    
C9    C14   1.410803 A    
C23   N5    1.157320 T    
N8    O11   1.302155 A    
N2    H8    1.027122 S    
H4    C13   1.085670 S    
C1    C18   1.415843 S    
Zn2   N2    2.016733 S    
O3    Zn1   2.011982 S    
O3    C2    1.286728 A    
C6    C7    1.397247 A    
C18   C22   1.451442 S    
N8    O12   1.302188 A    
C6    H2    1.081722 S    
C19   H6    1.084765 S    
C15   C24   1.446322 S    
C22   N4    1.157734 T    
O4    C2    1.299801 A    
O7    C4    1.286687 A    
C7    N6    1.440319 S    
C12   C13   1.371784 A    
C15   C16   1.350342 D    
C5    H1    1.079381 S    
N1    C23   1.392444 S    
N6    O9    1.301747 A    
C3    C16   1.454542 S    
C11   C12   1.412494 A    
C15   C17   1.449640 S    
C19   N1    1.295724 D    
C12   C21   1.448011 S    
C13   C14   1.393456 A    
Zn1   O5    1.974833 S    
C16   N8    1.451215 S    
C9    C10   1.393968 A    
O5    C3    1.285927 A    
C24   N7    1.156972 T    
O1    Zn1   1.953610 S    
Zn1   N1    2.016174 S    
Zn2   O6    1.953610 S    
O2    Zn2   1.974833 S    
C7    C8    1.401232 A    
C8    C9    1.417243 A    
O1    C1    1.289478 A    
O6    C3    1.296984 A    
