data_mof_unit_5437.cif
_audit_creation_date              2012-12-11T14:07:43-0500
_audit_creation_method            fapswitch 2.2
_symmetry_space_group_name_H-M    P1
_symmetry_Int_Tables_number       1
_space_group_crystal_system       triclinic
_cell_length_a                    19.654812
_cell_length_b                    17.087616
_cell_length_c                    15.36903
_cell_angle_alpha                 90.145207
_cell_angle_beta                  53.650462
_cell_angle_gamma                 90.067496
_cell_volume                      4157.34167661

loop_
_atom_site_label
_atom_site_type_symbol
_atom_type_description
_atom_site_fract_x
_atom_site_fract_y
_atom_site_fract_z
_atom_type_partial_charge
C1    C     C_R   0.376077 0.197625 0.993912 -0.085578
C2    C     C_R   0.710708 0.853177 0.981487 0.151604
C3    C     C_3   0.386576 0.520930 0.478013 -0.205149
C4    C     C_R   0.151228 0.683843 0.073050 0.143029
C5    C     C_R   0.210708 0.353177 0.981487 0.151604
C6    C     C_R   0.616262 0.819648 0.691077 0.154955
C7    C     C_R   0.688902 0.141041 0.678911 0.094778
C8    C     C_R   0.116262 0.319648 0.691077 0.154955
C9    C     C_R   0.188901 0.641041 0.678911 0.094778
C10   C     C_3   0.180357 0.134949 0.514398 -0.413668
C11   C     C_3   0.321871 0.814419 0.502536 -0.483458
C12   C     C_3   0.680357 0.634949 0.514398 -0.413668
C13   C     C_R   0.340261 0.825284 0.049476 -0.084998
C14   C     C_3   0.821871 0.314419 0.502536 -0.483457
C15   C     C_3   0.124951 0.187201 0.616304 -0.612260
C16   C     C_3   0.261416 0.768431 0.605098 -0.617374
C17   C     C_3   0.624951 0.687201 0.616304 -0.612260
C18   C     C_3   0.761416 0.268431 0.605098 -0.617373
C19   C     C_3   0.309529 0.218532 0.448161 0.344553
C20   C     C_3   0.383369 0.691937 0.389047 0.326522
C21   C     C_3   0.809529 0.718532 0.448161 0.344553
C22   C     C_3   0.883369 0.191937 0.389047 0.326523
C23   C     C_3   0.709614 0.753542 0.398012 0.215722
C24   C     C_R   0.876077 0.697625 0.993912 -0.085578
C25   C     C_3   0.748503 0.253504 0.428316 0.233002
C26   C     C_3   0.209614 0.253542 0.398012 0.215722
C27   C     C_3   0.248503 0.753504 0.428316 0.233002
C28   C     C_3   0.251453 0.185077 0.418082 -0.045558
C29   C     C_3   0.335965 0.770224 0.404416 -0.004443
C30   C     C_3   0.751453 0.685077 0.418082 -0.045558
C31   C     C_3   0.835965 0.270224 0.404416 -0.004444
C32   C     C_3   0.663090 0.771711 0.591992 -0.057554
C33   C     C_3   0.745115 0.185747 0.577620 0.006644
C34   C     C_3   0.163090 0.271711 0.591992 -0.057554
C35   C     C_R   0.840261 0.325284 0.049476 -0.084998
C36   C     C_3   0.245115 0.685747 0.577620 0.006644
C37   C     C_3   0.755188 0.760990 0.557549 0.479414
C38   C     C_3   0.833300 0.146430 0.498367 0.519217
C39   C     C_3   0.255188 0.260990 0.557549 0.479414
C40   C     C_3   0.333300 0.646430 0.498367 0.519218
C41   C     C_R   0.395754 0.802187 0.210800 -0.130192
C42   C     C_R   0.349299 0.169964 0.216444 -0.037705
C43   C     C_R   0.895754 0.302187 0.210800 -0.130192
C44   C     C_R   0.849299 0.669964 0.216444 -0.037705
C45   C     C_3   0.656952 0.804054 0.499834 0.352307
C46   C     C_R   0.669706 0.917414 0.050448 -0.128901
C47   C     C_3   0.698586 0.196716 0.523103 0.400105
C48   C     C_3   0.156952 0.304054 0.499834 0.352307
C49   C     C_3   0.198586 0.696716 0.523103 0.400105
C50   C     C_2   0.191891 0.740684 0.098784 -0.222881
C51   C     C_2   0.284818 0.314696 0.960090 -0.173882
C52   C     C_2   0.691891 0.240684 0.098784 -0.222882
C53   C     C_2   0.784818 0.814696 0.960090 -0.173882
C54   C     C_2   0.711586 0.312239 0.053413 -0.192951
C55   C     C_2   0.812034 0.747475 0.904008 -0.217336
C56   C     C_2   0.211586 0.812239 0.053413 -0.192951
C57   C     C_R   0.634017 0.105454 0.104913 -0.177853
C58   C     C_2   0.312034 0.247475 0.904008 -0.217336
C59   C     C_R   0.328953 0.912984 0.952548 -0.157526
C60   C     C_R   0.366075 0.111376 0.895656 -0.167746
C61   C     C_R   0.828953 0.412984 0.952547 -0.157526
C62   C     C_R   0.866075 0.611376 0.895656 -0.167746
C63   C     C_R   0.356068 0.077247 0.313292 -0.162067
C64   C     C_R   0.406054 0.894576 0.304446 -0.069646
C65   C     C_R   0.856068 0.577247 0.313292 -0.162067
C66   C     C_R   0.906055 0.394576 0.304446 -0.069646
C67   C     C_R   0.348464 0.187704 0.931301 0.163034
C68   C     C_R   0.169706 0.417414 0.050448 -0.128901
C69   C     C_R   0.287314 0.851812 0.025493 0.160056
C70   C     C_R   0.848464 0.687704 0.931301 0.163034
C71   C     C_R   0.787314 0.351812 0.025493 0.160056
C72   C     C_R   0.383529 0.818548 0.307203 0.129191
C73   C     C_R   0.307088 0.138184 0.319090 0.189355
C74   C     C_R   0.883529 0.318548 0.307203 0.129191
C75   C     C_R   0.807088 0.638184 0.319090 0.189355
C76   C     C_R   0.623388 0.199704 0.011541 -0.121634
C77   C     C_R   0.659997 0.821928 0.955030 -0.139078
C78   C     C_R   0.123388 0.699704 0.011541 -0.121634
C79   C     C_R   0.134017 0.605454 0.104913 -0.177853
C80   C     C_R   0.159997 0.321928 0.955030 -0.139078
C81   C     C_R   0.605898 0.802836 0.786598 -0.155800
C82   C     C_R   0.648564 0.172597 0.781984 -0.178499
C83   C     C_R   0.105898 0.302836 0.786598 -0.155800
C84   C     C_R   0.148564 0.672597 0.781984 -0.178499
C85   C     C_R   0.642540 0.076838 0.686606 -0.065151
C86   C     C_R   0.591166 0.895280 0.697234 -0.139905
C87   C     C_R   0.142540 0.576838 0.686606 -0.065151
C88   C     C_R   0.091166 0.395280 0.697234 -0.139905
C89   C     C_3   0.742214 0.920366 0.442255 -0.071158
C90   C     C_R   0.651228 0.183842 0.073050 0.143029
C91   C     C_3   0.617353 0.121689 0.489165 -0.302721
C92   C     C_3   0.242214 0.420366 0.442255 -0.071157
C93   C     C_3   0.117353 0.621689 0.489165 -0.302726
C94   C     C_3   0.453412 0.251061 0.332839 -0.166063
C95   C     C_3   0.475412 0.629325 0.222396 -0.195653
C96   C     C_3   0.953412 0.751061 0.332839 -0.166063
C97   C     C_3   0.975412 0.129325 0.222396 -0.195654
C98   C     C_3   0.827032 0.826837 0.614476 -0.230787
C99   C     C_3   0.886576 0.020930 0.478013 -0.205149
C100  C     C_3   0.327032 0.326837 0.614476 -0.230788
Cl1   Cl    Cl    0.646261 0.718954 0.356334 -0.725091
Cl2   Cl    Cl    0.688309 0.341158 0.453858 -0.724840
Cl3   Cl    Cl    0.146261 0.218953 0.356334 -0.725091
Cl4   Cl    Cl    0.188309 0.841158 0.453858 -0.724840
H1    H     H_    0.385941 0.252565 0.019790 0.077414
H2    H     H_    0.700951 0.301520 0.656271 0.227423
H3    H     H_    0.950912 0.046465 0.423260 0.133521
H4    H     H_    0.888579 0.961975 0.446392 0.199434
H5    H     H_    0.869830 0.014696 0.560540 0.136091
H6    H     H_    0.369262 0.275180 0.589311 0.115325
H7    H     H_    0.275743 0.324170 0.702520 0.146103
H8    H     H_    0.365361 0.379520 0.599353 0.164502
H9    H     H_    0.450912 0.546465 0.423260 0.133521
H10   H     H_    0.388579 0.461975 0.446392 0.199434
H11   H     H_    0.369830 0.514695 0.560540 0.136091
H12   H     H_    0.058992 0.188741 0.641324 0.214639
H13   H     H_    0.200951 0.801520 0.656271 0.227423
H14   H     H_    0.121504 0.159921 0.684442 0.195513
H15   H     H_    0.289352 0.763830 0.650226 0.200086
H16   H     H_    0.621504 0.659921 0.684442 0.195513
H17   H     H_    0.789352 0.263830 0.650226 0.200085
H18   H     H_    0.338863 0.167893 0.460854 -0.019102
H19   H     H_    0.446235 0.707590 0.370005 0.035561
H20   H     H_    0.838863 0.667893 0.460854 -0.019102
H21   H     H_    0.331411 0.776406 0.099177 0.088948
H22   H     H_    0.946235 0.207590 0.370005 0.035561
H23   H     H_    0.749397 0.719719 0.618353 -0.030786
H24   H     H_    0.867332 0.153969 0.536010 -0.028509
H25   H     H_    0.249396 0.219719 0.618353 -0.030786
H26   H     H_    0.367332 0.653969 0.536010 -0.028509
H27   H     H_    0.758362 0.791250 0.331502 0.120774
H28   H     H_    0.757671 0.226358 0.356154 0.141618
H29   H     H_    0.258362 0.291250 0.331502 0.120774
H30   H     H_    0.257671 0.726358 0.356154 0.141617
H31   H     H_    0.589750 0.793427 0.533108 0.144015
H32   H     H_    0.885941 0.752565 0.019790 0.077414
H33   H     H_    0.634969 0.222076 0.586244 0.086961
H34   H     H_    0.089750 0.293427 0.533108 0.144015
H35   H     H_    0.134969 0.722076 0.586244 0.086961
H36   H     H_    0.391388 0.745896 0.182368 0.124966
H37   H     H_    0.331753 0.219593 0.190985 0.112525
H38   H     H_    0.891387 0.245896 0.182368 0.124966
H39   H     H_    0.831753 0.719593 0.190985 0.112525
H40   H     H_    0.218524 0.718131 0.138399 0.137966
H41   H     H_    0.304868 0.333537 0.009025 0.132460
H42   H     H_    0.718524 0.218131 0.138399 0.137967
H43   H     H_    0.831411 0.276406 0.099177 0.088948
H44   H     H_    0.804868 0.833537 0.009025 0.132460
H45   H     H_    0.682861 0.335983 0.017083 0.121757
H46   H     H_    0.794364 0.729848 0.852110 0.117981
H47   H     H_    0.182861 0.835983 0.017083 0.121757
H48   H     H_    0.294364 0.229848 0.852110 0.117981
H49   H     H_    0.307197 0.946920 0.914124 0.099905
H50   H     H_    0.362278 0.085595 0.834288 0.089232
H51   H     H_    0.807197 0.446920 0.914124 0.099906
H52   H     H_    0.862278 0.585595 0.834288 0.089232
H53   H     H_    0.344802 0.042581 0.379294 0.101780
H54   H     H_    0.140416 0.106835 0.494002 0.254083
H55   H     H_    0.414257 0.924775 0.359536 0.074944
H56   H     H_    0.844802 0.542581 0.379294 0.101780
H57   H     H_    0.914257 0.424775 0.359536 0.074943
H58   H     H_    0.616064 0.255803 0.985897 0.082623
H59   H     H_    0.669996 0.770595 0.907821 0.085921
H60   H     H_    0.116064 0.755803 0.985897 0.082623
H61   H     H_    0.169996 0.270595 0.907821 0.085921
H62   H     H_    0.612389 0.746432 0.812613 0.081033
H63   H     H_    0.665380 0.223652 0.806851 0.111490
H64   H     H_    0.112389 0.246432 0.812613 0.081033
H65   H     H_    0.294511 0.873716 0.513293 0.241667
H66   H     H_    0.165380 0.723652 0.806851 0.111490
H67   H     H_    0.654982 0.038430 0.623352 0.177654
H68   H     H_    0.574788 0.924146 0.649859 0.153378
H69   H     H_    0.154982 0.538430 0.623352 0.177654
H70   H     H_    0.074788 0.424146 0.649859 0.153379
H71   H     H_    0.691257 0.951399 0.089165 0.105078
H72   H     H_    0.638704 0.078685 0.164866 0.099204
H73   H     H_    0.191256 0.451399 0.089165 0.105078
H74   H     H_    0.138704 0.578685 0.164866 0.099204
H75   H     H_    0.208420 0.087048 0.532558 0.171815
H76   H     H_    0.640416 0.606835 0.494002 0.254083
H77   H     H_    0.383210 0.822011 0.490562 0.180457
H78   H     H_    0.708420 0.587048 0.532558 0.171815
H79   H     H_    0.883210 0.322011 0.490562 0.180457
H80   H     H_    0.798581 0.885004 0.385577 0.173634
H81   H     H_    0.739414 0.937655 0.513402 0.212275
H82   H     H_    0.749937 0.975153 0.398787 0.205632
H83   H     H_    0.617603 0.067030 0.449897 0.193443
H84   H     H_    0.613465 0.171790 0.446197 0.159146
H85   H     H_    0.560658 0.120317 0.574853 0.137989
H86   H     H_    0.298581 0.385005 0.385577 0.173634
H87   H     H_    0.794511 0.373716 0.513293 0.241667
H88   H     H_    0.239414 0.437655 0.513402 0.212275
H89   H     H_    0.249938 0.475153 0.398787 0.205632
H90   H     H_    0.117603 0.567030 0.449898 0.193444
H91   H     H_    0.113466 0.671790 0.446196 0.159147
H92   H     H_    0.060658 0.620317 0.574853 0.137990
H93   H     H_    0.472788 0.191718 0.296344 0.129911
H94   H     H_    0.457807 0.255607 0.401403 0.137219
H95   H     H_    0.498552 0.293621 0.270367 0.167231
H96   H     H_    0.505816 0.594224 0.251349 0.151714
H97   H     H_    0.511675 0.684164 0.183875 0.129275
H98   H     H_    0.558992 0.688741 0.641324 0.214639
H99   H     H_    0.477599 0.594557 0.159748 0.152604
H100  H     H_    0.972788 0.691718 0.296344 0.129911
H101  H     H_    0.957807 0.755606 0.401403 0.137219
H102  H     H_    0.998552 0.793621 0.270367 0.167231
H103  H     H_    0.005816 0.094224 0.251349 0.151714
H104  H     H_    0.011675 0.184164 0.183875 0.129274
H105  H     H_    0.977599 0.094557 0.159748 0.152604
H106  H     H_    0.869263 0.775180 0.589311 0.115325
H107  H     H_    0.775743 0.824170 0.702520 0.146102
H108  H     H_    0.865361 0.879520 0.599353 0.164502
N1    N     N_R   0.408680 0.130160 0.995800 -0.045724
N2    N     N_R   0.403730 0.078230 0.935950 -0.037237
N3    N     N_R   0.903730 0.421770 0.935950 -0.043388
N4    N     N_R   0.903730 0.578230 0.935950 -0.037237
N5    N     N_R   0.426630 0.075970 0.212960 -0.053114
N6    N     N_R   0.426630 0.924030 0.212960 -0.035444
N7    N     N_R   0.926630 0.575970 0.212960 -0.053114
N8    N     N_R   0.926630 0.424030 0.212960 -0.035444
N9    N     N_R   0.591320 0.134600 0.004200 -0.042373
N10   N     N_R   0.591320 0.865400 0.004200 -0.048251
N11   N     N_R   0.091320 0.634600 0.004200 -0.042373
N12   N     N_R   0.408680 0.869840 0.995800 -0.048690
N13   N     N_R   0.091320 0.365400 0.004200 -0.048251
N14   N     N_R   0.578320 0.867660 0.846880 -0.038892
N15   N     N_R   0.578320 0.132340 0.846880 -0.042522
N16   N     N_R   0.078320 0.367660 0.846880 -0.038892
N17   N     N_R   0.078320 0.632340 0.846880 -0.042522
N18   N     N_R   0.573370 0.074390 0.787040 -0.064067
N19   N     N_R   0.573370 0.925610 0.787040 -0.050600
N20   N     N_R   0.073370 0.574390 0.787040 -0.064067
N21   N     N_R   0.073370 0.425610 0.787040 -0.050600
N22   N     N_R   0.596270 0.927870 0.064040 -0.045340
N23   N     N_R   0.908680 0.630160 0.995800 -0.045724
N24   N     N_R   0.596270 0.072130 0.064040 -0.038548
N25   N     N_R   0.096270 0.427870 0.064040 -0.045340
N26   N     N_R   0.096270 0.572130 0.064040 -0.038548
N27   N     N_R   0.908680 0.369840 0.995800 -0.048690
N28   N     N_R   0.421680 0.867580 0.153120 -0.041289
N29   N     N_R   0.421680 0.132420 0.153120 -0.059874
N30   N     N_R   0.921680 0.367580 0.153120 -0.041289
N31   N     N_R   0.921680 0.632420 0.153120 -0.059874
N32   N     N_R   0.403730 0.921770 0.935950 -0.043388
Ni1   Ni    Ni4+2 0.500000 0.131190 0.000000 0.212137
Ni2   Ni    Ni4+2 0.500000 0.868810 0.000000 0.210069
Ni3   Ni    Ni4+2 0.000000 0.631190 0.000000 0.212137
Ni4   Ni    Ni4+2 0.000000 0.368810 0.000000 0.210069
Ni5   Ni    Ni4+2 0.488650 0.000000 0.862740 0.206287
Ni6   Ni    Ni4+2 0.988650 0.500000 0.862740 0.206287
Ni7   Ni    Ni4+2 0.511350 0.000000 0.137260 0.214082
Ni8   Ni    Ni4+2 0.011350 0.500000 0.137260 0.214082
O1    O     O_3   0.665578 0.885503 0.474831 -0.670901
O2    O     O_3   0.824849 0.066314 0.481904 -0.581081
O3    O     O_3   0.292954 0.332649 0.555470 -0.614279
O4    O     O_3   0.324849 0.566314 0.481904 -0.581081
O5    O     O_3   0.692069 0.124358 0.482707 -0.593452
O6    O     O_3   0.165578 0.385503 0.474831 -0.670901
O7    O     O_3   0.192069 0.624358 0.482707 -0.593452
O8    O     O_3   0.371444 0.269473 0.365235 -0.625579
O9    O     O_3   0.390132 0.645469 0.307223 -0.577834
O10   O     O_3   0.871444 0.769473 0.365235 -0.625579
O11   O     O_3   0.890132 0.145469 0.307223 -0.577834
O12   O     O_3   0.792954 0.832649 0.555470 -0.614279

loop_
_geom_bond_atom_site_label_1
_geom_bond_atom_site_label_2
_ccdc_geom_bond_type
C25   C31   S    
C6    C32   S    
C91   H84   S    
C84   N17   A    
C19   H18   S    
C77   H59   S    
C23   C45   S    
C27   C29   S    
C8    C83   A    
N13   N25   A    
N6    Ni7   S    
C14   C18   S    
C76   H58   S    
C93   H90   S    
C11   H77   S    
N6    N28   A    
C14   C31   S    
C14   H79   S    
C59   H49   S    
C24   C70   A    
C7    C85   A    
N1    N2    A    
C2    C46   A    
C100  H6    S    
C99   H4    S    
C91   H85   S    
C48   O6    S    
C85   H67   S    
C97   H105  S    
C20   C29   S    
C86   H68   S    
C86   N19   A    
C46   N22   A    
N17   N20   A    
C84   H66   S    
C10   C15   S    
C65   H56   S    
C78   H60   S    
C20   C40   S    
C25   Cl2   S    
C22   H22   S    
C39   O3    S    
C51   H41   S    
C95   H99   S    
C87   N20   A    
C66   C74   A    
C26   Cl3   S    
C27   Cl4   S    
C88   H70   S    
C62   C70   A    
C21   C37   S    
C94   H95   S    
C89   H82   S    
C51   C58   D    
C13   C69   A    
C60   N2    A    
C68   H73   S    
C38   O2    S    
C20   H19   S    
C66   N8    A    
C17   H16   S    
C3    O4    S    
C52   C90   S    
C77   N10   A    
C21   H20   S    
C94   O8    S    
C54   C71   S    
C60   C67   A    
C50   H40   S    
C95   H96   S    
C41   H36   S    
C12   C17   S    
N3    Ni6   S    
C96   O10   S    
C81   H62   S    
N25   Ni8   S    
C96   H100  S    
C80   N13   A    
C100  O3    S    
C50   C56   D    
C10   H54   S    
C15   C34   S    
C26   C48   S    
C78   N11   A    
C83   N16   A    
C29   C72   S    
C13   H21   S    
C92   H88   S    
C24   H32   S    
N13   Ni4   S    
C35   C71   A    
C3    H10   S    
C6    C81   A    
C89   O1    S    
N28   Ni2   S    
C57   C90   A    
C7    C33   S    
C93   H91   S    
C62   N4    A    
N2    Ni5   S    
C5    C68   A    
C5    C80   A    
C28   C73   S    
C61   H51   S    
N23   Ni3   S    
C58   H48   S    
N21   Ni6   S    
N14   Ni2   S    
C54   H45   S    
N5    N29   A    
C82   H63   S    
C53   C55   D    
C43   N30   A    
C87   H69   S    
C12   H78   S    
C45   H31   S    
N32   Ni5   S    
C82   N15   A    
C34   C39   S    
C55   C70   S    
C23   C30   S    
C36   C40   S    
C35   N27   A    
C4    C79   A    
C92   H89   S    
C3    H9    S    
C16   H15   S    
C19   O8    S    
C65   N7    A    
N12   N32   A    
C31   C74   S    
C35   H43   S    
C39   H25   S    
N11   Ni3   S    
C98   H108  S    
N11   N26   A    
C53   H44   S    
N30   Ni4   S    
C66   H57   S    
C4    C50   S    
C59   N32   A    
C8    C88   A    
C43   C74   A    
N17   Ni3   S    
C44   C75   A    
C18   H2    S    
C4    C78   A    
C91   O5    S    
C98   O12   S    
C20   O9    S    
C92   H86   S    
C57   H72   S    
C98   H106  S    
C89   H80   S    
C21   O10   S    
C96   H102  S    
C18   H17   S    
C22   O11   S    
C22   C31   S    
C47   H33   S    
C42   H37   S    
C79   H74   S    
C23   H27   S    
C21   C30   S    
N7    N31   A    
C32   C45   S    
C8    C34   S    
C32   C37   S    
C97   H103  S    
C56   H47   S    
N1    Ni1   S    
C19   C28   S    
N16   N21   A    
C19   C39   S    
C59   C69   A    
C41   C72   A    
C14   H87   S    
N12   Ni2   S    
C12   H76   S    
C100  H8    S    
N31   Ni3   S    
N7    Ni8   S    
N8    Ni8   S    
N9    N24   A    
C1    N1    A    
C33   C47   S    
N29   Ni1   S    
C93   H92   S    
C34   C48   S    
N15   N18   A    
C10   H75   S    
N24   Ni7   S    
N8    N30   A    
N18   Ni5   S    
C93   O7    S    
C80   H61   S    
C57   N24   A    
C38   H24   S    
C55   H46   S    
C76   C90   A    
C83   H64   S    
C10   C28   S    
C17   C32   S    
C40   H26   S    
C25   C47   S    
N10   N22   A    
C42   C73   A    
C52   H42   S    
C12   C30   S    
C46   H71   S    
C27   H30   S    
C89   H81   S    
N15   Ni1   S    
C5    C51   S    
C85   N18   A    
N10   Ni2   S    
C2    C53   S    
C65   C75   A    
N22   Ni7   S    
C92   O6    S    
C11   H65   S    
N16   Ni4   S    
C64   N6    A    
C76   N9    A    
C99   O2    S    
C99   H3    S    
C98   H107  S    
C42   N29   A    
C26   C28   S    
C33   C38   S    
C6    C86   A    
C15   H14   S    
C48   H34   S    
C88   N21   A    
C68   N25   A    
C94   H93   S    
N5    Ni7   S    
C63   N5    A    
C99   H5    S    
C49   H35   S    
C37   O12   S    
C24   N23   A    
C3    H11   S    
C95   H97   S    
C9    C87   A    
C9    C36   S    
C30   C75   S    
C49   O7    S    
C61   C71   A    
C96   H101  S    
C23   Cl1   S    
N9    Ni1   S    
C47   O5    S    
C44   H39   S    
C2    C77   A    
C64   H55   S    
C81   N14   A    
C1    C67   A    
C62   H52   S    
C52   C54   D    
N20   Ni6   S    
C64   C72   A    
C97   H104  S    
C22   C38   S    
C17   H98   S    
C18   C33   S    
C60   H50   S    
C63   C73   A    
C11   C16   S    
C97   O11   S    
C9    C84   A    
N26   Ni8   S    
C40   O4    S    
C27   C49   S    
C58   C67   S    
C95   O9    S    
C7    C82   A    
N3    N27   A    
C11   C29   S    
C100  H7    S    
N4    Ni6   S    
C56   C69   S    
C1    H1    S    
C26   H29   S    
N4    N23   A    
C63   H53   S    
C15   H12   S    
N27   Ni4   S    
C43   H38   S    
C61   N3    A    
C13   N12   A    
C79   N26   A    
C94   H94   S    
C16   H13   S    
C25   H28   S    
C91   H83   S    
C16   C36   S    
C36   C49   S    
N14   N19   A    
C44   N31   A    
C45   O1    S    
C37   H23   S    
C41   N28   A    
N19   Ni5   S    
