data_mof_unit_5987.cif
_audit_creation_date              2013-03-05T15:43:52-0500
_audit_creation_method            fapswitch 2.2
_symmetry_space_group_name_H-M    P1
_symmetry_Int_Tables_number       1
_space_group_crystal_system       triclinic
_cell_length_a                    13.513687
_cell_length_b                    13.517579
_cell_length_c                    27.506047
_cell_angle_alpha                 90.317206
_cell_angle_beta                  89.964181
_cell_angle_gamma                 60.21442
_cell_volume                      4360.69737515

loop_
_atom_site_label
_atom_site_type_symbol
_atom_site_description
_atom_site_fract_x
_atom_site_fract_y
_atom_site_fract_z
_atom_type_partial_charge
O1    O     O_R   0.301710 0.195650 0.554160 -0.478103
O2    O     O_R   0.522390 0.158990 0.550460 -0.486721
C1    C     C_R   0.620351 0.101171 0.570030 0.557529
O3    O     O_R   0.694390 0.003530 0.554040 -0.488479
O4    O     O_R   0.657700 0.819660 0.549320 -0.482882
C2    C     C_R   0.599896 0.778567 0.568585 0.557047
O5    O     O_R   0.501930 0.803280 0.552920 -0.494554
O6    O     O_R   0.318170 0.023580 0.549580 -0.493409
C3    C     C_R   0.278614 0.121045 0.569787 0.559162
O7    O     O_R   0.303010 0.193990 0.446760 -0.511213
O8    O     O_R   0.523600 0.157450 0.450900 -0.506779
C4    C     C_R   0.621401 0.098087 0.430709 0.541895
O9    O     O_R   0.695690 0.001860 0.446640 -0.508419
O10   O     O_R   0.658900 0.818120 0.449760 -0.499148
C5    C     C_R   0.600851 0.777266 0.429888 0.542020
O11   O     O_R   0.503220 0.801620 0.445520 -0.513250
O12   O     O_R   0.319370 0.022040 0.450020 -0.497511
C6    C     C_R   0.281728 0.119601 0.430149 0.546319
Cr1   Cr    Cr6+3 0.417550 0.169090 0.500530 1.072325
Cr2   Cr    Cr6+3 0.669180 0.913420 0.499920 1.076687
Cr3   Cr    Cr6+3 0.413260 0.917540 0.499520 1.066964
O13   O     O_3   0.499990 0.000010 0.499990 -0.271745
C7    C     C_3   0.770668 0.608172 0.739373 -0.095766
C8    C     C_3   0.737041 0.708368 0.775409 -0.092120
H1    H     H_    0.794150 0.738699 0.789744 0.150567
H2    H     H_    0.855666 0.556319 0.722968 0.219449
C9    C     C_1   0.694284 0.613429 0.900745 0.024685
C10   C     C_1   0.632161 0.727652 0.615844 0.051806
C11   C     C_3   0.705451 0.564408 0.770847 -0.080869
C12   C     C_3   0.671504 0.664852 0.806241 0.021371
C13   C     C_3   0.595092 0.638129 0.741505 -0.065893
C14   C     C_3   0.660894 0.680767 0.710720 0.044149
C15   C     C_3   0.560937 0.738366 0.777579 -0.074297
C16   C     C_3   0.626876 0.780865 0.746000 0.089199
C17   C     C_1   0.682259 0.643158 0.858812 -0.012327
C18   C     C_1   0.649780 0.698841 0.657862 0.038778
H3    H     H_    0.475062 0.793060 0.793663 0.144875
H4    H     H_    0.537428 0.610158 0.725969 0.206312
H5    H     H_    0.737769 0.474974 0.782331 0.150692
C19   C     C_3   0.080817 0.119002 0.732575 0.094990
C20   C     C_3   0.161561 0.074769 0.777142 -0.106717
H6    H     H_    0.190567 0.992115 0.795635 0.154263
H7    H     H_    0.333575 0.063446 0.752039 0.176823
C21   C     C_1   0.033439 0.237255 0.894536 0.007517
C22   C     C_1   0.227926 0.136793 0.616981 0.066806
C23   C     C_3   0.009860 0.237757 0.757408 -0.100798
C24   C     C_3   0.092254 0.193349 0.801064 -0.027341
C25   C     C_3   0.090178 0.274017 0.734126 0.238488
C26   C     C_3   0.158752 0.158365 0.709268 0.053507
C27   C     C_3   0.170290 0.233061 0.778035 -0.081852
C28   C     C_3   0.239743 0.114574 0.753209 -0.144030
C29   C     C_1   0.059645 0.215828 0.852360 -0.035061
C30   C     C_1   0.194465 0.146111 0.658243 0.068188
H8    H     H_    0.204979 0.281469 0.797365 0.177228
H9    H     H_    0.916153 0.290157 0.761139 0.132771
C31   C     C_3   0.696132 0.257976 0.732575 0.076879
C32   C     C_3   0.596224 0.302919 0.768920 0.242336
C33   C     C_1   0.696807 0.216468 0.900713 0.029581
C34   C     C_1   0.637564 0.135547 0.617206 0.060320
C35   C     C_3   0.770775 0.161788 0.769045 -0.137455
C36   C     C_3   0.669025 0.208209 0.804924 -0.013578
C37   C     C_3   0.729156 0.083921 0.746121 -0.111158
C38   C     C_3   0.654961 0.180081 0.710506 0.039617
C39   C     C_3   0.627260 0.131290 0.782260 -0.128080
C40   C     C_3   0.553370 0.227497 0.746038 0.122825
C41   C     C_1   0.681224 0.213357 0.857720 0.008961
C42   C     C_1   0.647198 0.158329 0.658717 0.059006
H10   H     H_    0.598956 0.080173 0.803508 0.162566
H11   H     H_    0.784713 0.992891 0.736065 0.181399
H12   H     H_    0.859287 0.135443 0.780167 0.153411
C43   C     C_R   0.735208 0.696367 0.359370 -0.118499
C44   C     C_R   0.749184 0.679585 0.308743 -0.005620
C45   C     C_R   0.768052 0.653436 0.206996 -0.042409
C46   C     C_R   0.863362 0.631344 0.234928 -0.108909
C47   C     C_R   0.854911 0.646133 0.285487 0.196670
C48   C     C_R   0.779571 0.630752 0.157296 -0.150692
H13   H     H_    0.863925 0.591444 0.141054 0.153302
H14   H     H_    0.803284 0.689579 0.382184 0.188571
H15   H     H_    0.944964 0.603062 0.217293 0.158529
C49   C     C_R   0.685652 0.645952 0.129784 0.021254
C50   C     C_R   0.542108 0.729794 0.353067 -0.104133
C51   C     C_R   0.550430 0.720747 0.302860 0.021430
C52   C     C_R   0.653719 0.697498 0.280348 0.014210
C53   C     C_R   0.455972 0.739211 0.274586 0.060939
C54   C     C_R   0.461438 0.743693 0.224323 -0.060438
C55   C     C_R   0.564562 0.715138 0.200996 0.003277
C56   C     C_R   0.661951 0.689435 0.229435 0.009806
C57   C     C_R   0.575473 0.702979 0.150103 0.238368
C58   C     C_R   0.630267 0.726615 0.381053 -0.023856
H16   H     H_    0.385776 0.762641 0.204082 0.202774
H17   H     H_    0.462008 0.751040 0.370201 0.181469
C59   C     C_R   0.185300 0.083034 0.360637 -0.123755
C60   C     C_R   0.158978 0.094604 0.311085 0.020761
C61   C     C_R   0.110720 0.116183 0.211443 0.007930
C62   C     C_R   0.077176 0.053477 0.240876 -0.107038
C63   C     C_R   0.100423 0.043548 0.290546 -0.099144
C64   C     C_R   0.081520 0.132722 0.162628 -0.111013
H18   H     H_    0.032479 0.096151 0.147661 0.162173
H19   H     H_    0.163519 0.031641 0.383593 0.137885
H20   H     H_    0.031247 0.013882 0.225646 0.149992
H21   H     H_    0.072660 0.996018 0.312866 0.155690
C65   C     C_R   0.105170 0.205185 0.134521 0.005548
C66   C     C_R   0.270735 0.203423 0.350738 -0.102890
C67   C     C_R   0.248028 0.213184 0.301573 0.018700
C68   C     C_R   0.192373 0.158331 0.281418 0.062160
C69   C     C_R   0.280825 0.276633 0.272367 -0.084860
C70   C     C_R   0.256928 0.287478 0.222954 -0.102369
C71   C     C_R   0.199750 0.235070 0.202485 0.012416
C72   C     C_R   0.168668 0.168828 0.231674 0.062086
C73   C     C_R   0.167708 0.252742 0.153908 -0.118071
C74   C     C_R   0.240863 0.137763 0.380360 0.003621
H22   H     H_    0.186089 0.308109 0.131931 0.146713
H23   H     H_    0.281122 0.338483 0.201005 0.140216
H24   H     H_    0.323289 0.319230 0.287940 0.137804
H25   H     H_    0.316376 0.243864 0.365532 0.145213
C75   C     C_R   0.571116 0.233753 0.362292 -0.138607
C76   C     C_R   0.572859 0.251401 0.312402 0.005661
C77   C     C_R   0.578449 0.285184 0.211983 -0.011244
C78   C     C_R   0.507480 0.376566 0.243193 -0.088747
C79   C     C_R   0.505776 0.359885 0.292951 -0.146750
C80   C     C_R   0.590891 0.303351 0.162777 0.150110
H26   H     H_    0.515884 0.303922 0.386143 0.132048
H27   H     H_    0.453960 0.462000 0.229671 0.199909
H28   H     H_    0.451804 0.431879 0.316191 0.152522
C81   C     C_R   0.669608 0.211260 0.133254 -0.025073
C82   C     C_R   0.706968 0.032560 0.350215 -0.117444
C83   C     C_R   0.706272 0.048224 0.300502 0.008285
C84   C     C_R   0.640330 0.158114 0.281286 0.071428
C85   C     C_R   0.767654 0.954736 0.269715 -0.136786
C86   C     C_R   0.767303 0.969989 0.219898 -0.093979
C87   C     C_R   0.709036 0.080169 0.200130 -0.011335
C88   C     C_R   0.642360 0.174501 0.231016 -0.012501
C89   C     C_R   0.719141 0.098475 0.150666 0.165209
C90   C     C_R   0.637903 0.124340 0.381171 -0.002730
H29   H     H_    0.815332 0.894987 0.197460 0.183468
H30   H     H_    0.816058 0.869666 0.284175 0.164330
H31   H     H_    0.756161 0.946744 0.364323 0.166503
O14   O     O_R   0.818720 0.150820 0.967160 -0.497466
O15   O     O_R   0.006410 0.181720 0.970200 -0.480375
C91   C     C_R   0.999381 0.265292 0.944320 0.545427
O16   O     O_R   0.027890 0.334070 0.964920 -0.483987
O17   O     O_R   0.809600 0.521790 0.967960 -0.514339
C92   C     C_R   0.711268 0.563707 0.948263 0.544788
O18   O     O_R   0.635520 0.542770 0.964420 -0.475681
O19   O     O_R   0.665950 0.325030 0.970100 -0.487991
C93   C     C_R   0.723515 0.227096 0.950222 0.542129
O20   O     O_R   0.816620 0.158530 0.074540 -0.457326
O21   O     O_R   0.004460 0.188870 0.069750 -0.492253
C94   C     C_R   0.047740 0.244691 0.088224 0.560507
O22   O     O_R   0.025800 0.341780 0.072300 -0.507394
O23   O     O_R   0.807650 0.528950 0.067500 -0.519365
C95   C     C_R   0.707316 0.577410 0.085402 0.583446
O24   O     O_R   0.633420 0.550490 0.071810 -0.403839
O25   O     O_R   0.664000 0.332180 0.069640 -0.447806
C96   C     C_R   0.716986 0.233535 0.088863 0.577753
Cr4   Cr    Cr6+3 0.909170 0.177380 0.020380 1.109360
Cr5   Cr    Cr6+3 0.912710 0.429210 0.018220 1.060047
Cr6   Cr    Cr6+3 0.657170 0.432570 0.019030 1.164065
O26   O     O_3   0.826350 0.346390 0.019210 -0.316199
N1    N     N_R   0.053764 0.380875 0.708883 0.069185
O27   O     O_R   0.082149 0.453700 0.725318 -0.304785
O28   O     O_R   0.998840 0.400515 0.668040 -0.320400
N2    N     N_R   0.522824 0.422558 0.781700 0.086781
O29   O     O_R   0.449894 0.491955 0.750284 -0.297627
O30   O     O_R   0.526593 0.459695 0.824983 -0.332306
I1    I     I_    0.741652 0.352722 0.684327 -0.332381
I2    I     I_    0.381849 0.286501 0.723875 -0.204602
N3    N     N_R   0.955202 0.623663 0.312273 0.072442
O31   O     O_R   0.953754 0.701220 0.340965 -0.358998
O32   O     O_R   0.052858 0.535206 0.301103 -0.327201
N4    N     N_R   0.477493 0.744556 0.118882 0.081752
O33   O     O_R   0.468865 0.808668 0.082190 -0.309981
O34   O     O_R   0.408750 0.703360 0.121439 -0.247827
I3    I     I_    0.304125 0.752379 0.303954 -0.396868
I4    I     I_    0.566393 0.947038 0.717917 -0.479061
N5    N     N_R   0.533082 0.417227 0.144561 0.089567
O35   O     O_R   0.560167 0.491056 0.160803 -0.339017
O36   O     O_R   0.449169 0.448753 0.114144 -0.280289
N6    N     N_R   0.783786 0.003538 0.118468 0.082905
O37   O     O_R   0.893133 0.938845 0.124555 -0.327527
O38   O     O_R   0.736745 0.992305 0.079130 -0.299670
I5    I     I_    0.022716 0.020565 0.693445 -0.327434

loop_
_geom_bond_atom_site_label_1
_geom_bond_atom_site_label_2
_geom_bond_distance
_ccdc_geom_bond_type
C52   C56   1.404077 A    
N4    O33   1.301038 A    
C38   C40   1.538800 S    
C82   H31   1.085046 S    
C3    C22   1.431989 S    
C82   C83   1.384202 A    
O22   Cr5   2.042775 S    
C45   C46   1.400005 A    
C62   C63   1.394236 A    
C67   C69   1.400807 A    
C64   H18   1.084738 S    
O4    Cr2   1.921165 S    
C54   C55   1.401601 A    
C31   C32   1.538831 S    
C19   C23   1.555865 S    
C25   N1    1.454674 S    
O8    Cr1   1.926997 S    
C27   H8    1.109892 S    
C75   H26   1.084582 S    
C12   C17   1.469947 S    
C69   H24   1.081760 S    
C7    C11   1.548848 S    
C35   C37   1.550187 S    
N2    O30   1.300338 A    
O7    C6    1.258972 A    
O25   Cr6   1.919523 S    
C39   H10   1.109994 S    
O19   C93   1.274733 A    
O4    C2    1.278031 A    
C55   C57   1.407653 A    
C80   N5    1.430104 S    
C75   C90   1.398060 A    
C69   C70   1.388806 A    
O14   Cr4   2.048969 S    
C5    O11   1.264979 A    
C71   C72   1.415630 A    
C66   C74   1.406462 A    
C20   H6    1.110037 S    
C7    H2    1.100118 S    
O24   Cr6   2.053526 S    
C77   C78   1.411679 A    
C70   H23   1.084006 S    
C37   C39   1.552259 S    
C16   I4    2.122810 S    
C73   H22   1.084796 S    
C34   C42   1.204841 T    
C36   C41   1.466816 S    
C33   C41   1.205460 T    
C45   C56   1.405685 A    
N2    O29   1.299828 A    
C71   C73   1.389757 A    
O6    C3    1.273689 A    
C26   C28   1.541124 S    
C43   C58   1.397903 A    
C23   H9    1.106212 S    
C9    C92   1.438593 S    
C7    C8    1.548062 S    
C13   C15   1.548139 S    
C8    H1    1.110020 S    
N5    O35   1.299119 A    
C47   N3    1.437602 S    
O20   C96   1.278547 A    
C64   C65   1.406553 A    
O9    Cr2   2.037047 S    
C60   C68   1.416038 A    
C21   C29   1.203745 T    
N5    O36   1.300966 A    
C22   C30   1.204005 T    
C21   C91   1.432045 S    
C57   N4    1.440114 S    
C4    C90   1.454627 S    
Cr3   O13   1.978530 S    
C11   C13   1.549998 S    
C61   C62   1.402961 A    
C44   C47   1.417319 A    
C53   I3    2.128014 S    
C84   C88   1.403958 A    
C67   C68   1.404575 A    
O6    Cr3   1.935937 S    
C24   C27   1.538456 S    
C19   I5    2.137427 S    
C48   H13   1.084589 S    
C91   O16   1.297738 A    
C54   H16   1.078496 S    
C2    C10   1.437383 S    
O1    Cr1   2.046555 S    
C46   C47   1.400370 A    
C59   H19   1.084302 S    
O10   Cr2   1.934106 S    
Cr1   O13   1.983680 S    
O1    C3    1.271442 A    
C6    C74   1.452858 S    
C76   C79   1.395375 A    
C55   C56   1.419414 A    
C89   N6    1.437727 S    
C50   C51   1.385289 A    
C61   C64   1.387413 A    
C9    C17   1.207789 T    
O5    Cr3   2.041420 S    
O10   C5    1.283245 A    
C25   C27   1.533230 S    
C8    C16   1.546570 S    
C31   C35   1.557895 S    
C37   H11   1.110154 S    
C35   C36   1.546810 S    
C77   C80   1.401726 A    
C14   C16   1.533226 S    
C36   C39   1.537714 S    
C66   H25   1.085221 S    
O12   Cr3   1.924025 S    
C83   C85   1.395712 A    
C38   C42   1.467280 S    
C80   C81   1.418734 A    
C11   C12   1.538737 S    
C5    C58   1.466246 S    
C85   H30   1.080051 S    
N4    O34   1.300901 A    
C86   C87   1.406493 A    
C13   C14   1.534157 S    
C32   N2    1.456854 S    
C35   H12   1.108862 S    
O7    Cr1   2.046304 S    
O23   C95   1.274036 A    
C11   H5    1.109900 S    
C37   C38   1.541119 S    
C33   C93   1.433644 S    
O12   C6    1.280048 A    
C20   C24   1.541270 S    
C31   C38   1.536922 S    
C27   C28   1.551149 S    
C53   C54   1.387709 A    
C78   C79   1.390345 A    
O20   Cr4   2.041309 S    
C82   C90   1.404346 A    
O25   C96   1.276730 A    
C24   C29   1.462454 S    
O16   Cr5   2.052691 S    
C25   C26   1.522604 S    
C86   H29   1.081137 S    
Cr2   O13   1.984625 S    
C60   C63   1.400169 A    
C51   C53   1.408340 A    
C46   H15   1.084396 S    
C59   C74   1.397612 A    
Cr6   O26   1.984452 S    
C45   C48   1.390953 A    
C65   C73   1.395849 A    
C70   C71   1.398534 A    
O18   Cr6   2.037958 S    
C1    O3    1.271849 A    
O23   Cr5   1.935568 S    
C15   H3    1.110124 S    
C85   C86   1.386485 A    
C81   C89   1.412938 A    
C49   C95   1.466980 S    
C68   C72   1.397276 A    
C23   C24   1.545198 S    
N3    O31   1.301064 A    
C12   C15   1.541606 S    
O2    Cr1   1.929869 S    
C62   H20   1.084007 S    
Cr4   O26   1.983328 S    
C48   C49   1.403407 A    
C32   C40   1.533245 S    
C87   C89   1.402879 A    
O15   C91   1.301672 A    
C14   C18   1.471004 S    
O11   Cr3   2.053987 S    
C32   C36   1.533491 S    
C2    O5    1.269972 A    
O3    Cr2   2.051486 S    
C78   H27   1.081844 S    
O21   Cr4   1.930025 S    
C40   I2    2.133256 S    
C61   C72   1.406825 A    
C13   H4    1.106418 S    
C7    C14   1.532486 S    
C92   O18   1.270475 A    
C50   C58   1.401556 A    
C43   C44   1.407098 A    
C49   C57   1.406183 A    
C94   O22   1.273630 A    
N1    O27   1.300394 A    
O19   Cr6   1.935309 S    
H7    C28   1.102542 S    
C19   C26   1.537215 S    
O15   Cr4   1.926276 S    
O14   C93   1.274192 A    
C26   C30   1.465360 S    
C39   C40   1.551273 S    
N3    O32   1.301317 A    
C59   C60   1.398731 A    
C15   C16   1.546524 S    
C75   C76   1.396336 A    
O2    C1    1.276998 A    
O21   C94   1.266586 A    
C87   C88   1.416038 A    
C76   C84   1.413793 A    
C8    C12   1.540047 S    
C44   C52   1.423374 A    
C77   C88   1.408529 A    
C65   C94   1.451245 S    
N6    O37   1.301700 A    
C50   H17   1.079481 S    
C23   C25   1.536098 S    
C79   H28   1.083981 S    
C4    O9    1.265431 A    
C10   C18   1.207186 T    
Cr5   O26   1.978489 S    
C51   C52   1.411190 A    
C31   I1    2.140189 S    
C66   C67   1.379369 A    
C83   C84   1.405049 A    
O17   C92   1.279303 A    
C19   C20   1.553205 S    
C95   O24   1.276475 A    
O17   Cr5   1.925612 S    
C63   H21   1.083533 S    
C20   C28   1.551437 S    
C43   H14   1.079817 S    
C81   C96   1.478544 S    
O8    C4    1.280467 A    
N1    O28   1.300780 A    
N6    O38   1.301106 A    
C1    C34   1.433498 S    
