data_mof_unit_21925.cif
_audit_creation_date              2012-12-11T17:23:07-0500
_audit_creation_method            fapswitch 2.2
_symmetry_space_group_name_H-M    P1
_symmetry_Int_Tables_number       1
_space_group_crystal_system       triclinic
_cell_length_a                    22.370811
_cell_length_b                    7.095661
_cell_length_c                    19.453596
_cell_angle_alpha                 90.000882
_cell_angle_beta                  99.47157
_cell_angle_gamma                 90.000143
_cell_volume                      3045.88273649

loop_
_atom_site_label
_atom_site_type_symbol
_atom_type_description
_atom_site_fract_x
_atom_site_fract_y
_atom_site_fract_z
_atom_type_partial_charge
O1    O     O_R   0.443980 0.494320 0.557430 -0.533829
O2    O     O_R   0.556020 0.994320 0.442570 -0.533831
O3    O     O_R   0.441210 0.822520 0.414610 -0.537441
O4    O     O_R   0.558790 0.322520 0.585390 -0.537442
C1    C     C_R   0.426589 0.655484 0.388970 0.687976
C2    C     C_R   0.573411 0.155487 0.611030 0.687974
O5    O     O_R   0.436920 0.823940 0.555180 -0.536516
O6    O     O_R   0.563080 0.323940 0.444820 -0.536516
O7    O     O_R   0.551700 0.995760 0.584140 -0.535163
O8    O     O_R   0.448300 0.495760 0.415860 -0.535164
C3    C     C_R   0.421560 0.655406 0.574832 0.719118
C4    C     C_R   0.578440 0.155405 0.425168 0.719122
O9    O     O_3   0.537660 0.661290 0.509340 -0.370433
O10   O     O_3   0.462340 0.161290 0.490660 -0.370433
V1    V     V_3+5 0.493010 0.935560 0.498270 1.424018
V2    V     V_3+5 0.506990 0.435560 0.501730 1.424019
H1    H     H_    0.713152 0.817889 0.300792 0.112418
H2    H     H_    0.286920 0.317863 0.699296 0.112410
C5    C     C_R   0.773096 0.931776 0.235231 -0.154879
C6    C     C_R   0.226944 0.431759 0.764817 -0.154882
H3    H     H_    0.789467 0.794083 0.223023 0.111777
H4    H     H_    0.210606 0.294053 0.777062 0.111769
C7    C     C_R   0.795197 0.094654 0.206931 0.136635
C8    C     C_R   0.204802 0.594651 0.793067 0.136628
C9    C     C_R   0.773003 0.271278 0.223506 -0.162726
C10   C     C_R   0.226955 0.771291 0.776443 -0.162707
H5    H     H_    0.789299 0.398691 0.202095 0.114255
H6    H     H_    0.210628 0.898716 0.797815 0.114246
C11   C     C_R   0.729503 0.284894 0.267867 -0.155879
C12   C     C_R   0.270455 0.784909 0.732083 -0.155882
H7    H     H_    0.713033 0.422574 0.279932 0.111993
H8    H     H_    0.286892 0.922603 0.719981 0.111985
C13   C     C_R   0.707477 0.122034 0.296290 0.136355
C14   C     C_R   0.292522 0.622035 0.703709 0.136360
C15   C     C_R   0.729581 0.945374 0.279575 -0.156522
C16   C     C_R   0.270460 0.445360 0.720474 -0.156520
C17   C     C_1   0.840240 0.080919 0.160855 -0.059042
C18   C     C_1   0.159759 0.580915 0.839143 -0.059034
C19   C     C_1   0.662196 0.135782 0.342118 -0.061333
C20   C     C_1   0.337803 0.635785 0.657883 -0.061327
C21   C     C_1   0.624211 0.145872 0.380157 -0.187329
C22   C     C_1   0.375788 0.645876 0.619843 -0.187330
C23   C     C_1   0.877600 0.071104 0.122042 -0.191079
C24   C     C_1   0.122400 0.571100 0.877956 -0.191080
C25   C     C_R   0.631079 0.191570 0.802904 -0.167759
C26   C     C_R   0.368926 0.691483 0.197093 -0.167757
H9    H     H_    0.544676 0.215255 0.737318 0.104812
H10   H     H_    0.455329 0.715166 0.262680 0.104810
H11   H     H_    0.610344 0.221785 0.848062 0.108857
H12   H     H_    0.389663 0.721660 0.151934 0.108856
C27   C     C_R   0.615122 0.149550 0.678159 -0.037297
C28   C     C_R   0.384879 0.649536 0.321841 -0.037292
C29   C     C_R   0.909064 0.036708 0.761418 -0.155984
C30   C     C_R   0.090934 0.536758 0.238582 -0.155988
C31   C     C_R   0.872187 0.033778 0.696639 -0.120805
C32   C     C_R   0.127810 0.533839 0.303362 -0.120805
C33   C     C_R   0.809943 0.062075 0.690758 -0.144540
C34   C     C_R   0.190055 0.562115 0.309243 -0.144540
C35   C     C_R   0.782448 0.094889 0.750280 0.074799
C36   C     C_R   0.217552 0.594895 0.249720 0.074800
C37   C     C_R   0.820789 0.099920 0.816706 0.019893
C38   C     C_R   0.179212 0.599908 0.183294 0.019893
C39   C     C_R   0.718416 0.122985 0.745740 0.054245
C40   C     C_R   0.281584 0.622972 0.254260 0.054245
C41   C     C_R   0.694115 0.159401 0.807906 0.074724
C42   C     C_R   0.305888 0.659339 0.192092 0.074724
C43   C     C_R   0.732711 0.163716 0.873746 0.114818
C44   C     C_R   0.267293 0.663631 0.126251 0.114820
C45   C     C_R   0.795210 0.133223 0.876714 -0.190210
C46   C     C_R   0.204792 0.633168 0.123285 -0.190209
C47   C     C_R   0.677405 0.117018 0.681230 -0.199383
C48   C     C_R   0.322594 0.617032 0.318771 -0.199381
C49   C     C_R   0.592564 0.187717 0.739115 -0.157799
C50   C     C_R   0.407439 0.687651 0.260883 -0.157801
C51   C     C_R   0.884486 0.069913 0.821816 -0.069695
C52   C     C_R   0.115514 0.569925 0.178184 -0.069693
H13   H     H_    0.692186 0.089722 0.632235 0.090623
H14   H     H_    0.307811 0.589776 0.367768 0.090619
H15   H     H_    0.957271 0.012489 0.764520 0.104474
H16   H     H_    0.042725 0.512558 0.235481 0.104474
H17   H     H_    0.784835 0.057619 0.638624 0.105869
H18   H     H_    0.215162 0.557667 0.361377 0.105870
H19   H     H_    0.892033 0.008480 0.650334 0.119033
H20   H     H_    0.107963 0.508568 0.349667 0.119034
H21   H     H_    0.824872 0.136142 0.926376 0.124001
H22   H     H_    0.175131 0.636074 0.073622 0.123996
O11   O     O_R   0.051730 0.724670 0.084120 -0.534037
O12   O     O_R   0.948270 0.224670 0.915880 -0.534037
O13   O     O_R   0.063080 0.393540 0.944820 -0.536115
O14   O     O_R   0.936920 0.893540 0.055180 -0.536115
C53   C     C_R   0.077741 0.561966 0.924321 0.717200
C54   C     C_R   0.922259 0.061967 0.075679 0.717203
O15   O     O_R   0.058800 0.395030 0.085390 -0.535619
O16   O     O_R   0.941200 0.895030 0.914610 -0.535620
O17   O     O_R   0.943980 0.223310 0.057440 -0.534211
O18   O     O_R   0.056020 0.723310 0.942560 -0.534209
C55   C     C_R   0.073229 0.563494 0.111009 0.676815
C56   C     C_R   0.926770 0.063491 0.888991 0.676813
O19   O     O_3   0.962360 0.556290 0.990650 -0.369556
O20   O     O_3   0.037640 0.056290 0.009350 -0.369555
V3    V     V_3+5 0.006980 0.281990 0.001730 1.424817
V4    V     V_3+5 0.993020 0.781990 0.998270 1.424820
C57   C     C_3   0.706128 0.201279 0.940082 -0.358726
C58   C     C_3   0.750234 0.195658 0.008920 -0.753196
H23   H     H_    0.771498 0.054190 0.016610 0.226268
H24   H     H_    0.785441 0.306580 0.010184 0.225983
H25   H     H_    0.725105 0.222336 0.052668 0.224528
H26   H     H_    0.684461 0.342704 0.935855 0.181220
H27   H     H_    0.670672 0.093816 0.943936 0.179579
C59   C     C_3   0.293879 0.701136 0.059914 -0.358731
C60   C     C_3   0.249774 0.695491 0.991075 -0.753184
H28   H     H_    0.228502 0.554031 0.983394 0.226263
H29   H     H_    0.214574 0.806435 0.989803 0.225981
H30   H     H_    0.274906 0.722122 0.947326 0.224535
H31   H     H_    0.315553 0.842552 0.064131 0.181219
H32   H     H_    0.329331 0.593651 0.056068 0.179579

loop_
_geom_bond_atom_site_label_1
_geom_bond_atom_site_label_2
_ccdc_geom_bond_type
C42   C44   A    
C39   C41   A    
C17   C23   T    
O18   V4    S    
C60   H28   S    
O1    C3    A    
C26   C50   A    
O2    C4    A    
C2    O7    A    
C58   H24   S    
O12   V3    S    
C51   C56   S    
C43   C57   S    
C19   C21   T    
C37   C51   A    
O5    C3    A    
C13   C19   S    
C14   C20   S    
C36   C38   A    
C5    H3    S    
C8    C10   A    
C26   C42   A    
C59   H32   S    
C28   C50   A    
C34   H18   S    
C33   C35   A    
O16   C56   A    
C34   C36   A    
C11   C13   A    
C38   C46   A    
C3    C22   S    
C25   C49   A    
C59   C60   S    
O14   V4    S    
C48   H14   S    
C53   O18   A    
C6    C8    A    
C41   C43   A    
C8    C18   S    
C1    C28   S    
C57   H26   S    
C2    C27   S    
O13   C53   A    
C7    C9    A    
O6    V2    S    
C38   C52   A    
C29   C51   A    
C27   C47   A    
C58   H23   S    
C32   H20   S    
C30   H16   S    
C29   C31   A    
C9    C11   A    
C30   C32   A    
C35   C37   A    
C12   C14   A    
H10   C50   S    
H9    C49   S    
O4    C2    A    
O15   V3    S    
O5    V1    S    
C52   C55   S    
C7    C17   S    
C54   O17   A    
C43   C45   A    
C40   C42   A    
O4    V2    S    
C5    C7    A    
C18   C24   T    
C4    C21   S    
C28   C48   A    
O11   V4    S    
O14   C54   A    
C25   H11   S    
O6    C4    A    
O20   V4    S    
C60   H29   S    
O1    V2    S    
C44   C59   S    
O2    V1    S    
C24   C53   S    
C30   C52   A    
O19   V3    S    
C39   C47   A    
C10   C12   A    
C31   C33   A    
C25   C41   A    
C33   H17   S    
C31   H19   S    
C46   H22   S    
O15   C55   A    
C47   H13   S    
C45   H21   S    
C37   C45   A    
O13   V3    S    
C10   H6    S    
C27   C49   A    
C6    H4    S    
O3    C1    A    
C9    H5    S    
C26   H12   S    
C35   C39   A    
C23   C54   S    
C57   H27   S    
C36   C40   A    
C29   H15   S    
O7    V1    S    
C1    O8    A    
C11   H7    S    
C5    C15   A    
C12   H8    S    
C20   C22   T    
O20   V3    S    
C13   C15   A    
C32   C34   A    
C60   H30   S    
C14   C16   A    
C40   C48   A    
C6    C16   A    
O19   V4    S    
O16   V4    S    
C44   C46   A    
O9    V2    S    
C57   C58   S    
O10   V1    S    
O3    V1    S    
O8    V2    S    
H1    C15   S    
H2    C16   S    
C59   H31   S    
C58   H25   S    
O12   C56   A    
O17   V3    S    
O11   C55   A    
