data_mof_unit_60539.cif
_audit_creation_date              2012-12-10T19:55:47-0500
_audit_creation_method            fapswitch 2.2
_symmetry_space_group_name_H-M    P1
_symmetry_Int_Tables_number       1
_space_group_crystal_system       triclinic
_cell_length_a                    14.977333
_cell_length_b                    14.229129
_cell_length_c                    19.213246
_cell_angle_alpha                 90.324256
_cell_angle_beta                  91.668335
_cell_angle_gamma                 89.960124
_cell_volume                      4092.81763817

loop_
_atom_site_label
_atom_site_type_symbol
_atom_type_description
_atom_site_fract_x
_atom_site_fract_y
_atom_site_fract_z
_atom_type_partial_charge
C1    C     C_R   0.328258 0.499939 0.499825 0.969854
C2    C     C_R   0.430093 0.893580 0.464759 0.307118
C3    C     C_R   0.450863 0.204238 0.450482 0.365624
C4    C     C_R   0.548071 0.795858 0.550215 0.362585
C5    C     C_R   0.560660 0.204861 0.541121 0.363530
C6    C     C_R   0.439233 0.795095 0.458945 0.364600
C7    C     C_R   0.505739 0.053587 0.495739 -0.110831
C8    C     C_R   0.494421 0.946470 0.503914 -0.112686
C9    C     C_R   0.501033 0.499780 0.365568 0.924625
C10   C     C_R   0.500698 0.500205 0.634484 0.961082
C11   C     C_R   0.498038 0.584543 0.253724 -0.165881
C12   C     C_R   0.671931 0.500025 0.492757 0.961974
C13   C     C_R   0.505187 0.415229 0.746262 -0.155679
C14   C     C_R   0.496445 0.585609 0.746777 -0.150746
C15   C     C_R   0.506020 0.414108 0.253479 -0.162198
C16   C     C_R   0.497648 0.584837 0.181581 0.387935
C17   C     C_R   0.505109 0.414678 0.818393 0.389783
C18   C     C_R   0.496315 0.586036 0.818964 0.390527
C19   C     C_R   0.505749 0.413438 0.181289 0.389312
C20   C     C_R   0.501410 0.499046 0.145130 -0.147412
C21   C     C_R   0.500766 0.500318 0.854985 -0.148150
C22   C     C_R   0.501968 0.499426 0.289915 -0.185967
C23   C     C_R   0.232907 0.499243 0.496601 -0.270376
C24   C     C_R   0.501027 0.500443 0.710192 -0.187011
C25   C     C_R   0.500948 0.500119 0.930216 0.391082
C26   C     C_R   0.501006 0.498976 0.069902 0.390794
C27   C     C_R   0.096167 0.496640 0.427704 0.392074
C28   C     C_R   0.906161 0.411404 0.475631 0.391167
C29   C     C_R   0.909597 0.582498 0.484875 0.379903
C30   C     C_R   0.093144 0.492632 0.555153 0.418655
C31   C     C_R   0.188918 0.499049 0.431060 0.133785
C32   C     C_R   0.813337 0.413473 0.469119 0.135831
C33   C     C_R   0.816752 0.585643 0.478870 0.136867
C34   C     C_R   0.767944 0.499926 0.479615 -0.341100
C35   C     C_R   0.186047 0.495648 0.558732 0.070748
C36   C     C_R   0.049224 0.493598 0.489732 -0.084862
C37   C     C_R   0.952885 0.495493 0.485793 -0.092876
C38   C     C_R   0.459482 0.105918 0.443413 0.306159
C39   C     C_R   0.539866 0.894335 0.556760 0.306885
C40   C     C_R   0.570015 0.106445 0.534996 0.306119
Cl1   Cl    Cl    0.495764 0.694280 0.138954 -0.401838
Cl2   Cl    Cl    0.555293 0.942294 0.641577 -0.342007
Cl3   Cl    Cl    0.677677 0.059448 0.553341 -0.333498
Cl4   Cl    Cl    0.322336 0.940545 0.446732 -0.330944
Cl5   Cl    Cl    0.378012 0.264551 0.392874 -0.418976
Cl6   Cl    Cl    0.617916 0.735558 0.610176 -0.415050
Cl7   Cl    Cl    0.631374 0.266314 0.600263 -0.412672
Cl8   Cl    Cl    0.367194 0.733472 0.401055 -0.418784
Cl9   Cl    Cl    0.506897 0.305073 0.860806 -0.397362
Cl10  Cl    Cl    0.493955 0.695503 0.862343 -0.391160
Cl11  Cl    Cl    0.507246 0.303829 0.138075 -0.394510
Cl12  Cl    Cl    0.038018 0.498430 0.346119 -0.421500
Cl13  Cl    Cl    0.965248 0.303709 0.470729 -0.385753
Cl14  Cl    Cl    0.973262 0.687485 0.490897 -0.394077
Cl15  Cl    Cl    0.031135 0.488423 0.632040 -0.403419
Cl16  Cl    Cl    0.443487 0.058823 0.358415 -0.345480
H1    H     H_    0.495305 0.651045 0.281309 0.231692
H2    H     H_    0.508009 0.348807 0.718587 0.232874
H3    H     H_    0.493002 0.651969 0.719491 0.235056
H4    H     H_    0.508909 0.347804 0.280887 0.233490
I1    I     I_    0.261537 0.501607 0.336963 0.014452
I2    I     I_    0.748693 0.288040 0.429914 -0.012009
I3    I     I_    0.758145 0.720765 0.456397 0.002841
I4    I     I_    0.255229 0.494978 0.657615 -0.104994
N1    N     N_R   0.568650 0.457895 0.035746 -0.071467
N2    N     N_R   0.433282 0.541169 0.964373 -0.068400
N3    N     N_R   0.568601 0.458433 0.966721 -0.065949
N4    N     N_R   0.433334 0.540639 0.033402 -0.064322
N5    N     N_R   0.500000 0.252470 0.500000 -0.217961
N6    N     N_R   0.500000 0.747530 0.500000 -0.218421
O1    O     O_R   0.369060 0.579480 0.500010 -0.570656
O2    O     O_R   0.630940 0.420520 0.499990 -0.572370
O3    O     O_R   0.630940 0.579480 0.499990 -0.576102
O4    O     O_R   0.369060 0.420520 0.500010 -0.574382
O5    O     O_R   0.499990 0.579500 0.398140 -0.598846
O6    O     O_R   0.500010 0.420500 0.601860 -0.590765
O7    O     O_R   0.500010 0.579500 0.601860 -0.588264
O8    O     O_R   0.499990 0.420500 0.398140 -0.596793
Zn1   Zn    Zn3+2 0.500000 0.606140 0.500000 1.082666
Zn2   Zn    Zn3+2 0.500000 0.393860 0.500000 1.082818

loop_
_geom_bond_atom_site_label_1
_geom_bond_atom_site_label_2
_ccdc_geom_bond_type
N2    N4    A    
C18   C21   A    
C15   H4    S    
C14   C18   A    
C19   C20   A    
C25   N3    A    
O1    Zn1   S    
C7    C8    S    
C15   C22   A    
C4    Cl6   S    
C15   C19   A    
C14   H3    S    
C5    Cl7   S    
C1    O1    A    
C6    Cl8   S    
C30   C35   A    
C1    O4    A    
C36   C37   S    
C3    N5    A    
O8    Zn2   S    
C9    C22   S    
C29   Cl14  S    
C29   C33   A    
C14   C24   A    
C31   I1    S    
C5    N5    A    
C10   O6    A    
C40   Cl3   S    
C3    C38   A    
C2    Cl4   S    
N1    N3    A    
C7    C40   A    
C35   I4    S    
C8    C39   A    
C33   I3    S    
C12   O2    A    
O4    Zn2   S    
C12   O3    A    
C2    C6    A    
C4    N6    A    
C10   O7    A    
C39   Cl2   S    
O7    Zn1   S    
C27   C31   A    
C28   C32   A    
C17   Cl9   S    
C13   H2    S    
C10   C24   S    
C3    Cl5   S    
C17   C21   A    
C13   C24   A    
C23   C31   A    
C11   C16   A    
C4    C39   A    
C16   C20   A    
C33   C34   A    
O3    Zn1   S    
C1    C23   S    
C23   C35   A    
C12   C34   S    
C27   Cl12  S    
C18   Cl10  S    
C6    N6    A    
C21   C25   S    
N6    Zn1   S    
C26   N1    A    
C2    C8    A    
C25   N2    A    
O6    Zn2   S    
C28   Cl13  S    
C30   C36   A    
C27   C36   A    
C30   Cl15  S    
C11   C22   A    
C13   C17   A    
C26   N4    A    
C32   I2    S    
O2    Zn2   S    
C20   C26   S    
C28   C37   A    
C7    C38   A    
C9    O8    A    
C19   Cl11  S    
C38   Cl16  S    
C5    C40   A    
C29   C37   A    
N5    Zn2   S    
C9    O5    A    
C11   H1    S    
O5    Zn1   S    
C16   Cl1   S    
C32   C34   A    
