data_mof_unit_31258.cif
_audit_creation_date              2012-12-10T18:23:19-0500
_audit_creation_method            fapswitch 2.2
_symmetry_space_group_name_H-M    P1
_symmetry_Int_Tables_number       1
_space_group_crystal_system       triclinic
_cell_length_a                    27.820046
_cell_length_b                    10.615053
_cell_length_c                    9.485866
_cell_angle_alpha                 89.023028
_cell_angle_beta                  89.795737
_cell_angle_gamma                 89.912945
_cell_volume                      2800.85506135

loop_
_atom_site_label
_atom_site_type_symbol
_atom_type_description
_atom_site_fract_x
_atom_site_fract_y
_atom_site_fract_z
_atom_type_partial_charge
C1    C     C_R   0.500188 0.259805 0.500698 0.801395
C2    C     C_R   0.499812 0.740195 0.499302 0.801394
C3    C     C_R   0.101842 0.492843 0.529695 -0.123025
C4    C     C_R   0.898158 0.507159 0.470303 -0.123025
C5    C     C_R   0.127491 0.379729 0.502374 -0.030726
C6    C     C_R   0.872509 0.620272 0.497624 -0.030726
C7    C     C_R   0.101345 0.267520 0.477345 0.177687
C8    C     C_R   0.898655 0.732481 0.522654 0.177688
C9    C     C_R   0.127222 0.602826 0.569773 -0.028917
C10   C     C_R   0.872778 0.397175 0.430225 -0.028917
C11   C     C_R   0.354293 0.499000 0.504033 -0.088350
C12   C     C_R   0.645707 0.501000 0.495967 -0.088350
C13   C     C_R   0.974792 0.391485 0.456664 0.018413
C14   C     C_R   0.025208 0.608516 0.543335 0.018413
C15   C     C_R   0.974532 0.613745 0.521778 0.018219
C16   C     C_R   0.025468 0.386256 0.478221 0.018219
C17   C     C_R   0.949232 0.504022 0.483315 0.069968
C18   C     C_R   0.050768 0.495980 0.516684 0.069968
C19   C     C_R   0.949178 0.288456 0.403169 -0.207057
C20   C     C_R   0.050822 0.711545 0.596829 -0.207057
C21   C     C_R   0.899208 0.288389 0.391526 0.176189
C22   C     C_R   0.100792 0.711612 0.608472 0.176189
C23   C     C_R   0.407526 0.500875 0.500283 0.806845
C24   C     C_R   0.592473 0.499125 0.499717 0.806846
C25   C     C_R   0.051345 0.272534 0.468376 -0.204911
C26   C     C_R   0.948655 0.727467 0.531623 -0.204910
C27   C     C_3   0.462878 0.041067 0.579088 -0.206154
C28   C     C_3   0.537122 0.958932 0.420912 -0.206155
C29   C     C_3   0.504358 0.955472 0.633324 -0.181334
C30   C     C_3   0.495642 0.044528 0.366676 -0.181332
C31   C     C_3   0.499789 0.876986 0.498921 -0.027503
C32   C     C_3   0.500211 0.123014 0.501079 -0.027503
C33   C     C_3   0.458864 0.960949 0.445691 0.213457
C34   C     C_3   0.541136 0.039051 0.554309 0.213455
C35   C     C_3   0.507187 0.611382 0.046276 0.250260
C36   C     C_3   0.492813 0.388618 0.953724 0.250260
C37   C     C_3   0.466719 0.571908 0.949298 0.247689
C38   C     C_3   0.533280 0.428091 0.050702 0.247689
C39   C     C_3   0.540846 0.539615 0.947380 -0.119828
C40   C     C_3   0.459154 0.460385 0.052620 -0.119829
C41   C     C_R   0.178323 0.383502 0.502876 0.540142
C42   C     C_R   0.821677 0.616499 0.497123 0.540142
C43   C     C_R   0.178078 0.598701 0.570777 0.538575
C44   C     C_R   0.821922 0.401300 0.429221 0.538574
C45   C     C_R   0.275240 0.542703 0.405947 -0.148056
C46   C     C_R   0.724760 0.457299 0.594052 -0.148057
C47   C     C_R   0.325360 0.546575 0.392170 0.137898
C48   C     C_R   0.674640 0.453426 0.607830 0.137898
C49   C     C_R   0.331820 0.450394 0.626552 -0.281775
C50   C     C_R   0.668180 0.549605 0.373447 -0.281776
C51   C     C_R   0.281788 0.447757 0.639978 0.216567
C52   C     C_R   0.718212 0.552243 0.360021 0.216567
C53   C     C_R   0.253401 0.493730 0.527898 0.334960
C54   C     C_R   0.746599 0.506271 0.472101 0.334960
Cu1   Cu    Cu3+1 0.500010 0.499990 0.643150 0.935492
Cu2   Cu    Cu3+1 0.499990 0.500010 0.356850 0.935492
N1    N     N_R   0.201854 0.491499 0.535482 -0.463631
N2    N     N_R   0.798146 0.508502 0.464517 -0.463631
N3    N     N_3   0.500040 0.499970 0.858290 -0.177599
N4    N     N_3   0.499960 0.500030 0.141710 -0.177599
O1    O     O_R   0.500020 0.316850 0.620870 -0.577169
O2    O     O_R   0.499980 0.683150 0.379130 -0.577168
O3    O     O_R   0.500000 0.316860 0.379090 -0.584952
O4    O     O_R   0.500000 0.683140 0.620910 -0.584953
O5    O     O_R   0.430270 0.500020 0.620880 -0.583022
O6    O     O_R   0.569730 0.499980 0.379120 -0.583023
O7    O     O_R   0.430250 0.500030 0.379090 -0.571642
O8    O     O_R   0.569750 0.499970 0.620910 -0.571642
O9    O     O_2   0.204630 0.281664 0.468835 -0.542760
O10   O     O_2   0.795369 0.718338 0.531162 -0.542760
O11   O     O_2   0.795790 0.299437 0.395451 -0.544504
O12   O     O_2   0.204209 0.700564 0.604548 -0.544504
H1    H     H_    0.353341 0.413553 0.713013 0.167135
H2    H     H_    0.646659 0.586445 0.286986 0.167135
H3    H     H_    0.432411 0.076941 0.642853 0.142026
H4    H     H_    0.567589 0.923059 0.357146 0.142026
C55   C     C_3   0.411749 0.915906 0.384031 -0.880103
H5    H     H_    0.387986 0.997968 0.362364 0.244980
H6    H     H_    0.418870 0.866625 0.284031 0.224065
H7    H     H_    0.393722 0.850669 0.460015 0.233842
C56   C     C_3   0.588250 0.084094 0.615969 -0.880096
H8    H     H_    0.612013 0.002031 0.637642 0.244980
H9    H     H_    0.606279 0.149327 0.539982 0.233842
H10   H     H_    0.581130 0.133380 0.715966 0.224064
C57   C     C_3   0.426889 0.657567 0.893750 -0.815650
H11   H     H_    0.409708 0.706155 0.983576 0.207060
H12   H     H_    0.441776 0.729674 0.820050 0.246938
H13   H     H_    0.399051 0.601230 0.840532 0.240673
C58   C     C_3   0.573111 0.342434 0.106250 -0.815652
H14   H     H_    0.590292 0.293845 0.016424 0.207061
H15   H     H_    0.600948 0.398771 0.159467 0.240673
H16   H     H_    0.558224 0.270327 0.179951 0.246939
C59   C     C_3   0.517320 0.745140 0.092689 -0.824580
H17   H     H_    0.525192 0.805086 0.998440 0.200766
H18   H     H_    0.485336 0.784604 0.146090 0.242838
H19   H     H_    0.549122 0.746064 0.162898 0.237052
C60   C     C_3   0.482680 0.254860 0.907311 -0.824580
H20   H     H_    0.474808 0.194914 0.001560 0.200767
H21   H     H_    0.450878 0.253936 0.837102 0.237052
H22   H     H_    0.514664 0.215396 0.853910 0.242838
H23   H     H_    0.574424 0.577774 0.900519 0.128392
H24   H     H_    0.425575 0.422226 0.099481 0.128392
C61   C     C_3   0.260211 0.396337 0.774884 -0.811207
H25   H     H_    0.273853 0.450776 0.865298 0.223628
H26   H     H_    0.220417 0.401945 0.776309 0.235155
H27   H     H_    0.270770 0.296050 0.789369 0.235072
C62   C     C_3   0.739789 0.603662 0.225114 -0.811206
H28   H     H_    0.726147 0.549221 0.134701 0.223627
H29   H     H_    0.729229 0.703948 0.210627 0.235071
H30   H     H_    0.779583 0.598053 0.223688 0.235155
C63   C     C_3   0.124730 0.139397 0.463443 -0.766306
H31   H     H_    0.098001 0.062227 0.455454 0.195932
H32   H     H_    0.146929 0.136805 0.366094 0.265299
H33   H     H_    0.146936 0.117923 0.557886 0.253970
C64   C     C_3   0.875270 0.860604 0.536557 -0.766306
H34   H     H_    0.901999 0.937774 0.544547 0.195932
H35   H     H_    0.853064 0.882079 0.442114 0.253969
H36   H     H_    0.853071 0.863195 0.633906 0.265298
C65   C     C_3   0.653718 0.396512 0.740945 -0.828279
H37   H     H_    0.681648 0.350097 0.807270 0.223159
H38   H     H_    0.637039 0.471405 0.804360 0.236554
H39   H     H_    0.626632 0.324228 0.715188 0.237671
C66   C     C_3   0.346282 0.603490 0.259056 -0.828279
H40   H     H_    0.318353 0.649906 0.192731 0.223159
H41   H     H_    0.373368 0.675775 0.284813 0.237671
H42   H     H_    0.362962 0.528598 0.195640 0.236554
H43   H     H_    0.747422 0.422041 0.678690 0.143222
H44   H     H_    0.252579 0.577962 0.321309 0.143223
C67   C     C_3   0.876153 0.170444 0.335044 -0.766962
H45   H     H_    0.903004 0.098100 0.304847 0.196034
H46   H     H_    0.852863 0.126246 0.417122 0.262631
H47   H     H_    0.855108 0.193737 0.238823 0.257928
C68   C     C_3   0.123847 0.829557 0.664955 -0.766962
H48   H     H_    0.096996 0.901902 0.695151 0.196034
H49   H     H_    0.144892 0.806264 0.761176 0.257928
H50   H     H_    0.147137 0.873756 0.582876 0.262631
H51   H     H_    0.967562 0.206438 0.365176 0.138670
H52   H     H_    0.032438 0.793564 0.634823 0.138669
H53   H     H_    0.033166 0.183881 0.457251 0.135977
H54   H     H_    0.966834 0.816120 0.542748 0.135977
H55   H     H_    0.508323 0.917528 0.742483 0.145576
H56   H     H_    0.491677 0.082472 0.257516 0.145576

loop_
_geom_bond_atom_site_label_1
_geom_bond_atom_site_label_2
_ccdc_geom_bond_type
Cu1   Cu2   S    
C59   H17   S    
C40   N4    S    
Cu1   N3    S    
C27   C29   S    
C8    C26   A    
C14   C18   A    
C11   C47   A    
C63   H31   S    
C39   N3    S    
C12   C48   A    
C36   N3    S    
C42   N2    A    
C56   H8    S    
C66   H40   S    
C63   H32   S    
C55   H5    S    
C27   C33   S    
C38   C58   S    
C43   O12   S    
C44   O11   S    
C11   C49   A    
C37   C57   S    
C25   H53   S    
C37   C40   S    
C26   H54   S    
C50   H2    S    
C38   C39   S    
C9    C22   A    
C65   H39   S    
C45   H44   S    
C23   O7    A    
C64   H34   S    
C60   H20   S    
C42   O10   S    
C3    C18   A    
C20   H52   S    
C11   C23   S    
C30   H56   S    
C8    C64   S    
C60   H21   S    
C52   C62   S    
C44   N2    A    
C49   C51   A    
C68   H50   S    
C50   C52   A    
C62   H28   S    
C31   C33   S    
C36   C60   S    
C34   C56   S    
C58   H15   S    
C24   O6    A    
C67   H47   S    
C52   C54   A    
C45   C47   A    
C45   C53   A    
C59   H18   S    
C62   H29   S    
C27   H3    S    
C1    O3    A    
C56   H9    S    
C2    O4    A    
C39   H23   S    
C48   C65   S    
C35   C59   S    
C10   C21   A    
C46   C48   A    
C9    C43   A    
C13   C19   A    
C57   H12   S    
C10   C44   A    
C14   C20   A    
C46   H43   S    
C36   C40   S    
C55   H6    S    
C4    C6    A    
C5    C7    A    
C53   N1    S    
C15   C26   A    
C6    C8    A    
C22   C68   S    
C64   H35   S    
C57   H11   S    
C24   O8    A    
C40   H24   S    
C29   C34   S    
C1    C32   S    
Cu2   N4    S    
C35   N4    S    
C51   C53   A    
C32   C34   S    
C61   H27   S    
C35   C39   S    
C19   C21   A    
C3    C9    A    
C47   C66   S    
C19   H51   S    
C64   H36   S    
C29   H55   S    
Cu1   O4    S    
C46   C54   A    
Cu2   O3    S    
C61   H26   S    
C58   H16   S    
C21   C67   S    
C37   N3    S    
C65   H38   S    
C38   N4    S    
C4    C17   A    
C20   C22   A    
C59   H19   S    
C68   H48   S    
C62   H30   S    
Cu2   O2    S    
C4    C10   A    
C28   H4    S    
C3    C5    A    
C56   H10   S    
C41   O9    S    
C67   H45   S    
C54   N2    S    
C57   H13   S    
C16   C25   A    
C15   C17   A    
C5    C41   A    
C60   H22   S    
C30   C33   S    
C35   C37   S    
C27   C32   S    
Cu1   O5    S    
Cu1   O8    S    
C28   C31   S    
C66   H42   S    
C1    O1    A    
C12   C50   A    
C65   H37   S    
Cu2   O7    S    
C12   C24   S    
C7    C25   A    
C13   C17   A    
C23   O5    A    
C36   C38   S    
C41   N1    A    
C29   C31   S    
C30   C32   S    
C55   H7    S    
C33   C55   S    
Cu2   O6    S    
Cu1   O1    S    
C28   C30   S    
C7    C63   S    
C63   H33   S    
C49   H1    S    
C66   H41   S    
C43   N1    A    
C28   C34   S    
C16   C18   A    
C6    C42   A    
C13   C16   A    
C61   H25   S    
C68   H49   S    
C14   C15   A    
C2    C31   S    
C58   H14   S    
C51   C61   S    
C2    O2    A    
C67   H46   S    
