data_mof_unit_59760.cif
_audit_creation_date              2012-12-11T16:51:05-0500
_audit_creation_method            fapswitch 2.2
_symmetry_space_group_name_H-M    P1
_symmetry_Int_Tables_number       1
_space_group_crystal_system       triclinic
_cell_length_a                    6.924476
_cell_length_b                    28.821965
_cell_length_c                    32.157716
_cell_angle_alpha                 100.825456
_cell_angle_beta                  89.532291
_cell_angle_gamma                 90.454406
_cell_volume                      6303.38258973

loop_
_atom_site_label
_atom_site_type_symbol
_atom_type_description
_atom_site_fract_x
_atom_site_fract_y
_atom_site_fract_z
_atom_type_partial_charge
O1    O     O_R   0.494350 0.453170 0.452520 -0.527358
O2    O     O_R   0.820980 0.455850 0.538220 -0.543672
O3    O     O_R   0.994300 0.546830 0.547480 -0.544060
C1    C     C_R   0.651377 0.445760 0.551733 0.702992
O4    O     O_R   0.823860 0.447590 0.452270 -0.529215
O5    O     O_R   0.997200 0.538510 0.460920 -0.527197
C2    C     C_R   0.655696 0.435548 0.436106 0.757546
O6    O     O_R   0.491440 0.461490 0.539080 -0.543372
O7    O     O_3   0.661790 0.529840 0.502940 -0.368149
V1    V     V_3+5 0.935470 0.494460 0.499450 1.468105
O8    O     O_R   0.327090 0.544150 0.461780 -0.527704
C3    C     C_R   0.159541 0.553578 0.447660 0.772336
O9    O     O_R   0.324210 0.552410 0.547730 -0.547191
C4    C     C_R   0.155045 0.565303 0.563396 0.678163
V2    V     V_3+5 0.435840 0.505540 0.500550 1.464206
O10   O     O_3   0.159650 0.470160 0.497060 -0.366203
C5    C     C_R   0.226421 0.877363 0.883444 -0.142869
C6    C     C_R   0.237890 0.841573 0.847486 -0.129303
H1    H     H_    0.378594 0.827759 0.836999 0.103051
C7    C     C_R   0.070062 0.823400 0.825745 0.094157
C8    C     C_R   0.890146 0.841804 0.841238 -0.130187
C9    C     C_R   0.878561 0.877511 0.877338 -0.141388
H2    H     H_    0.737753 0.891046 0.888094 0.119616
C10   C     C_R   0.046672 0.895914 0.898841 -0.052166
C11   C     C_R   0.943658 0.749267 0.779090 -0.137856
H3    H     H_    0.826406 0.747711 0.801273 0.121109
C12   C     C_R   0.956063 0.713829 0.742843 -0.138534
H4    H     H_    0.847928 0.686035 0.738196 0.119988
C13   C     C_R   0.108094 0.713701 0.713491 0.078989
C14   C     C_R   0.247444 0.750020 0.721462 -0.143111
H5    H     H_    0.364673 0.751584 0.699274 0.114204
C15   C     C_R   0.235035 0.785458 0.757705 -0.143953
H6    H     H_    0.343143 0.813259 0.762342 0.112835
C16   C     C_R   0.082980 0.785595 0.787053 0.079425
C17   C     C_R   0.300713 0.657560 0.659211 -0.126361
H7    H     H_    0.432827 0.670077 0.675463 0.101341
C18   C     C_R   0.312208 0.622003 0.622998 -0.148991
H8    H     H_    0.452976 0.608475 0.612205 0.117837
C19   C     C_R   0.144070 0.603756 0.601415 -0.050419
C20   C     C_R   0.964357 0.622247 0.616902 -0.147253
C21   C     C_R   0.952977 0.657884 0.652979 -0.131570
H9    H     H_    0.812312 0.671682 0.663518 0.100080
C22   C     C_R   0.120859 0.675956 0.674753 0.095400
C23   C     C_R   0.130805 0.658390 0.283324 0.589437
N1    N     N_R   0.109730 0.677017 0.325683 -0.553713
C24   C     C_R   0.077814 0.724503 0.338952 0.591655
C25   C     C_R   0.065251 0.754882 0.309390 -0.068049
C26   C     C_R   0.091299 0.736461 0.266114 -0.012209
C27   C     C_R   0.125356 0.687756 0.252907 -0.027455
C28   C     C_R   0.028920 0.803233 0.322318 -0.163854
C29   C     C_R   0.017665 0.833491 0.293062 0.210233
C30   C     C_R   0.045412 0.815513 0.249059 -0.104937
C31   C     C_R   0.083607 0.766662 0.235978 -0.046155
C32   C     C_R   0.114149 0.747667 0.192710 -0.020949
C33   C     C_R   0.148875 0.699062 0.179991 -0.128841
C34   C     C_R   0.153270 0.669458 0.209658 -0.131569
C35   C     C_R   0.036688 0.843868 0.217424 0.672983
N2    N     N_R   0.071995 0.824793 0.175683 -0.556062
C36   C     C_R   0.109552 0.777700 0.163020 0.599721
O11   O     O_2   0.155319 0.611471 0.270493 -0.503762
O12   O     O_2   0.060961 0.742554 0.380669 -0.518819
O13   O     O_2   0.992323 0.889980 0.227776 -0.461155
O14   O     O_2   0.142844 0.759972 0.121706 -0.504086
H10   H     H_    0.172251 0.683627 0.146962 0.178185
C37   C     C_R   0.907646 0.850161 0.116249 -0.105029
H11   H     H_    0.796040 0.824174 0.118431 0.169405
C38   C     C_R   0.894153 0.878513 0.085436 0.134200
C39   C     C_R   0.039582 0.912708 0.082361 -0.138196
C40   C     C_R   0.197650 0.916296 0.110154 -0.212912
H12   H     H_    0.311764 0.941794 0.108406 0.168232
C41   C     C_R   0.210601 0.887611 0.140696 0.225809
C42   C     C_R   0.063644 0.854570 0.144210 0.291009
C43   C     C_R   0.973849 0.643620 0.385529 -0.062548
C44   C     C_R   0.988295 0.613835 0.415094 -0.201723
H13   H     H_    0.870440 0.613085 0.437317 0.153659
C45   C     C_R   0.151799 0.585303 0.416051 -0.098772
C46   C     C_R   0.301921 0.587353 0.386167 0.125770
C47   C     C_R   0.288198 0.618276 0.357473 -0.103448
H14   H     H_    0.404897 0.619863 0.335151 0.157675
C48   C     C_R   0.124213 0.646387 0.356547 0.324365
C49   C     C_R   0.679535 0.218842 0.834523 0.595098
N3    N     N_R   0.577220 0.177212 0.825667 -0.556333
C50   C     C_R   0.482365 0.164472 0.787875 0.571994
C51   C     C_R   0.487683 0.193998 0.757525 -0.016253
C52   C     C_R   0.592133 0.236876 0.766244 -0.010297
C53   C     C_R   0.689059 0.249338 0.804977 -0.066489
C54   C     C_R   0.391647 0.181522 0.718691 -0.142109
C55   C     C_R   0.399719 0.211004 0.688887 -0.136635
C56   C     C_R   0.503185 0.253877 0.697198 -0.011632
C57   C     C_R   0.599518 0.267212 0.736174 -0.045065
C58   C     C_R   0.702508 0.310621 0.745081 -0.099975
C59   C     C_R   0.801958 0.322358 0.784295 0.210998
C60   C     C_R   0.793496 0.291869 0.813426 -0.165745
C61   C     C_R   0.513030 0.283658 0.667265 0.597526
N4    N     N_R   0.610616 0.325768 0.676177 -0.559536
C62   C     C_R   0.700425 0.340133 0.714322 0.667552
O15   O     O_2   0.770151 0.231052 0.872014 -0.519218
O16   O     O_2   0.384628 0.123129 0.779427 -0.525010
H15   H     H_    0.310161 0.148833 0.711109 0.172588
H16   H     H_    0.324155 0.200057 0.659269 0.172738
O17   O     O_2   0.425033 0.270728 0.629537 -0.518186
O18   O     O_2   0.783515 0.383180 0.722365 -0.463960
H17   H     H_    0.870594 0.301668 0.842980 0.189906
C63   C     C_R   0.467896 0.386990 0.641034 0.206663
C64   C     C_R   0.477505 0.415498 0.610214 -0.220899
H18   H     H_    0.359972 0.439464 0.607987 0.148292
C65   C     C_R   0.639589 0.414238 0.583365 -0.087122
C66   C     C_R   0.791355 0.383360 0.587718 -0.180789
H19   H     H_    0.918247 0.381549 0.567580 0.142819
C67   C     C_R   0.779884 0.354043 0.617838 -0.101013
H20   H     H_    0.897187 0.330154 0.620427 0.154209
C68   C     C_R   0.618780 0.355682 0.644796 0.334535
C69   C     C_R   0.736940 0.126485 0.869262 -0.085108
H21   H     H_    0.875299 0.133634 0.855761 0.128984
C70   C     C_R   0.728026 0.096803 0.899134 -0.198795
H22   H     H_    0.860713 0.081743 0.908061 0.128731
C71   C     C_R   0.549872 0.086453 0.916931 -0.056059
C72   C     C_R   0.381233 0.106782 0.904116 -0.199005
H23   H     H_    0.241552 0.099771 0.917087 0.131022
C73   C     C_R   0.390531 0.136539 0.874363 -0.081363
H24   H     H_    0.259050 0.151931 0.865191 0.132464
C74   C     C_R   0.568269 0.146594 0.856574 0.371186
C75   C     C_R   0.696616 0.101745 0.131123 -0.160042
H25   H     H_    0.802700 0.073798 0.125452 0.146750
C76   C     C_R   0.708218 0.135893 0.168332 0.178317
C77   C     C_R   0.571162 0.172830 0.176489 0.043790
C78   C     C_R   0.419557 0.172729 0.147499 -0.141789
H26   H     H_    0.311917 0.200315 0.152801 0.123818
C79   C     C_R   0.405997 0.137573 0.111072 -0.138980
H27   H     H_    0.287805 0.138623 0.089420 0.128741
C80   C     C_R   0.546268 0.102170 0.102177 -0.089553
C81   C     C_R   0.417469 0.226235 0.238876 -0.122516
H28   H     H_    0.279614 0.209048 0.230776 0.140618
C82   C     C_R   0.427654 0.263140 0.274072 -0.131712
H29   H     H_    0.295423 0.273876 0.291190 0.111481
C83   C     C_R   0.604721 0.285992 0.286437 0.096901
C84   C     C_R   0.769699 0.271352 0.261516 -0.129718
C85   C     C_R   0.757626 0.235673 0.225523 -0.107511
C86   C     C_R   0.582916 0.211632 0.214422 0.100405
C87   C     C_R   0.761537 0.360155 0.327678 -0.144039
H30   H     H_    0.860428 0.360919 0.301633 0.136213
C88   C     C_R   0.778868 0.395781 0.363728 0.164277
C89   C     C_R   0.646379 0.397841 0.397711 -0.093097
C90   C     C_R   0.499957 0.363377 0.394538 -0.166030
H31   H     H_    0.396864 0.363947 0.420153 0.132506
C91   C     C_R   0.487439 0.327046 0.358998 -0.112476
C92   C     C_R   0.617649 0.324840 0.324779 0.054365
O19   O     O_R   0.699170 0.038480 0.960880 -0.542732
O20   O     O_R   0.366800 0.052460 0.047690 -0.541197
O21   O     O_R   0.193520 0.961530 0.039110 -0.533270
C93   C     C_R   0.535470 0.064989 0.063486 0.708564
O22   O     O_R   0.369630 0.044100 0.961740 -0.545803
O23   O     O_R   0.196370 0.953120 0.952550 -0.540959
C94   C     C_R   0.539157 0.054321 0.948233 0.694498
O24   O     O_R   0.696320 0.046890 0.047450 -0.540154
O25   O     O_3   0.528890 0.970170 0.997080 -0.352420
V3    V     V_3+5 0.255190 0.005530 0.000540 1.439512
O26   O     O_R   0.866460 0.947530 0.952310 -0.539721
C95   C     C_R   0.035642 0.934557 0.936706 0.697409
O27   O     O_R   0.863630 0.955880 0.038270 -0.523059
C96   C     C_R   0.031554 0.944934 0.051130 0.762297
V4    V     V_3+5 0.754830 0.994440 0.999470 1.463361
O28   O     O_3   0.031000 0.029830 0.002920 -0.374997
H32   H     H_    0.358980 0.890384 0.899258 0.126244
H33   H     H_    0.831766 0.609309 0.601059 0.119944
H34   H     H_    0.008431 0.817922 0.355599 0.190604
I1    I     I_    0.961586 0.905246 0.321157 -0.169085
H35   H     H_    0.179985 0.632197 0.198561 0.178783
I2    I     I_    0.655047 0.863860 0.043758 -0.333333
I3    I     I_    0.457580 0.894660 0.179975 -0.266265
H36   H     H_    0.844671 0.664448 0.385102 0.145113
I4    I     I_    0.545947 0.542222 0.378341 -0.323528
I5    I     I_    0.978316 0.383381 0.804109 -0.198221
I6    I     I_    0.227600 0.393819 0.682510 -0.278059
H37   H     H_    0.758059 0.829197 0.825021 0.099537
I7    I     I_    0.925663 0.125165 0.211852 -0.366434
H38   H     H_    0.909974 0.286971 0.269750 0.106418
H39   H     H_    0.886048 0.226794 0.206345 0.123366
I8    I     I_    0.004046 0.446120 0.362469 -0.321298
H40   H     H_    0.376763 0.300351 0.358900 0.122061

loop_
_geom_bond_atom_site_label_1
_geom_bond_atom_site_label_2
_ccdc_geom_bond_type
C23   C27   A    
C54   C55   A    
C77   C78   A    
O21   V3    S    
C62   O18   S    
C12   C13   A    
C70   C71   A    
C43   C44   A    
C32   C33   A    
C29   I1    S    
N4    C62   A    
C51   C54   A    
C1    O6    A    
C60   H17   S    
C72   C73   A    
C2    C89   S    
C49   N3    A    
C57   C58   A    
C10   C95   S    
C35   O13   S    
C46   C47   A    
C38   I2    S    
C81   C86   A    
C64   C65   A    
C13   C14   A    
C44   C45   A    
O25   V3    S    
C17   C18   A    
C87   C88   A    
V4    O28   S    
N4    C68   S    
O20   C93   A    
O5    C3    A    
C14   H5    S    
C47   C48   A    
C75   C76   A    
V2    O10   S    
C66   H19   S    
C6    H1    S    
C21   H9    S    
C56   C61   A    
C40   C41   A    
C72   H23   S    
C4    C19   S    
C67   H20   S    
O8    V2    S    
C69   C74   A    
C17   H7    S    
C61   O17   S    
C81   H28   S    
C8    H37   S    
C50   O16   S    
C28   H34   S    
C65   C66   A    
O1    V2    S    
C93   O24   A    
C43   H36   S    
C17   C22   A    
O7    V1    S    
V3    O28   S    
C49   C53   A    
C11   C16   A    
C7    C16   S    
C55   C56   A    
C58   C62   A    
O25   V4    S    
O9    C4    A    
C13   C22   S    
O23   V3    S    
C21   C22   A    
C40   H12   S    
O19   C94   A    
C87   C92   A    
C63   C64   A    
C73   C74   A    
C28   C29   A    
C25   C28   A    
C54   H15   S    
C32   C36   A    
O24   V4    S    
C26   C31   A    
C1    C65   S    
C77   C86   S    
C5    C10   A    
C44   H13   S    
C91   C92   A    
C24   O12   S    
C38   C39   A    
C25   C26   A    
C75   H25   S    
C51   C52   A    
C90   C91   A    
C85   C86   A    
C19   C20   A    
O4    C2    A    
C47   H14   S    
C39   C40   A    
C63   I6    S    
C37   C38   A    
C11   H3    S    
C52   C53   A    
C29   C30   A    
O27   V4    S    
O23   C95   A    
O2    C1    A    
C78   C79   A    
C37   C42   A    
C18   H8    S    
C5    H32   S    
C71   C94   S    
C50   C51   A    
C88   I8    S    
C39   C96   S    
C52   C57   A    
C33   H10   S    
C34   H35   S    
C33   C34   A    
C5    C6    A    
C73   H24   S    
C41   I3    S    
C91   H40   S    
C87   H30   S    
C20   H33   S    
C55   H16   S    
O3    C4    A    
C20   C21   A    
O22   C94   A    
C37   H11   S    
O6    V2    S    
C3    C45   S    
O9    V2    S    
O26   C95   A    
C9    C10   A    
C78   H26   S    
O2    V1    S    
C58   C59   A    
C30   C31   A    
C63   C68   A    
C69   H21   S    
C64   H18   S    
O21   C96   A    
C24   C25   A    
C26   C27   A    
C75   C80   A    
O1    C2    A    
C36   O14   S    
C23   N1    A    
C90   H31   S    
O5    V1    S    
C82   C83   A    
O8    C3    A    
C31   C32   A    
C82   H29   S    
C59   I5    S    
C11   C12   A    
C27   C34   A    
C84   C85   A    
C79   H27   S    
O19   V4    S    
C15   H6    S    
C53   C60   A    
C89   C90   A    
N2    C36   A    
C41   C42   A    
C18   C19   A    
O3    V1    S    
V1    O10   S    
C71   C72   A    
O27   C96   A    
C14   C15   A    
C45   C46   A    
N2    C42   S    
C35   N2    A    
C76   C77   A    
C49   O15   S    
C23   O11   S    
C46   I4    S    
C59   C60   A    
C43   C48   A    
C66   C67   A    
C80   C93   S    
O22   V3    S    
N1    C48   S    
C6    C7    A    
O7    V2    S    
C61   N4    A    
C67   C68   A    
C83   C92   S    
C30   C35   A    
O26   V4    S    
N1    C24   A    
O4    V1    S    
C84   H38   S    
C7    C8    A    
C81   C82   A    
N3    C50   A    
C12   H4    S    
C88   C89   A    
C9    H2    S    
C83   C84   A    
C69   C70   A    
C56   C57   A    
C8    C9    A    
C76   I7    S    
O20   V3    S    
N3    C74   S    
C70   H22   S    
C15   C16   A    
C79   C80   A    
C85   H39   S    
