data_mof_unit_15829.cif
_audit_creation_date              2012-12-11T14:06:35-0500
_audit_creation_method            fapswitch 2.2
_symmetry_space_group_name_H-M    P1
_symmetry_Int_Tables_number       1
_space_group_crystal_system       triclinic
_cell_length_a                    6.932008
_cell_length_b                    17.314868
_cell_length_c                    24.096399
_cell_angle_alpha                 104.505457
_cell_angle_beta                  90.599575
_cell_angle_gamma                 89.926178
_cell_volume                      2799.86497021

loop_
_atom_site_label
_atom_site_type_symbol
_atom_type_description
_atom_site_fract_x
_atom_site_fract_y
_atom_site_fract_z
_atom_type_partial_charge
O1    O     O_R   0.494290 0.391990 0.999150 -0.538821
O2    O     O_R   0.827170 0.534410 0.082350 -0.539022
O3    O     O_R   0.994360 0.608010 0.000850 -0.517736
C1    C     C_R   0.659042 0.550090 0.106105 0.751340
O4    O     O_R   0.824210 0.388010 0.004470 -0.549976
O5    O     O_R   0.991370 0.460560 0.922410 -0.542996
C2    C     C_R   0.654545 0.354882 0.001474 0.759784
O6    O     O_R   0.497270 0.539440 0.077590 -0.538226
O7    O     O_3   0.659770 0.523970 0.973170 -0.359391
V1    V     V_3+5 0.935840 0.495550 0.004980 1.450965
O8    O     O_R   0.320910 0.465590 0.917650 -0.546227
C3    C     C_R   0.151169 0.450192 0.893929 0.696717
O9    O     O_R   0.323870 0.611990 0.995530 -0.532605
C4    C     C_R   0.153606 0.645446 0.999714 0.815083
V2    V     V_3+5 0.435470 0.504450 0.995020 1.457251
O10   O     O_3   0.161670 0.476030 0.026830 -0.377205
C5    C     C_2   0.136495 0.729721 0.997540 -0.362029
H1    H     H_    0.261869 0.755777 0.982462 0.147387
C6    C     C_2   0.972547 0.773817 0.010584 -0.022059
C7    C     C_R   0.189850 0.258569 0.623075 0.575993
N1    N     N_R   0.099066 0.328913 0.648432 -0.558855
C8    C     C_R   0.993262 0.369251 0.616221 0.579719
C9    C     C_R   0.974499 0.338896 0.556438 -0.026096
C10   C     C_R   0.066894 0.266791 0.529945 -0.017137
C11   C     C_R   0.176108 0.226268 0.563384 -0.024227
C12   C     C_R   0.865916 0.378872 0.522608 -0.147537
C13   C     C_R   0.849202 0.347610 0.463350 -0.130085
C14   C     C_R   0.940672 0.275605 0.436434 -0.027557
C15   C     C_R   0.049925 0.235100 0.469877 -0.018418
C16   C     C_R   0.142307 0.162988 0.443392 -0.024452
C17   C     C_R   0.251030 0.123050 0.477213 -0.148001
C18   C     C_R   0.267725 0.154304 0.536465 -0.140371
C19   C     C_R   0.926704 0.243220 0.376748 0.586454
N2    N     N_R   0.017353 0.172832 0.351416 -0.560180
C20   C     C_R   0.123345 0.132566 0.383630 0.578053
O11   O     O_2   0.291203 0.219354 0.655550 -0.516524
O12   O     O_2   0.907554 0.438879 0.641832 -0.515092
H2    H     H_    0.793360 0.434457 0.541777 0.162952
H3    H     H_    0.764421 0.380123 0.438732 0.180741
O13   O     O_2   0.825237 0.282378 0.344261 -0.507134
O14   O     O_2   0.209026 0.062922 0.358036 -0.515486
H4    H     H_    0.323657 0.067482 0.458043 0.163612
H5    H     H_    0.352557 0.121802 0.561078 0.177032
C21   C     C_R   0.169704 0.132874 0.256211 -0.075805
H6    H     H_    0.309161 0.150101 0.276104 0.129624
C22   C     C_R   0.157004 0.102866 0.196714 -0.191329
H7    H     H_    0.288189 0.097485 0.172040 0.131520
C23   C     C_R   0.977361 0.080814 0.169500 -0.057627
C24   C     C_R   0.810919 0.089317 0.203540 -0.186665
H8    H     H_    0.670340 0.072915 0.184199 0.133872
C25   C     C_R   0.824061 0.119144 0.263140 -0.073229
H9    H     H_    0.694433 0.124900 0.288538 0.133101
C26   C     C_R   0.003522 0.141320 0.289958 0.371051
C27   C     C_R   0.946218 0.368547 0.743588 -0.082706
H10   H     H_    0.806799 0.351513 0.723606 0.128489
C28   C     C_R   0.958741 0.398092 0.803133 -0.194901
H11   H     H_    0.827457 0.403371 0.827755 0.130125
C29   C     C_R   0.138355 0.419811 0.830461 -0.055768
C30   C     C_R   0.304928 0.411495 0.796486 -0.193664
H12   H     H_    0.445491 0.427669 0.815909 0.132137
C31   C     C_R   0.291966 0.382143 0.736848 -0.073253
H13   H     H_    0.421725 0.376480 0.711514 0.133197
C32   C     C_R   0.112561 0.360247 0.709913 0.372222
C33   C     C_R   0.516345 0.880618 0.613043 0.552760
N3    N     N_R   0.520435 0.829972 0.648794 -0.551882
C34   C     C_R   0.544439 0.749227 0.626851 0.621217
C35   C     C_R   0.558485 0.716589 0.567175 -0.066410
C36   C     C_R   0.556406 0.768072 0.530274 -0.024667
C37   C     C_R   0.537132 0.850855 0.553307 -0.034629
C38   C     C_R   0.575198 0.633905 0.543593 -0.135492
C39   C     C_R   0.587839 0.602845 0.484252 -0.126734
C40   C     C_R   0.587841 0.653775 0.447010 -0.030626
C41   C     C_R   0.574092 0.736725 0.470208 -0.010689
C42   C     C_R   0.577278 0.788390 0.433451 -0.028185
C43   C     C_R   0.559296 0.871033 0.456990 -0.130989
C44   C     C_R   0.538122 0.901808 0.516089 -0.140278
C45   C     C_R   0.601014 0.623871 0.387046 0.648949
N4    N     N_R   0.610895 0.674971 0.351751 -0.553090
C46   C     C_R   0.598709 0.756035 0.373989 0.597348
O15   O     O_2   0.490165 0.959542 0.635035 -0.516127
O16   O     O_2   0.556430 0.700570 0.662580 -0.491531
H14   H     H_    0.577140 0.592798 0.570872 0.176329
H15   H     H_    0.599229 0.538813 0.467724 0.161739
O17   O     O_2   0.602792 0.544325 0.364261 -0.489823
O18   O     O_2   0.607934 0.805379 0.338746 -0.506841
H16   H     H_    0.560463 0.912256 0.429801 0.174759
H17   H     H_    0.523560 0.965742 0.532506 0.160537
C47   C     C_R   0.474158 0.653437 0.254096 -0.086758
H18   H     H_    0.346277 0.685587 0.272150 0.162619
C48   C     C_R   0.484108 0.622467 0.194724 -0.172793
H19   H     H_    0.362452 0.631255 0.168411 0.145369
C49   C     C_R   0.649824 0.582014 0.169541 -0.089572
C50   C     C_R   0.805495 0.573330 0.205506 -0.215180
H20   H     H_    0.935322 0.542857 0.187249 0.152116
C51   C     C_R   0.794518 0.602973 0.265357 0.206926
C52   C     C_R   0.627071 0.643263 0.290245 0.333834
C53   C     C_R   0.344030 0.837698 0.739710 0.488811
C54   C     C_R   0.328401 0.867591 0.799484 -0.278010
H21   H     H_    0.211367 0.847149 0.821664 0.144307
C55   C     C_R   0.466076 0.921447 0.830578 -0.104526
C56   C     C_R   0.617248 0.946350 0.800733 -0.197268
H22   H     H_    0.724450 0.988250 0.823524 0.141970
C57   C     C_R   0.631081 0.918125 0.741191 -0.182655
H23   H     H_    0.748189 0.938832 0.719266 0.145898
C58   C     C_R   0.498356 0.862040 0.710133 0.280032
C59   C     C_2   0.642817 0.269715 0.001874 -0.336355
H24   H     H_    0.777310 0.238826 0.005216 0.149172
C60   C     C_2   0.472697 0.230238 0.997974 -0.337011
H25   H     H_    0.338204 0.261127 0.994633 0.149336
O19   O     O_R   0.618210 0.960470 0.922400 -0.539281
O20   O     O_R   0.291310 0.111960 0.995450 -0.548126
O21   O     O_R   0.124210 0.039530 0.077580 -0.541224
C61   C     C_R   0.460973 0.145085 0.998414 0.763421
O22   O     O_R   0.288310 0.965490 0.917650 -0.542910
O23   O     O_R   0.121180 0.892010 0.999220 -0.543801
C62   C     C_R   0.456461 0.950271 0.893989 0.725574
O24   O     O_R   0.621230 0.107990 0.000760 -0.538817
O25   O     O_3   0.455770 0.976060 0.026840 -0.363877
V3    V     V_3+5 0.179680 0.004440 0.995020 1.423042
O26   O     O_R   0.791670 0.888040 0.004570 -0.526083
C63   C     C_R   0.961424 0.855793 0.003407 0.747878
O27   O     O_R   0.794680 0.034510 0.082370 -0.542399
C64   C     C_R   0.964433 0.050033 0.106066 0.710746
V4    V     V_3+5 0.680070 0.995560 0.005010 1.450505
O28   O     O_3   0.953840 0.023940 0.973160 -0.375490
I1    I     I_    0.722179 0.737584 0.049375 -0.363968
I2    I     I_    0.036783 0.587209 0.315866 -0.352858
O29   O     O_3   0.213624 0.781233 0.710684 -0.530473
C65   C     C_3   0.064684 0.818816 0.686635 0.088806
H26   H     H_    0.091635 0.882978 0.688094 0.102845
H27   H     H_    0.930810 0.815223 0.710596 0.155634
C66   C     C_3   0.031285 0.774315 0.624298 -0.616389
H28   H     H_    0.987242 0.711769 0.621382 0.241725
H29   H     H_    0.916648 0.804584 0.605269 0.161814
H30   H     H_    0.163928 0.774293 0.599123 0.207773

loop_
_geom_bond_atom_site_label_1
_geom_bond_atom_site_label_2
_ccdc_geom_bond_type
C47   C52   A    
C56   H22   S    
O23   C63   A    
C17   H4    S    
C41   C42   A    
C51   C52   A    
C55   C62   S    
C1    O6    A    
O29   C65   S    
C23   C64   S    
C53   C54   A    
C45   N4    A    
C28   H11   S    
C12   C13   A    
C15   C16   A    
C16   C20   A    
C59   H24   S    
C14   C15   A    
O24   V4    S    
O5    C3    A    
C16   C17   A    
C27   C32   A    
V2    O10   S    
C54   H21   S    
C60   H25   S    
C37   C44   A    
O20   V3    S    
N2    C20   A    
C9    C12   A    
C31   C32   A    
O25   V3    S    
C49   C50   A    
C57   H23   S    
O19   V4    S    
C27   H10   S    
O8    V2    S    
C21   C26   A    
N4    C52   S    
C36   C37   A    
C24   C25   A    
C9    C10   A    
C38   C39   A    
O1    V2    S    
O7    V1    S    
O22   V3    S    
C65   C66   S    
C3    C29   S    
C11   C18   A    
C34   C35   A    
C30   H12   S    
C56   C57   A    
O9    C4    A    
C33   O15   S    
C4    C5    S    
C53   O29   S    
C20   O14   S    
N3    C58   S    
C21   C22   A    
C19   N2    A    
C39   H15   S    
C22   C23   A    
C30   C31   A    
C19   O13   S    
C42   C43   A    
C35   C36   A    
C10   C11   A    
O21   C64   A    
C57   C58   A    
C13   H3    S    
O4    C2    A    
N4    C46   A    
C66   H28   S    
C45   O17   S    
C29   C30   A    
C8    O12   S    
C25   H9    S    
C25   C26   A    
C60   C61   S    
O2    C1    A    
C43   C44   A    
C40   C45   A    
C43   H16   S    
C48   C49   A    
C17   C18   A    
C5    H1    S    
C2    C59   S    
O20   C61   A    
C50   H20   S    
O25   V4    S    
C33   C37   A    
C47   H18   S    
C44   H17   S    
O3    C4    A    
C61   O24   A    
V3    O28   S    
C23   C24   A    
C47   C48   A    
C14   C19   A    
C24   H8    S    
O6    V2    S    
C54   C55   A    
C42   C46   A    
O9    V2    S    
O27   V4    S    
O2    V1    S    
O19   C62   A    
C46   O18   S    
O26   C63   A    
C65   H26   S    
C22   H7    S    
C6    C63   S    
O1    C2    A    
C12   H2    S    
C21   H6    S    
C40   C41   A    
O5    V1    S    
O21   V3    S    
O22   C62   A    
O8    C3    A    
C27   C28   A    
C6    I1    S    
O23   V3    S    
C35   C38   A    
C33   N3    A    
C36   C41   A    
C53   C58   A    
O4    V1    S    
O3    V1    S    
V1    O10   S    
C34   O16   S    
C48   H19   S    
C50   C51   A    
C59   C60   D    
C66   H30   S    
C55   C56   A    
C5    C6    D    
C18   H5    S    
C28   C29   A    
O7    V2    S    
C31   H13   S    
C38   H14   S    
N1    C32   S    
C7    O11   S    
C51   I2    S    
C10   C15   A    
C39   C40   A    
C7    N1    A    
N2    C26   S    
C66   H29   S    
N3    C34   A    
C7    C11   A    
C13   C14   A    
C8    C9    A    
C65   H27   S    
O27   C64   A    
N1    C8    A    
O26   V4    S    
V4    O28   S    
C1    C49   S    
