data_mof_unit_31993.cif
_audit_creation_date              2012-12-10T18:29:44-0500
_audit_creation_method            fapswitch 2.2
_symmetry_space_group_name_H-M    P1
_symmetry_Int_Tables_number       1
_space_group_crystal_system       triclinic
_cell_length_a                    11.551017
_cell_length_b                    14.863263
_cell_length_c                    15.492166
_cell_angle_alpha                 81.02697
_cell_angle_beta                  90.093393
_cell_angle_gamma                 104.007031
_cell_volume                      2547.30494995

loop_
_atom_site_label
_atom_site_type_symbol
_atom_type_description
_atom_site_fract_x
_atom_site_fract_y
_atom_site_fract_z
_atom_type_partial_charge
C1    C     C_R   0.481976 0.440613 0.662330 0.877243
C2    C     C_R   0.616525 0.677007 0.975064 -0.218347
C3    C     C_R   0.725300 0.853983 0.585768 -0.203654
C4    C     C_R   0.304159 0.159965 0.371350 -0.189337
C5    C     C_R   0.672403 0.759327 0.589339 0.091090
C6    C     C_R   0.338520 0.247583 0.396727 0.047079
C7    C     C_R   0.504991 0.793962 0.515895 0.000932
C8    C     C_R   0.499703 0.205871 0.473577 0.000374
C9    C     C_R   0.558798 0.891567 0.502011 0.017878
C10   C     C_R   0.476449 0.118804 0.442731 0.006045
C11   C     C_R   0.670972 0.921729 0.540226 0.060529
C12   C     C_R   0.521538 0.559356 0.337739 0.892856
C13   C     C_R   0.371744 0.093383 0.395230 0.059229
C14   C     C_R   0.503922 0.959512 0.454054 0.007240
C15   C     C_R   0.551004 0.055460 0.461680 0.017344
C16   C     C_R   0.718020 0.500730 0.500061 0.900708
C17   C     C_R   0.281989 0.499293 0.499824 0.893891
C18   C     C_R   0.671667 0.085071 0.486187 -0.129030
C19   C     C_R   0.405433 0.936876 0.398216 -0.124867
C20   C     C_R   0.729998 0.017952 0.527945 -0.084613
C21   C     C_R   0.339523 0.004082 0.369567 -0.088245
C22   C     C_1   0.838941 0.501801 0.500177 -0.146334
C23   C     C_R   0.435704 0.351014 0.937222 0.028832
C24   C     C_1   0.161053 0.498199 0.499433 -0.146831
C25   C     C_1   0.940883 0.500880 0.499910 0.051478
C26   C     C_1   0.059075 0.499028 0.499521 0.050967
C27   C     C_R   0.467346 0.402862 0.755831 -0.080341
C28   C     C_R   0.550653 0.596658 0.244983 -0.073167
C29   C     C_R   0.383369 0.285208 0.882002 -0.041675
C30   C     C_R   0.654361 0.713740 0.124100 -0.031339
C31   C     C_R   0.392990 0.314008 0.789899 0.052470
C32   C     C_R   0.630221 0.684427 0.215105 0.010748
C33   C     C_R   0.522798 0.462947 0.811763 -0.216252
C34   C     C_R   0.609989 0.649600 0.065832 0.037580
C35   C     C_R   0.508437 0.535878 0.186221 -0.217001
C36   C     C_R   0.492727 0.444593 0.900407 0.111308
C37   C     C_R   0.550742 0.556113 0.099828 0.117161
C38   C     C_2   0.742204 0.183563 0.456726 0.918332
C39   C     C_2   0.380319 0.849571 0.358549 0.920254
C40   C     C_2   0.318484 0.188085 0.919955 0.886814
C41   C     C_2   0.726023 0.810129 0.091491 0.889005
C42   C     C_2   0.545881 0.349712 0.163829 0.927244
C43   C     C_2   0.525492 0.656475 0.834090 0.914545
C44   C     C_2   0.854673 0.048173 0.555637 0.959625
C45   C     C_R   0.526769 0.515370 0.953931 0.013425
C46   C     C_2   0.237234 0.981076 0.311816 0.970157
C47   C     C_R   0.526111 0.486263 0.045429 0.008481
C48   C     C_R   0.500166 0.388240 0.079550 -0.086690
C49   C     C_R   0.561183 0.614004 0.920319 -0.064252
C50   C     C_R   0.443844 0.323520 0.027168 -0.193318
H1    H     H_    0.417834 0.249887 0.055358 0.217427
H2    H     H_    0.226242 0.146158 0.332135 0.188427
H3    H     H_    0.780683 0.295119 0.359752 0.365765
H4    H     H_    0.444832 0.763924 0.293808 0.352647
H5    H     H_    0.673015 0.809208 0.260302 0.246031
H6    H     H_    0.778965 0.747576 0.272326 0.225596
H7    H     H_    0.268356 0.293413 0.698732 0.187629
H8    H     H_    0.272005 0.194127 0.762922 0.216173
H9    H     H_    0.300836 0.049097 0.924209 0.371159
H10   H     H_    0.730136 0.938340 0.023855 0.370418
H11   H     H_    0.530554 0.241028 0.262236 0.374642
H12   H     H_    0.651762 0.749960 0.947094 0.216432
H13   H     H_    0.400057 0.653368 0.743049 0.353498
H14   H     H_    0.965754 0.067108 0.655285 0.352094
H15   H     H_    0.059009 0.955074 0.298823 0.366426
H16   H     H_    0.443645 0.470354 0.208848 0.154169
H17   H     H_    0.589055 0.525887 0.784782 0.153388
H18   H     H_    0.568464 0.224756 0.519293 0.142164
H19   H     H_    0.416259 0.765099 0.496475 0.141238
H20   H     H_    0.288357 0.299473 0.376475 0.151091
H21   H     H_    0.719216 0.707551 0.617384 0.141722
H22   H     H_    0.811156 0.872821 0.614905 0.173934
N1    N     N_R   0.566020 0.731700 0.552730 -0.118346
N2    N     N_R   0.433980 0.268300 0.447270 -0.111855
N3    N     N_3   0.687154 0.741951 0.276926 -0.402077
N4    N     N_3   0.326852 0.256568 0.730595 -0.396392
O1    O     O_R   0.466720 0.383110 0.605620 -0.591843
O2    O     O_R   0.730403 0.228051 0.371867 -0.775823
O3    O     O_2   0.278698 0.799805 0.360993 -0.607560
O4    O     O_R   0.473383 0.824166 0.318950 -0.784622
O5    O     O_2   0.236790 0.175163 0.974107 -0.581514
O6    O     O_R   0.351414 0.111599 0.893802 -0.766162
O7    O     O_2   0.831234 0.833160 0.109022 -0.592468
O8    O     O_R   0.672386 0.874850 0.042030 -0.767523
O9    O     O_2   0.637437 0.393647 0.192505 -0.593435
O10   O     O_R   0.487936 0.260779 0.207966 -0.796862
O11   O     O_2   0.591732 0.726669 0.792378 -0.626851
O12   O     O_R   0.533280 0.616890 0.394380 -0.580354
O13   O     O_R   0.414010 0.618277 0.802176 -0.777033
O14   O     O_2   0.936588 0.075915 0.500643 -0.583654
O15   O     O_R   0.877596 0.044792 0.644534 -0.769609
O16   O     O_2   0.255069 0.971018 0.236530 -0.556864
O17   O     O_R   0.121023 0.970747 0.344095 -0.767188
O18   O     O_R   0.509090 0.531900 0.639510 -0.612997
O19   O     O_R   0.490910 0.468100 0.360490 -0.610847
O20   O     O_R   0.644370 0.425610 0.483050 -0.593106
O21   O     O_R   0.355630 0.574390 0.516950 -0.607836
O22   O     O_R   0.686740 0.574390 0.516930 -0.625318
O23   O     O_R   0.313260 0.425610 0.483070 -0.622202
O24   O     O_2   0.808392 0.226007 0.506623 -0.607648
Zn1   Zn    Zn3+2 0.471710 0.400660 0.477370 0.984556
Zn2   Zn    Zn3+2 0.528290 0.599340 0.522630 0.975790

loop_
_geom_bond_atom_site_label_1
_geom_bond_atom_site_label_2
_ccdc_geom_bond_type
C15   C18   A    
C5    H21   S    
C34   C37   A    
C1    O1    A    
O1    Zn1   S    
H9    O6    S    
C32   N3    S    
H8    N4    S    
C7    N1    A    
C27   C33   A    
C43   O13   S    
C4    H2    S    
C23   C29   A    
H7    N4    S    
C35   C37   A    
C24   C26   T    
C10   C15   A    
C46   O16   D    
C41   O7    D    
C33   C36   A    
C7    C9    A    
C4    C13   A    
C28   C35   A    
C1    O18   A    
C22   C25   T    
C30   C41   S    
C42   O10   S    
C37   C47   A    
O21   Zn2   S    
H5    N3    S    
C2    C34   A    
H15   O17   S    
H6    N3    S    
O20   Zn1   S    
C14   C19   A    
C20   C44   S    
C6    N2    A    
H4    O4    S    
C45   C47   A    
C11   C20   A    
C16   O20   A    
C17   C24   S    
C30   C34   A    
C27   C31   A    
C40   O6    S    
C28   C32   A    
C4    C6    A    
C12   O12   A    
C43   C49   S    
C23   C50   A    
C38   O2    S    
C35   H16   S    
C25   C26   S    
O22   Zn2   S    
C41   O8    S    
C39   O3    D    
C9    C14   A    
C2    C49   A    
C17   O23   A    
C47   C48   A    
C45   C49   A    
H13   O13   S    
C8    N2    A    
C50   H1    S    
C13   C21   A    
C36   C45   A    
C12   O19   A    
C42   O9    D    
C42   C48   S    
C9    C11   A    
C44   O15   S    
C19   C39   S    
N2    Zn1   S    
C38   O24   D    
N1    Zn2   S    
O23   Zn1   S    
C12   C28   S    
C8    H18   S    
C44   O14   D    
C33   H17   S    
C21   C46   S    
C6    H20   S    
C16   C22   S    
C19   C21   A    
C40   O5    D    
C3    C5    A    
C10   C13   A    
C7    H19   S    
O12   Zn2   S    
C43   O11   D    
C39   O4    S    
H3    O2    S    
C18   C38   S    
C29   C31   A    
C30   C32   A    
H10   O8    S    
C16   O22   A    
C31   N4    S    
C46   O17   S    
C29   C40   S    
C48   C50   A    
C3    H22   S    
C18   C20   A    
C5    N1    A    
C3    C11   A    
H11   O10   S    
C2    H12   S    
O18   Zn2   S    
C8    C10   A    
C23   C36   A    
C1    C27   S    
C14   C15   A    
H14   O15   S    
C17   O21   A    
O19   Zn1   S    
