data_mof_unit_8710.cif
_audit_creation_date              2012-12-11T15:24:44-0500
_audit_creation_method            fapswitch 2.2
_symmetry_space_group_name_H-M    P1
_symmetry_Int_Tables_number       1
_space_group_crystal_system       triclinic
_cell_length_a                    23.123291
_cell_length_b                    6.952108
_cell_length_c                    20.712707
_cell_angle_alpha                 89.998617
_cell_angle_beta                  93.197398
_cell_angle_gamma                 90.001306
_cell_volume                      3324.50065323

loop_
_atom_site_label
_atom_site_type_symbol
_atom_type_description
_atom_site_fract_x
_atom_site_fract_y
_atom_site_fract_z
_atom_type_partial_charge
O1    O     O_R   0.188030 0.379840 0.189340 -0.549154
O2    O     O_R   0.811970 0.620160 0.810660 -0.539847
O3    O     O_R   0.311970 0.879840 0.310660 -0.549165
O4    O     O_R   0.688030 0.120160 0.689340 -0.539856
O5    O     O_R   0.307090 0.708420 0.185790 -0.534492
O6    O     O_R   0.692910 0.291580 0.814210 -0.537328
O7    O     O_R   0.192910 0.208420 0.314210 -0.534493
O8    O     O_R   0.807090 0.791580 0.685790 -0.537324
C1    C     C_R   0.326630 0.540977 0.170829 0.725550
C2    C     C_R   0.673404 0.459031 0.829214 0.720356
C3    C     C_R   0.173370 0.040973 0.329171 0.725517
C4    C     C_R   0.826596 0.959035 0.670786 0.720369
O9    O     O_R   0.188180 0.709480 0.181650 -0.523467
O10   O     O_R   0.811820 0.290520 0.818350 -0.543160
O11   O     O_R   0.311820 0.209480 0.318350 -0.523434
O12   O     O_R   0.688180 0.790520 0.681650 -0.543180
O13   O     O_R   0.192210 0.880960 0.306500 -0.541022
O14   O     O_R   0.807790 0.119040 0.693500 -0.536033
O15   O     O_R   0.307790 0.380960 0.193500 -0.541023
O16   O     O_R   0.692210 0.619040 0.806500 -0.536037
C5    C     C_R   0.167331 0.540570 0.166361 0.750685
C6    C     C_R   0.832215 0.459390 0.834212 0.706361
C7    C     C_R   0.332669 0.040570 0.333639 0.750662
C8    C     C_R   0.667785 0.959390 0.665788 0.706384
O17   O     O_3   0.251460 0.546730 0.290970 -0.368664
O18   O     O_3   0.748540 0.453270 0.709030 -0.368858
O19   O     O_3   0.248540 0.046730 0.209030 -0.368668
O20   O     O_3   0.751460 0.953270 0.790970 -0.368848
V1    V     V_3+5 0.249730 0.821120 0.242400 1.436943
V2    V     V_3+5 0.750270 0.178880 0.757600 1.410696
V3    V     V_3+5 0.250270 0.321120 0.257600 1.436948
V4    V     V_3+5 0.749730 0.678880 0.742400 1.410682
C9    C     C_R   0.566563 0.061331 0.632169 0.171063
C10   C     C_R   0.433499 0.930888 0.366894 0.125366
C11   C     C_R   0.933479 0.561004 0.867787 0.171007
C12   C     C_R   0.066458 0.431208 0.133153 0.125303
C13   C     C_R   0.618525 0.970444 0.616656 -0.197272
C14   C     C_R   0.382517 0.028687 0.382063 -0.123809
C15   C     C_R   0.881477 0.470441 0.883343 -0.197264
C16   C     C_R   0.117483 0.528693 0.117938 -0.123744
C17   C     C_R   0.623783 0.891491 0.554645 0.150620
C18   C     C_R   0.378247 0.113420 0.442977 0.135380
C19   C     C_R   0.876179 0.391808 0.945394 0.150597
C20   C     C_R   0.121798 0.613091 0.056978 0.135398
C21   C     C_R   0.577340 0.906574 0.506900 -0.031604
C22   C     C_R   0.423603 0.089188 0.491792 -0.038934
C23   C     C_R   0.922618 0.406942 0.993143 -0.031631
C24   C     C_R   0.076444 0.588783 0.008163 -0.038950
C25   C     C_R   0.524220 0.992749 0.522834 -0.143345
C26   C     C_R   0.476625 0.001796 0.475652 -0.102137
C27   C     C_R   0.975782 0.492733 0.977163 -0.143368
C28   C     C_R   0.023376 0.501781 0.024350 -0.102150
C29   C     C_R   0.518975 0.072764 0.585576 0.068747
C30   C     C_R   0.481862 0.921623 0.412760 0.027491
C31   C     C_R   0.981078 0.572367 0.914371 0.068745
C32   C     C_R   0.018090 0.421992 0.087291 0.027512
C33   C     C_R   0.582924 0.837311 0.443286 0.487317
C34   C     C_R   0.417631 0.151587 0.556212 0.383130
C35   C     C_R   0.916983 0.338127 0.056806 0.487304
C36   C     C_R   0.082467 0.650710 0.943699 0.383106
C37   C     C_R   0.535603 0.835556 0.398136 0.104811
C38   C     C_R   0.465745 0.158712 0.600523 0.141393
C39   C     C_R   0.964297 0.336368 0.101968 0.104773
C40   C     C_R   0.034364 0.657845 0.899370 0.141342
C41   C     C_3   0.047121 0.073985 0.530356 0.131875
C42   C     C_3   0.952686 0.926065 0.469402 0.130859
C43   C     C_3   0.452880 0.573988 0.969644 0.131860
C44   C     C_3   0.547313 0.426062 0.030598 0.130846
C45   C     C_3   0.016788 0.885982 0.549176 0.143138
C46   C     C_3   0.983022 0.114070 0.450578 0.143807
C47   C     C_3   0.483210 0.385987 0.950825 0.143156
C48   C     C_3   0.516980 0.614065 0.049421 0.143825
C49   C     C_1   0.871774 0.967390 0.625214 -0.182591
C50   C     C_1   0.128126 0.032635 0.374662 -0.183988
C51   C     C_1   0.628226 0.467382 0.874787 -0.182559
C52   C     C_1   0.371874 0.532644 0.125338 -0.183960
C53   C     C_3   0.987544 0.173521 0.522437 0.173244
C54   C     C_3   0.012264 0.826531 0.477319 0.173294
C55   C     C_3   0.512459 0.673523 0.977561 0.173254
C56   C     C_3   0.487733 0.326529 0.022683 0.173305
C57   C     C_3   0.956754 0.985373 0.541680 -0.032282
C58   C     C_3   0.043055 0.014677 0.458080 -0.031757
C59   C     C_3   0.543246 0.485376 0.958320 -0.032292
C60   C     C_3   0.456945 0.514674 0.041920 -0.031767
C61   C     C_1   0.909936 0.974407 0.587417 0.024229
C62   C     C_1   0.089912 0.025632 0.412393 0.020213
C63   C     C_1   0.590064 0.474406 0.912583 0.024231
C64   C     C_1   0.410088 0.525633 0.087607 0.020218
N1    N     N_3   0.561070 0.132402 0.696740 -0.615772
H1    H     H_    0.589785 0.246760 0.705298 0.241422
H2    H     H_    0.570742 0.022129 0.729950 0.216560
N2    N     N_3   0.436717 0.849265 0.303498 -0.699590
H3    H     H_    0.426878 0.954533 0.268521 0.221550
H4    H     H_    0.407394 0.735364 0.297986 0.242148
N3    N     N_3   0.938989 0.631861 0.803192 -0.615715
H5    H     H_    0.910299 0.746267 0.794596 0.241325
H6    H     H_    0.929284 0.521510 0.770024 0.216577
N4    N     N_3   0.063212 0.349820 0.196580 -0.699575
H7    H     H_    0.073080 0.455188 0.231512 0.221509
H8    H     H_    0.092510 0.235865 0.202139 0.242105
N5    N     N_3   0.676573 0.795571 0.540070 -0.600424
H9    H     H_    0.711634 0.888059 0.549904 0.208034
H10   H     H_    0.681515 0.672153 0.568614 0.248033
N6    N     N_3   0.328329 0.231381 0.452385 -0.647723
H11   H     H_    0.341256 0.364921 0.471384 0.266149
H12   H     H_    0.299937 0.161379 0.481933 0.256019
N7    N     N_3   0.823353 0.296164 0.960006 -0.600403
H13   H     H_    0.818362 0.172685 0.931502 0.247927
H14   H     H_    0.788329 0.388776 0.950136 0.208017
N8    N     N_3   0.171762 0.730796 0.047514 -0.647815
H15   H     H_    0.158887 0.864262 0.028410 0.266099
H16   H     H_    0.200140 0.660492 0.018028 0.256032
O21   O     O_3   0.634753 0.761685 0.424409 -0.516084
C65   C     C_3   0.666106 0.909605 0.395320 -0.143466
H17   H     H_    0.674346 0.032993 0.428872 0.124264
H18   H     H_    0.643466 0.960402 0.349685 0.127819
H19   H     H_    0.708785 0.851557 0.382969 0.155766
O22   O     O_3   0.364572 0.207945 0.577458 -0.559882
C66   C     C_3   0.336401 0.043551 0.600808 -0.285563
H20   H     H_    0.293169 0.087106 0.616336 0.170090
H21   H     H_    0.329584 0.931912 0.562593 0.139798
H22   H     H_    0.360724 0.979830 0.643404 0.138833
O23   O     O_3   0.865106 0.262981 0.075726 -0.516080
C67   C     C_3   0.833825 0.411318 0.104680 -0.143472
H23   H     H_    0.825670 0.534519 0.071027 0.124227
H24   H     H_    0.856474 0.462289 0.150285 0.127874
H25   H     H_    0.791107 0.353646 0.117051 0.155749
O24   O     O_3   0.135565 0.706555 0.922426 -0.559877
C68   C     C_3   0.163658 0.541793 0.899242 -0.285502
H26   H     H_    0.206911 0.584965 0.883671 0.170069
H27   H     H_    0.170422 0.430463 0.937568 0.139798
H28   H     H_    0.139306 0.477825 0.856708 0.138805
N9    N     N_3   0.545079 0.743427 0.337590 -0.627526
H29   H     H_    0.541278 0.843549 0.299961 0.258624
H30   H     H_    0.516611 0.627652 0.330429 0.261828
N10   N     N_3   0.459947 0.258606 0.660554 -0.607320
H31   H     H_    0.446067 0.399133 0.650448 0.243181
H32   H     H_    0.428886 0.189975 0.687100 0.246695
N11   N     N_3   0.954750 0.244780 0.162590 -0.627534
H33   H     H_    0.958635 0.345152 0.200136 0.258615
H34   H     H_    0.983125 0.128793 0.169843 0.261867
N12   N     N_3   0.040245 0.757174 0.839248 -0.607259
H35   H     H_    0.054209 0.897689 0.849223 0.243181
H36   H     H_    0.071269 0.688076 0.812779 0.246678
N13   N     N_3   0.035823 0.759530 0.602212 -0.614289
H37   H     H_    0.078511 0.719497 0.594861 0.232745
H38   H     H_    0.036779 0.841078 0.644632 0.223741
N14   N     N_3   0.963998 0.240519 0.397536 -0.618032
H39   H     H_    0.921291 0.280419 0.404843 0.234795
H40   H     H_    0.963104 0.159023 0.355106 0.220298
N15   N     N_3   0.464174 0.259538 0.897790 -0.614320
H41   H     H_    0.421485 0.219506 0.905141 0.232738
H42   H     H_    0.463220 0.341087 0.855369 0.223706
N16   N     N_3   0.536006 0.740511 0.102462 -0.618049
H43   H     H_    0.578714 0.780410 0.095155 0.234783
H44   H     H_    0.536897 0.659014 0.144893 0.220270
N17   N     N_3   0.097958 0.157249 0.564300 -0.630426
H45   H     H_    0.088111 0.176180 0.612514 0.226725
H46   H     H_    0.131015 0.054844 0.563981 0.217681
N18   N     N_3   0.901848 0.842796 0.435461 -0.628826
H47   H     H_    0.911685 0.823930 0.387241 0.227196
H48   H     H_    0.868783 0.945170 0.435802 0.219507
N19   N     N_3   0.402044 0.657257 0.935700 -0.630393
H49   H     H_    0.411891 0.676189 0.887485 0.226729
H50   H     H_    0.368985 0.554853 0.936020 0.217690
N20   N     N_3   0.598150 0.342789 0.064539 -0.628787
H51   H     H_    0.588314 0.323922 0.112760 0.227206
H52   H     H_    0.631217 0.445160 0.064196 0.219511
N21   N     N_3   0.024955 0.635518 0.453063 -0.546125
H53   H     H_    0.068639 0.607443 0.465012 0.239341
H54   H     H_    0.020199 0.641155 0.402635 0.229789
N22   N     N_3   0.974853 0.364535 0.546692 -0.545683
H55   H     H_    0.931171 0.392618 0.534734 0.239568
H56   H     H_    0.979600 0.358896 0.597119 0.231955
N23   N     N_3   0.475040 0.135515 0.046939 -0.546118
H57   H     H_    0.431356 0.107441 0.034991 0.239332
H58   H     H_    0.479796 0.141144 0.097367 0.229788
N24   N     N_3   0.525153 0.864538 0.953306 -0.545679
H59   H     H_    0.568836 0.892617 0.965262 0.239557
H60   H     H_    0.520403 0.858908 0.902879 0.231942

loop_
_geom_bond_atom_site_label_1
_geom_bond_atom_site_label_2
_ccdc_geom_bond_type
C34   C38   A    
C59   C63   S    
O1    C5    A    
N5    H9    S    
O19   V1    S    
O13   V1    S    
N21   H53   S    
O3    C7    A    
N19   H49   S    
O1    V3    S    
C56   C60   S    
O15   V3    S    
O24   C68   S    
C42   N18   S    
N24   H59   S    
C37   N9    S    
O23   C67   S    
N23   H58   S    
C42   C46   S    
O7    C3    A    
C21   C33   A    
C26   C30   A    
O9    V1    S    
N19   H50   S    
N14   H40   S    
C14   C18   A    
C48   C55   S    
N13   H37   S    
O4    C8    A    
C25   C29   A    
N4    H7    S    
C34   O22   S    
C45   N13   S    
O17   V1    S    
O2    V4    S    
C18   C22   A    
C38   N10   S    
O3    V1    S    
N8    H15   S    
C47   C56   S    
O22   C66   S    
C28   C32   A    
C1    O15   A    
N17   H45   S    
C47   N15   S    
N3    H5    S    
C2    O16   A    
O2    C6    A    
N7    H13   S    
O14   V2    S    
C1    C52   S    
C21   C25   A    
N1    H2    S    
C52   C64   T    
N16   H44   S    
C44   C48   S    
C68   H28   S    
O11   C7    A    
N15   H41   S    
C43   C60   S    
O12   C8    A    
C4    C49   S    
C22   C34   A    
C46   C53   S    
C35   O23   S    
N7    H14   S    
C45   C54   S    
O10   V2    S    
O16   V4    S    
O20   V4    S    
N6    H12   S    
N6    H11   S    
N13   H38   S    
N22   H56   S    
C57   C61   S    
C24   C36   A    
C47   C59   S    
C66   H21   S    
C9    C29   A    
C42   C54   S    
C32   C39   A    
O7    V3    S    
C11   C31   A    
C27   C28   A    
O8    V4    S    
C12   C16   A    
N20   H52   S    
C48   N16   S    
N14   H39   S    
N10   H32   S    
C36   O24   S    
O18   V4    S    
C23   C27   A    
C27   C31   A    
C58   C62   S    
O19   V3    S    
O11   V3    S    
C54   N21   S    
C9    C13   A    
C65   H18   S    
N18   H48   S    
N17   H46   S    
C11   C15   A    
O5    C1    A    
C12   C32   A    
C9    N1    S    
C41   C53   S    
C2    C51   S    
C54   C58   S    
N24   H60   S    
N23   H57   S    
C53   C57   S    
O8    C4    A    
C31   C40   A    
N2    H4    S    
C8    C13   S    
C55   N24   S    
O9    C5    A    
C19   N7    S    
C50   C62   T    
C66   H20   S    
C33   C37   A    
C49   C61   T    
N16   H43   S    
C48   C60   S    
C67   H25   S    
O18   V2    S    
C41   N17   S    
O6    V2    S    
C10   C30   A    
N4    H8    S    
N9    H29   S    
N12   H36   S    
C46   N14   S    
C44   C56   S    
O5    V1    S    
N22   H55   S    
C67   H24   S    
O21   C65   S    
N21   H54   S    
C66   H22   S    
C51   C63   T    
C3    O13   A    
C10   C14   A    
C44   C59   S    
C39   N11   S    
O17   V3    S    
C60   C64   S    
C56   N23   S    
N10   H31   S    
C3    C50   S    
C18   N6    S    
O6    C2    A    
C33   O21   S    
N11   H33   S    
N3    H6    S    
C65   H17   S    
C30   C37   A    
C11   N3    S    
O12   V4    S    
C7    C14   S    
C22   C26   A    
C35   C39   A    
C36   C40   A    
N18   H47   S    
O10   C6    A    
O20   V2    S    
C68   H26   S    
C42   C57   S    
C55   C59   S    
N11   H34   S    
C41   C58   S    
N20   H51   S    
C5    C16   S    
C40   N12   S    
C53   N22   S    
C41   C45   S    
C6    C15   S    
N2    H3    S    
C17   N5    S    
C43   C47   S    
N15   H42   S    
C13   C17   A    
C46   C58   S    
N8    H16   S    
C65   H19   S    
C45   C57   S    
C23   C35   A    
C43   N19   S    
C16   C20   A    
C15   C19   A    
C29   C38   A    
N5    H10   S    
C25   C26   A    
C4    O14   A    
N9    H30   S    
C17   C21   A    
N12   H35   S    
C12   N4    S    
N1    H1    S    
C24   C28   A    
C19   C23   A    
C43   C55   S    
O4    V2    S    
C20   C24   A    
C20   N8    S    
C67   H23   S    
C68   H27   S    
C10   N2    S    
C44   N20   S    
