data_mof_unit_26162.cif
_audit_creation_date              2012-12-10T20:48:17-0500
_audit_creation_method            fapswitch 2.2
_symmetry_space_group_name_H-M    P1
_symmetry_Int_Tables_number       1
_space_group_crystal_system       triclinic
_cell_length_a                    10.751731
_cell_length_b                    8.919283
_cell_length_c                    8.108331
_cell_angle_alpha                 89.996295
_cell_angle_beta                  90.101814
_cell_angle_gamma                 89.914155
_cell_volume                      777.568447201

loop_
_atom_site_label
_atom_site_type_symbol
_atom_type_description
_atom_site_fract_x
_atom_site_fract_y
_atom_site_fract_z
_atom_type_partial_charge
C1    C     C_R   0.500042 0.218012 0.500008 0.912302
C2    C     C_R   0.257141 0.504632 0.499632 0.948091
C3    C     C_R   0.742656 0.498320 0.500276 0.853189
C4    C     C_R   0.500336 0.781938 0.500015 0.943699
C5    C     C_1   0.500248 0.065181 0.500032 -0.151589
C6    C     C_3   0.072523 0.404909 0.638623 0.211814
C7    C     C_3   0.069723 0.442276 0.332825 0.130513
C8    C     C_3   0.930631 0.386784 0.624728 0.179165
C9    C     C_3   0.927913 0.460002 0.326917 0.179904
C10   C     C_1   0.500368 0.934731 0.500042 -0.126291
C11   C     C_3   0.071352 0.681629 0.520627 -0.129259
C12   C     C_3   0.923237 0.673330 0.549539 -0.162703
C13   C     C_3   0.120835 0.512358 0.499345 -0.125624
C14   C     C_3   0.878449 0.507812 0.501339 -0.151151
H1    H     H_    0.115178 0.291708 0.618691 0.010050
H2    H     H_    0.090533 0.319109 0.334531 0.035286
H3    H     H_    0.910831 0.273689 0.571143 0.068770
H4    H     H_    0.887678 0.347750 0.295608 0.084520
N1    N     N_1   0.500000 0.500030 0.073640 -0.008319
N2    N     N_1   0.500000 0.500030 0.926360 -0.000800
O1    O     O_R   0.500000 0.285340 0.636850 -0.624313
O2    O     O_R   0.500000 0.285340 0.363150 -0.626328
O3    O     O_R   0.314790 0.499970 0.636880 -0.551623
O4    O     O_R   0.314790 0.499970 0.363120 -0.591120
O5    O     O_R   0.685210 0.499970 0.636880 -0.588624
O6    O     O_R   0.685210 0.499970 0.363120 -0.615128
O7    O     O_R   0.500000 0.714650 0.636900 -0.618885
O8    O     O_R   0.500000 0.714650 0.363100 -0.593982
Zn1   Zn    Zn3+2 0.500000 0.499990 0.682780 1.052897
Zn2   Zn    Zn3+2 0.500000 0.499990 0.317220 1.039554
O9    O     O_3   0.106607 0.455685 0.796373 -0.584530
H5    H     H_    0.112106 0.365762 0.868108 0.328210
O10   O     O_3   0.122503 0.505945 0.189698 -0.634280
H6    H     H_    0.170088 0.426221 0.132212 0.352923
O11   O     O_3   0.874518 0.392586 0.781497 -0.685959
H7    H     H_    0.889050 0.293905 0.834985 0.328646
O12   O     O_3   0.892081 0.563325 0.204297 -0.695685
H8    H     H_    0.884188 0.506589 0.099526 0.411214
C15   C     C_2   0.131697 0.776699 0.657036 0.595828
H9    H     H_    0.106623 0.894538 0.665283 0.036104
O13   O     O_2   0.204818 0.727110 0.758277 -0.466203
C16   C     C_2   0.106150 0.767590 0.362681 0.487057
H10   H     H_    0.041338 0.778839 0.260983 0.199114
O14   O     O_2   0.210862 0.817771 0.342855 -0.587713
C17   C     C_2   0.880532 0.707082 0.727335 0.586854
H11   H     H_    0.787289 0.750397 0.748272 0.050656
O15   O     O_2   0.944859 0.682307 0.848406 -0.465291
C18   C     C_2   0.855053 0.794030 0.449224 0.212600
H12   H     H_    0.784545 0.765431 0.359092 0.177724
O16   O     O_2   0.877100 0.926875 0.472051 -0.631286

loop_
_geom_bond_atom_site_label_1
_geom_bond_atom_site_label_2
_ccdc_geom_bond_type
C8    H3    S    
C6    C8    S    
C9    C14   S    
C1    O1    A    
O12   H8    S    
C12   C17   S    
O7    Zn1   S    
C11   C13   S    
O9    H5    S    
C3    O5    A    
C12   C18   S    
C18   O16   D    
C6    O9    S    
C1    O2    A    
C15   O13   D    
C17   H11   S    
C6    C13   S    
C11   C15   S    
C7    O10   S    
C3    C14   S    
C16   O14   D    
C11   C16   S    
C1    C5    S    
O3    Zn1   S    
C9    O12   S    
C7    H2    S    
C4    O8    A    
C12   C14   S    
O6    Zn2   S    
N2    Zn1   S    
C17   O15   D    
C2    O4    A    
O4    Zn2   S    
C16   H10   S    
C4    C10   S    
C15   H9    S    
C9    H4    S    
C7    C13   S    
C4    O7    A    
O10   H6    S    
O5    Zn1   S    
C2    O3    A    
C7    C9    S    
C2    C13   S    
C18   H12   S    
C8    C14   S    
O2    Zn2   S    
C5    C10   T    
C6    H1    S    
N1    Zn2   S    
O1    Zn1   S    
C8    O11   S    
C3    O6    A    
N1    N2    T    
C11   C12   S    
O8    Zn2   S    
O11   H7    S    
