data_mof_unit_32540.cif
_audit_creation_date              2012-12-10T19:30:31-0500
_audit_creation_method            fapswitch 2.2
_symmetry_space_group_name_H-M    P1
_symmetry_Int_Tables_number       1
_space_group_crystal_system       triclinic
_cell_length_a                    14.866677
_cell_length_b                    15.68927
_cell_length_c                    15.608953
_cell_angle_alpha                 90.095111
_cell_angle_beta                  83.141589
_cell_angle_gamma                 89.342537
_cell_volume                      3614.43932874

loop_
_atom_site_label
_atom_site_type_symbol
_atom_type_description
_atom_site_fract_x
_atom_site_fract_y
_atom_site_fract_z
_atom_type_partial_charge
C1    C     C_R   0.499638 0.662478 0.499619 0.884660
C2    C     C_3   0.588881 0.025305 0.494511 0.071975
C3    C     C_3   0.500945 0.916866 0.499114 0.004733
C4    C     C_3   0.502859 0.082106 0.499183 0.003162
C5    C     C_1   0.499540 0.826050 0.499279 -0.085693
C6    C     C_1   0.502706 0.173220 0.499443 -0.085782
C7    C     C_3   0.036265 0.560126 0.446701 0.076744
C8    C     C_3   0.963713 0.437109 0.552920 0.077283
C9    C     C_3   0.980958 0.483783 0.419234 0.197192
C10   C     C_3   0.018859 0.513462 0.580550 0.194329
C11   C     C_3   0.965687 0.575309 0.527256 0.071132
C12   C     C_R   0.500497 0.337350 0.499973 0.917197
C13   C     C_3   0.034368 0.422071 0.472437 0.075081
C14   C     C_3   0.910466 0.498839 0.499410 -0.067114
C15   C     C_3   0.089511 0.498560 0.500478 -0.065041
C16   C     C_R   0.485359 0.503730 0.658367 0.866845
C17   C     C_R   0.514556 0.502943 0.341537 0.864609
C18   C     C_1   0.810323 0.499295 0.499595 0.030334
C19   C     C_1   0.189666 0.499256 0.500471 0.028486
C20   C     C_R   0.472632 0.525791 0.753330 -0.155057
C21   C     C_R   0.526817 0.523448 0.246314 -0.156123
C22   C     C_R   0.548695 0.520068 0.800665 0.177493
C23   C     C_3   0.463837 0.027800 0.429989 0.074123
C24   C     C_R   0.450014 0.520891 0.199725 0.176950
C25   C     C_R   0.550545 0.570219 0.874508 -0.213255
C26   C     C_R   0.448740 0.570572 0.125609 -0.211625
C27   C     C_R   0.474359 0.615845 0.910077 0.030116
C28   C     C_R   0.525615 0.613160 0.089683 0.030714
C29   C     C_R   0.390755 0.602496 0.878716 0.116158
C30   C     C_R   0.609340 0.595914 0.119990 0.115005
C31   C     C_R   0.390226 0.564834 0.795405 0.026142
C32   C     C_R   0.610025 0.557777 0.202952 0.026887
C33   C     C_2   0.487834 0.694306 0.960367 0.149018
C34   C     C_3   0.540178 0.970852 0.568146 0.073369
C35   C     C_2   0.513070 0.693026 0.041157 0.156598
C36   C     C_3   0.632934 0.468679 0.770143 -0.885259
C37   C     C_3   0.364720 0.473345 0.231054 -0.881388
C38   C     C_3   0.087850 0.625152 0.386680 -0.398780
C39   C     C_3   0.025619 0.680851 0.338037 -0.349701
C40   C     C_3   0.077650 0.754420 0.292512 -0.895159
C41   C     C_3   0.912412 0.371838 0.612911 -0.399044
C42   C     C_3   0.974956 0.313261 0.658250 -0.344913
C43   C     C_3   0.920949 0.243815 0.708923 -0.895029
C44   C     C_3   0.084075 0.339671 0.440074 -0.399153
C45   C     C_3   0.549787 0.970628 0.425420 0.076529
C46   C     C_3   0.020471 0.268570 0.418445 -0.339696
C47   C     C_3   0.072859 0.185152 0.398730 -0.904302
C48   C     C_3   0.916526 0.658034 0.559615 -0.400861
C49   C     C_3   0.980613 0.730350 0.576836 -0.336379
C50   C     C_3   0.927338 0.811678 0.604136 -0.905038
C51   C     C_3   0.694879 0.569906 0.248013 -0.398327
C52   C     C_3   0.690155 0.656714 0.294356 -0.298859
C53   C     C_3   0.777410 0.675962 0.332526 -0.917304
C54   C     C_3   0.308076 0.583971 0.747903 -0.399425
C55   C     C_3   0.321250 0.669609 0.700626 -0.299463
C56   C     C_3   0.454250 0.027974 0.572871 0.074527
C57   C     C_3   0.241804 0.692336 0.651348 -0.886197
C58   C     C_3   0.527736 0.775434 0.088062 -0.928373
C59   C     C_3   0.473708 0.778223 0.915584 -0.912533
C60   C     C_3   0.304178 0.633529 0.933042 -0.431905
C61   C     C_3   0.246855 0.557876 0.969249 -0.354468
C62   C     C_3   0.161162 0.588313 0.025082 -0.892293
C63   C     C_3   0.696110 0.622909 0.064688 -0.429574
C64   C     C_3   0.749428 0.544689 0.025472 -0.355829
C65   C     C_3   0.834293 0.571221 0.967303 -0.894423
C66   C     C_3   0.600493 0.924962 0.346541 -0.406613
C67   C     C_1   0.498992 0.750977 0.499428 -0.211232
C68   C     C_3   0.649423 0.986285 0.280882 -0.350178
C69   C     C_3   0.689864 0.938549 0.199853 -0.905099
C70   C     C_3   0.404033 0.071160 0.653373 -0.400960
C71   C     C_3   0.356051 0.007520 0.717361 -0.356431
C72   C     C_3   0.320138 0.051387 0.802057 -0.892906
C73   C     C_3   0.422463 0.071446 0.355640 -0.402326
C74   C     C_3   0.390410 0.007963 0.291249 -0.355000
C75   C     C_3   0.338640 0.053546 0.225747 -0.890848
C76   C     C_3   0.582585 0.926245 0.641394 -0.399055
C77   C     C_3   0.613989 0.988872 0.706901 -0.352051
C78   C     C_1   0.501786 0.248505 0.499709 -0.210040
C79   C     C_3   0.673714 0.944014 0.766291 -0.893229
C80   C     C_3   0.682527 0.066899 0.488753 -0.396872
C81   C     C_3   0.760438 0.002107 0.489891 -0.357616
C82   C     C_3   0.852133 0.045544 0.472600 -0.900299
C83   C     C_3   0.321499 0.931924 0.509529 -0.401507
C84   C     C_3   0.243459 0.996643 0.509265 -0.355189
C85   C     C_3   0.151960 0.952589 0.524978 -0.902973
C86   C     C_3   0.954963 0.466936 0.329329 -0.951880
C87   C     C_3   0.042772 0.528575 0.671463 -0.948879
C88   C     C_3   0.415073 0.973557 0.503721 0.076512
H1    H     H_    0.385301 0.581470 0.099668 0.151483
H2    H     H_    0.134460 0.729615 0.246125 0.262587
H3    H     H_    0.858706 0.095267 0.522169 0.264022
H4    H     H_    0.907317 0.997599 0.474997 0.254469
H5    H     H_    0.756640 0.970971 0.553839 0.231462
H6    H     H_    0.756507 0.952123 0.440264 0.224025
H7    H     H_    0.692427 0.105269 0.428754 0.198068
H8    H     H_    0.683360 0.112080 0.543457 0.193836
H9    H     H_    0.145897 0.904183 0.474009 0.263128
H10   H     H_    0.144248 0.920973 0.589027 0.260484
H11   H     H_    0.096536 0.000463 0.523672 0.254069
H12   H     H_    0.246841 0.045463 0.560150 0.223810
H13   H     H_    0.031435 0.792751 0.256524 0.251615
H14   H     H_    0.247664 0.029348 0.446080 0.230879
H15   H     H_    0.320490 0.887000 0.454633 0.195837
H16   H     H_    0.311983 0.893385 0.569361 0.195518
H17   H     H_    0.913927 0.520900 0.308877 0.239757
H18   H     H_    0.016976 0.458396 0.282866 0.245199
H19   H     H_    0.912946 0.409023 0.330063 0.236941
H20   H     H_    0.980012 0.531601 0.717673 0.245565
H21   H     H_    0.087567 0.476465 0.689832 0.234986
H22   H     H_    0.079800 0.588869 0.674113 0.240792
H23   H     H_    0.997181 0.642029 0.288598 0.228253
H24   H     H_    0.968858 0.707549 0.382905 0.234095
H25   H     H_    0.128302 0.665615 0.425829 0.195769
H26   H     H_    0.136280 0.590052 0.339072 0.198092
H27   H     H_    0.869548 0.272727 0.758308 0.263552
H28   H     H_    0.886423 0.203282 0.664720 0.258936
H29   H     H_    0.967443 0.202892 0.742004 0.250489
H30   H     H_    0.026252 0.282215 0.610646 0.228084
H31   H     H_    0.613975 0.578849 0.900576 0.153518
H32   H     H_    0.010695 0.350679 0.703755 0.226993
H33   H     H_    0.866201 0.406996 0.662377 0.202247
H34   H     H_    0.869726 0.333086 0.574358 0.194736
H35   H     H_    0.126672 0.193630 0.343703 0.261860
H36   H     H_    0.104283 0.163546 0.456168 0.261710
H37   H     H_    0.025977 0.135109 0.381426 0.255744
H38   H     H_    0.967209 0.257599 0.473084 0.228289
H39   H     H_    0.987155 0.286485 0.361142 0.226159
H40   H     H_    0.131104 0.354860 0.381424 0.202058
H41   H     H_    0.125895 0.317379 0.490207 0.194660
H42   H     H_    0.670252 0.451092 0.825256 0.223401
H43   H     H_    0.887581 0.833242 0.552092 0.261997
H44   H     H_    0.880540 0.800503 0.663929 0.262039
H45   H     H_    0.974913 0.862926 0.616889 0.255541
H46   H     H_    0.021545 0.712087 0.628840 0.225889
H47   H     H_    0.027319 0.744486 0.518061 0.230811
H48   H     H_    0.872357 0.679123 0.510924 0.195916
H49   H     H_    0.871986 0.643573 0.620068 0.203844
H50   H     H_    0.792297 0.625431 0.378384 0.272100
H51   H     H_    0.834718 0.680341 0.280239 0.251251
H52   H     H_    0.770201 0.737810 0.367527 0.244784
H53   H     H_    0.614957 0.408201 0.739631 0.238307
H54   H     H_    0.678240 0.708352 0.248195 0.204267
H55   H     H_    0.632526 0.658295 0.346176 0.240056
H56   H     H_    0.708179 0.516408 0.290773 0.222010
H57   H     H_    0.757303 0.567828 0.202038 0.193030
H58   H     H_    0.230831 0.641189 0.604810 0.276712
H59   H     H_    0.179457 0.702251 0.697127 0.242613
H60   H     H_    0.256323 0.752266 0.614949 0.243543
H61   H     H_    0.328559 0.721275 0.748039 0.197740
H62   H     H_    0.384461 0.667630 0.655417 0.230498
H63   H     H_    0.292087 0.531419 0.705370 0.223922
H64   H     H_    0.678974 0.506463 0.723937 0.253737
H65   H     H_    0.244413 0.588174 0.792100 0.193322
H66   H     H_    0.545444 0.763181 0.154150 0.234051
H67   H     H_    0.584144 0.811354 0.052354 0.240823
H68   H     H_    0.464963 0.815092 0.094616 0.248934
H69   H     H_    0.456942 0.768092 0.848856 0.231803
H70   H     H_    0.417005 0.814797 0.951707 0.241131
H71   H     H_    0.536431 0.816366 0.910983 0.245426
H72   H     H_    0.178950 0.626317 0.080655 0.259919
H73   H     H_    0.118668 0.627874 0.986320 0.263310
H74   H     H_    0.121304 0.532412 0.050341 0.250501
H75   H     H_    0.325910 0.457996 0.176516 0.222612
H76   H     H_    0.227107 0.517200 0.916550 0.219798
H77   H     H_    0.287241 0.517321 0.009112 0.218231
H78   H     H_    0.319635 0.671616 0.989313 0.208781
H79   H     H_    0.264693 0.677400 0.895754 0.202457
H80   H     H_    0.815657 0.611044 0.913188 0.260119
H81   H     H_    0.879831 0.607771 0.004894 0.263924
H82   H     H_    0.871247 0.513575 0.939976 0.250531
H83   H     H_    0.769836 0.501943 0.076426 0.218925
H84   H     H_    0.706019 0.506888 0.986819 0.218078
H85   H     H_    0.680913 0.663632 0.010060 0.208936
H86   H     H_    0.381559 0.411790 0.260716 0.239115
H87   H     H_    0.738535 0.663091 0.102030 0.204843
H88   H     H_    0.737859 0.888105 0.216479 0.265155
H89   H     H_    0.635252 0.909012 0.167675 0.264405
H90   H     H_    0.727009 0.983756 0.154187 0.252376
H91   H     H_    0.601877 0.035947 0.262264 0.224425
H92   H     H_    0.705204 0.018104 0.309118 0.228481
H93   H     H_    0.650540 0.879506 0.368808 0.195299
H94   H     H_    0.551121 0.886551 0.315375 0.197274
H95   H     H_    0.376921 0.078507 0.833123 0.259531
H96   H     H_    0.271581 0.103200 0.790311 0.262606
H97   H     H_    0.320415 0.512945 0.278114 0.253004
H98   H     H_    0.284601 0.004266 0.846654 0.250203
H99   H     H_    0.297992 0.978920 0.689852 0.228210
H100  H     H_    0.403052 0.955463 0.731387 0.224371
H101  H     H_    0.453893 0.108348 0.685169 0.198695
H102  H     H_    0.353489 0.117253 0.633092 0.193477
H103  H     H_    0.277150 0.085762 0.258909 0.259531
H104  H     H_    0.382398 0.101549 0.189578 0.262829
H105  H     H_    0.317369 0.006440 0.179174 0.250529
H106  H     H_    0.449405 0.974281 0.255735 0.229024
H107  H     H_    0.345443 0.959840 0.325257 0.226145
H108  H     H_    0.104933 0.796432 0.340393 0.258469
H109  H     H_    0.364862 0.112366 0.383561 0.200639
H110  H     H_    0.473617 0.114222 0.321215 0.192331
H111  H     H_    0.636777 0.890424 0.800231 0.262777
H112  H     H_    0.736562 0.919022 0.728455 0.259864
H113  H     H_    0.692828 0.989872 0.815074 0.251155
H114  H     H_    0.653033 0.041425 0.673601 0.224821
H115  H     H_    0.554351 0.016929 0.747030 0.227834
H116  H     H_    0.532613 0.881961 0.675219 0.189651
H117  H     H_    0.640548 0.886478 0.612183 0.202480
H118  H     H_    0.859729 0.075361 0.407682 0.259677
N1    N     N_1   0.731990 0.500000 0.499970 -0.086510
N2    N     N_1   0.268010 0.500000 0.500030 -0.091378
O1    O     O_R   0.425540 0.623220 0.500000 -0.600783
O2    O     O_R   0.574460 0.376780 0.500000 -0.603703
O3    O     O_R   0.574480 0.623220 0.499990 -0.605722
O4    O     O_R   0.425520 0.376780 0.500010 -0.603459
O5    O     O_R   0.416730 0.500010 0.615810 -0.604732
O6    O     O_R   0.583270 0.499990 0.384190 -0.606182
O7    O     O_R   0.565670 0.500010 0.615790 -0.582225
O8    O     O_R   0.434330 0.499990 0.384210 -0.582160
Zn1   Zn    Zn3+2 0.400550 0.500000 0.500010 0.938712
Zn2   Zn    Zn3+2 0.599450 0.500000 0.499990 0.940161

loop_
_geom_bond_atom_site_label_1
_geom_bond_atom_site_label_2
_ccdc_geom_bond_type
C66   C68   S    
C49   H46   S    
C74   H106  S    
C34   C56   S    
C8    C13   S    
C23   C45   S    
C27   C29   A    
C61   H76   S    
C84   H14   S    
C41   C42   S    
C14   C18   S    
C75   H103  S    
C86   H19   S    
C71   H100  S    
C5    C67   T    
C77   H114  S    
C54   H65   S    
C81   C82   S    
C87   H22   S    
C51   H56   S    
C27   C33   S    
C26   H1    S    
C7    C11   S    
C65   H80   S    
C83   H15   S    
C48   H49   S    
C35   C58   S    
C24   C26   A    
C15   C19   S    
C10   C15   S    
C2    C80   S    
C38   C39   S    
C38   H26   S    
C59   H70   S    
C56   C88   S    
C62   H73   S    
C1    O3    A    
O4    Zn1   S    
C51   H57   S    
C53   H52   S    
C77   H115  S    
C82   H4    S    
C73   C74   S    
C41   H33   S    
C9    C13   S    
C85   H10   S    
C58   H66   S    
C69   H89   S    
C40   H13   S    
C54   C55   S    
C59   H71   S    
C83   H16   S    
C37   H97   S    
C87   H20   S    
C28   C35   S    
C68   C69   S    
C79   H113  S    
C22   C25   A    
C12   C78   S    
C63   H85   S    
C70   C71   S    
C69   H88   S    
C80   H8    S    
C17   O8    A    
C48   H48   S    
C37   H75   S    
C43   H27   S    
C2    C34   S    
C39   H23   S    
C83   C88   S    
C66   H94   S    
C1    C67   S    
C8    C41   S    
C33   C59   S    
C50   H44   S    
C57   H58   S    
C4    C56   S    
C58   H67   S    
C11   C48   S    
C86   H18   S    
C23   C73   S    
C25   H31   S    
C44   C46   S    
C47   H37   S    
C76   C77   S    
C77   C79   S    
C2    C45   S    
C21   C32   A    
C10   C87   S    
C60   H79   S    
C79   H111  S    
C74   C75   S    
C55   H61   S    
C1    O1    A    
C51   C52   S    
C52   H55   S    
C69   H90   S    
C46   H39   S    
C85   H9    S    
O8    Zn1   S    
C12   O4    A    
C4    C6    S    
O6    Zn2   S    
O7    Zn2   S    
C39   C40   S    
C38   H25   S    
O5    Zn1   S    
C42   H30   S    
C3    C34   S    
C44   H41   S    
C68   H92   S    
C3    C45   S    
C52   H54   S    
C82   H3    S    
C53   H50   S    
C65   H81   S    
C18   N1    T    
C84   H12   S    
C41   H34   S    
C64   H84   S    
C16   O7    A    
C2    C4    S    
C36   H53   S    
C32   C51   S    
C55   C57   S    
C85   H11   S    
C36   H42   S    
C43   H28   S    
C81   H5    S    
C47   H35   S    
C83   C84   S    
C29   C60   S    
C16   C20   S    
C72   H98   S    
C73   H110  S    
C50   H43   S    
C24   C37   S    
C9    C14   S    
C9    C86   S    
C52   C53   S    
C84   C85   S    
C80   H7    S    
C72   H96   S    
C54   H63   S    
C58   H68   S    
C43   H29   S    
C75   H105  S    
C39   H24   S    
C66   H93   S    
C20   C22   A    
C56   C70   S    
C23   C88   S    
C13   C15   S    
C19   N2    T    
C62   H72   S    
C57   H60   S    
C86   H17   S    
C42   C43   S    
C17   O6    A    
C82   H118  S    
C76   H117  S    
C70   H102  S    
C55   H62   S    
C40   H108  S    
N2    Zn1   S    
C7    C9    S    
O3    Zn2   S    
C46   C47   S    
C44   H40   S    
N1    Zn2   S    
C8    C14   S    
C79   H112  S    
C3    C88   S    
C53   H51   S    
C46   H38   S    
C36   H64   S    
C72   H95   S    
C71   H99   S    
C80   C81   S    
C3    C5    S    
C50   H45   S    
O2    Zn2   S    
C76   H116  S    
C63   H87   S    
C74   H107  S    
C87   H21   S    
C25   C27   A    
C22   C36   S    
C68   H91   S    
C26   C28   A    
C37   H86   S    
C65   H82   S    
O1    Zn1   S    
C64   C65   S    
C64   H83   S    
C57   H59   S    
C75   H104  S    
C12   O2    A    
C71   C72   S    
C29   C31   A    
C30   C32   A    
C81   H6    S    
C59   H69   S    
C33   C35   D    
C42   H32   S    
C47   H36   S    
C62   H74   S    
C16   O5    A    
C48   C49   S    
C7    C15   S    
C11   C14   S    
C7    C38   S    
C28   C30   A    
C61   H77   S    
C31   C54   S    
C49   H47   S    
C61   C62   S    
C60   H78   S    
C6    C78   T    
C10   C11   S    
C63   C64   S    
C8    C10   S    
C49   C50   S    
C21   C24   A    
C45   C66   S    
C60   C61   S    
C73   H109  S    
C40   H2    S    
C4    C23   S    
C30   C63   S    
C13   C44   S    
C70   H101  S    
C34   C76   S    
C20   C31   A    
C17   C21   S    
