data_mof_unit_32725.cif
_audit_creation_date              2012-10-26T17:11:29-0400
_audit_creation_method            fapswitch 2.2
_symmetry_space_group_name_H-M    P1
_symmetry_Int_Tables_number       1
_space_group_crystal_system       monoclinic
_cell_length_a                    28.113066
_cell_length_b                    18.707527
_cell_length_c                    16.944834
_cell_angle_alpha                 90.0
_cell_angle_beta                  61.84125
_cell_angle_gamma                 90.0
_cell_volume                      7856.96629037

loop_
_atom_site_label
_atom_site_type_symbol
_atom_type_description
_atom_site_fract_x
_atom_site_fract_y
_atom_site_fract_z
_atom_type_partial_charge
C1    C     C_R   0.297353 0.732862 0.328952 0.828340
C2    C     C_R   0.705451 0.273664 0.669753 0.831443
C3    C     C_R   0.702647 0.732862 0.671048 0.828337
C4    C     C_R   0.294548 0.273664 0.330247 0.831442
C5    C     C_R   0.797353 0.232862 0.328952 0.828340
C6    C     C_R   0.205451 0.773664 0.669753 0.831442
C7    C     C_R   0.202647 0.232862 0.671048 0.828340
C8    C     C_R   0.794549 0.773663 0.330247 0.831442
C9    C     C_R   0.410409 0.000014 0.465249 0.064815
C10   C     C_R   0.589591 0.000014 0.534751 0.064815
C11   C     C_R   0.910409 0.500014 0.465249 0.064815
C12   C     C_R   0.089591 0.500014 0.534751 0.064815
C13   C     C_R   0.582826 0.871023 0.547829 -0.247061
C14   C     C_R   0.417123 0.129014 0.452319 -0.251106
C15   C     C_R   0.417174 0.871023 0.452171 -0.247060
C16   C     C_R   0.582877 0.129014 0.547681 -0.251106
C17   C     C_R   0.082826 0.371023 0.547829 -0.247061
C18   C     C_R   0.917123 0.629014 0.452319 -0.251106
C19   C     C_R   0.917174 0.371023 0.452171 -0.247060
C20   C     C_R   0.082877 0.629014 0.547681 -0.251106
C21   C     C_R   0.221347 0.773100 0.953053 -0.247581
C22   C     C_R   0.778560 0.235052 0.049875 -0.247825
C23   C     C_R   0.778653 0.773099 0.046947 -0.247581
C24   C     C_R   0.221440 0.235052 0.950125 -0.247824
C25   C     C_R   0.721348 0.273100 0.953052 -0.247581
C26   C     C_R   0.278559 0.735051 0.049875 -0.247826
C27   C     C_R   0.278652 0.273100 0.046947 -0.247581
C28   C     C_R   0.721441 0.735050 0.950124 -0.247825
C29   C     C_R   0.265848 0.725255 0.916953 0.353785
C30   C     C_R   0.728761 0.272793 0.091215 0.353294
C31   C     C_R   0.734153 0.725254 0.083046 0.353784
C32   C     C_R   0.271239 0.272793 0.908785 0.353294
C33   C     C_R   0.765848 0.225256 0.916953 0.353785
C34   C     C_R   0.228761 0.772792 0.091215 0.353295
C35   C     C_R   0.234152 0.225256 0.083047 0.353785
C36   C     C_R   0.771240 0.772791 0.908784 0.353294
C37   C     C_R   0.298909 0.717992 0.957762 0.345234
C38   C     C_R   0.707204 0.302183 0.038821 0.352378
C39   C     C_R   0.701092 0.717991 0.042237 0.345234
C40   C     C_R   0.292796 0.302183 0.961179 0.352377
C41   C     C_R   0.798909 0.217993 0.957762 0.345234
C42   C     C_R   0.207203 0.802182 0.038821 0.352378
C43   C     C_R   0.201091 0.217993 0.042238 0.345234
C44   C     C_R   0.792797 0.802181 0.961178 0.352378
C45   C     C_R   0.137487 0.819449 0.947299 -0.255621
C46   C     C_R   0.847625 0.159082 0.069672 -0.241276
C47   C     C_R   0.862513 0.819449 0.052701 -0.255621
C48   C     C_R   0.152375 0.159082 0.930328 -0.241277
C49   C     C_R   0.637488 0.319450 0.947299 -0.255621
C50   C     C_R   0.347625 0.659081 0.069672 -0.241276
C51   C     C_R   0.362512 0.319450 0.052701 -0.255622
C52   C     C_R   0.652376 0.659081 0.930327 -0.241277
C53   C     C_R   0.111734 0.843333 0.898814 -0.203308
C54   C     C_R   0.881325 0.147014 0.108533 -0.196792
C55   C     C_R   0.888266 0.843333 0.101186 -0.203309
C56   C     C_R   0.118675 0.147014 0.891467 -0.196791
C57   C     C_R   0.611734 0.343333 0.898814 -0.203309
C58   C     C_R   0.381325 0.647014 0.108533 -0.196791
C59   C     C_R   0.388266 0.343333 0.101186 -0.203308
C60   C     C_R   0.618675 0.647014 0.891466 -0.196790
C61   C     C_R   0.129943 0.819153 0.811297 0.463661
C62   C     C_R   0.870168 0.181039 0.189073 0.464417
C63   C     C_R   0.870057 0.819153 0.188703 0.463660
C64   C     C_R   0.129832 0.181039 0.810927 0.464417
C65   C     C_R   0.629943 0.319153 0.811297 0.463660
C66   C     C_R   0.370168 0.681040 0.189073 0.464417
C67   C     C_R   0.370057 0.319153 0.188703 0.463661
C68   C     C_R   0.629832 0.681040 0.810927 0.464418
C69   C     C_R   0.182054 0.790837 0.765187 -0.202816
C70   C     C_R   0.823458 0.222255 0.231576 -0.212145
C71   C     C_R   0.817946 0.790836 0.234813 -0.202817
C72   C     C_R   0.176542 0.222255 0.768424 -0.212146
C73   C     C_R   0.682054 0.290837 0.765187 -0.202816
C74   C     C_R   0.323458 0.722255 0.231576 -0.212146
C75   C     C_R   0.317945 0.290837 0.234813 -0.202816
C76   C     C_R   0.676542 0.722255 0.768424 -0.212147
C77   C     C_R   0.213239 0.783045 0.809497 -0.233113
C78   C     C_R   0.798738 0.247206 0.181872 -0.253186
C79   C     C_R   0.786761 0.783044 0.190502 -0.233113
C80   C     C_R   0.201262 0.247206 0.818128 -0.253184
C81   C     C_R   0.713240 0.283045 0.809497 -0.233113
C82   C     C_R   0.298738 0.747206 0.181872 -0.253185
C83   C     C_R   0.286760 0.283045 0.190503 -0.233113
C84   C     C_R   0.701262 0.747205 0.818128 -0.253185
C85   C     C_R   0.196614 0.631671 0.526926 0.798602
C86   C     C_R   0.803392 0.368335 0.473062 0.780030
C87   C     C_R   0.803386 0.631671 0.473074 0.798602
C88   C     C_R   0.196608 0.368335 0.526938 0.780029
C89   C     C_R   0.696614 0.131671 0.526926 0.798602
C90   C     C_R   0.303392 0.868335 0.473062 0.780030
C91   C     C_R   0.303386 0.131672 0.473074 0.798602
C92   C     C_R   0.696608 0.868335 0.526938 0.780029
C93   C     C_R   0.190214 0.791291 0.903104 0.162955
C94   C     C_R   0.808858 0.214294 0.100503 0.163448
C95   C     C_R   0.809786 0.791290 0.096895 0.162955
C96   C     C_R   0.191142 0.214294 0.899497 0.163449
C97   C     C_R   0.690215 0.291291 0.903104 0.162955
C98   C     C_R   0.308858 0.714293 0.100503 0.163448
C99   C     C_R   0.309785 0.291291 0.096896 0.162955
C100  C     C_R   0.691143 0.714293 0.899496 0.163448
C101  C     C_R   0.929495 0.899517 0.064338 0.795432
C102  C     C_R   0.074293 0.095567 0.932062 0.812366
C103  C     C_R   0.070505 0.899517 0.935662 0.795433
C104  C     C_R   0.925707 0.095567 0.067937 0.812366
C105  C     C_R   0.429495 0.399517 0.064338 0.795432
C106  C     C_R   0.574293 0.595567 0.932062 0.812370
C107  C     C_R   0.570505 0.399517 0.935662 0.795432
C108  C     C_R   0.425707 0.595567 0.067937 0.812367
C109  C     C_R   0.041318 0.629527 0.524564 0.088765
C110  C     C_R   0.958728 0.370511 0.475312 0.089562
C111  C     C_R   0.958681 0.629527 0.475436 0.088765
C112  C     C_R   0.041272 0.370511 0.524688 0.089562
C113  C     C_R   0.541318 0.129527 0.524564 0.088765
C114  C     C_R   0.458728 0.870511 0.475312 0.089562
C115  C     C_R   0.458681 0.129527 0.475436 0.088765
C116  C     C_R   0.541272 0.870511 0.524688 0.089563
C117  C     C_R   0.019910 0.694296 0.513577 -0.207762
C118  C     C_R   0.980131 0.305744 0.486324 -0.194037
C119  C     C_R   0.980089 0.694296 0.486423 -0.207762
C120  C     C_R   0.019869 0.305744 0.513676 -0.194037
C121  C     C_R   0.519910 0.194296 0.513577 -0.207763
C122  C     C_R   0.480131 0.805744 0.486324 -0.194038
C123  C     C_R   0.480090 0.194296 0.486423 -0.207762
C124  C     C_R   0.519869 0.805744 0.513676 -0.194037
C125  C     C_R   0.978517 0.564688 0.489358 0.028272
C126  C     C_R   0.021470 0.435348 0.510678 0.027404
C127  C     C_R   0.021483 0.564688 0.510642 0.028272
C128  C     C_R   0.978530 0.435348 0.489322 0.027404
C129  C     C_R   0.478517 0.064688 0.489358 0.028272
C130  C     C_R   0.521470 0.935348 0.510678 0.027404
C131  C     C_R   0.521483 0.064688 0.510642 0.028272
C132  C     C_R   0.478530 0.935348 0.489322 0.027404
C133  C     C_R   0.456302 0.000017 0.479904 -0.052180
C134  C     C_R   0.543698 0.000017 0.520096 -0.052180
C135  C     C_R   0.956301 0.500017 0.479904 -0.052180
C136  C     C_R   0.043698 0.500017 0.520096 -0.052180
C137  C     C_R   0.387646 0.934298 0.458142 0.047151
C138  C     C_R   0.612376 0.065727 0.541792 0.046740
C139  C     C_R   0.612354 0.934298 0.541858 0.047151
C140  C     C_R   0.387624 0.065727 0.458208 0.046740
C141  C     C_R   0.887646 0.434298 0.458142 0.047151
C142  C     C_R   0.112376 0.565728 0.541792 0.046740
C143  C     C_R   0.112354 0.434298 0.541858 0.047151
C144  C     C_R   0.887624 0.565728 0.458208 0.046740
C145  C     C_R   0.336252 0.934504 0.459030 -0.109691
C146  C     C_R   0.663758 0.065508 0.540941 -0.114900
C147  C     C_R   0.663748 0.934504 0.540970 -0.109692
C148  C     C_R   0.336241 0.065508 0.459059 -0.114900
C149  C     C_R   0.836252 0.434504 0.459030 -0.109691
C150  C     C_R   0.163758 0.565508 0.540941 -0.114900
C151  C     C_R   0.163748 0.434504 0.540970 -0.109691
C152  C     C_R   0.836241 0.565508 0.459059 -0.114900
C153  C     C_R   0.312267 0.000004 0.458535 -0.278610
C154  C     C_R   0.687732 0.000004 0.541464 -0.278610
C155  C     C_R   0.812268 0.500004 0.458535 -0.278610
C156  C     C_R   0.187733 0.500004 0.541464 -0.278611
Cu1   Cu    Cu3+1 0.209920 0.785290 0.495070 0.975796
Cu2   Cu    Cu3+1 0.790080 0.214710 0.504930 0.979092
Cu3   Cu    Cu3+1 0.790080 0.785290 0.504930 0.975796
Cu4   Cu    Cu3+1 0.209920 0.214710 0.495070 0.979091
Cu5   Cu    Cu3+1 0.709920 0.285290 0.495070 0.975796
Cu6   Cu    Cu3+1 0.290080 0.714710 0.504930 0.979092
Cu7   Cu    Cu3+1 0.290080 0.285290 0.504930 0.975796
Cu8   Cu    Cu3+1 0.709920 0.714710 0.495070 0.979091
Cu9   Cu    Cu3+1 0.495240 0.500000 0.924150 1.022492
Cu10  Cu    Cu3+1 0.504760 0.500000 0.075850 1.022492
Cu11  Cu    Cu3+1 0.995240 0.000000 0.924150 1.022491
Cu12  Cu    Cu3+1 0.004760 1.000000 0.075850 1.022492
H1    H     H_    0.535006 0.755095 0.523568 0.146689
H2    H     H_    0.464912 0.244946 0.476623 0.147456
H3    H     H_    0.464994 0.755095 0.476432 0.146689
H4    H     H_    0.535088 0.244946 0.523377 0.147456
H5    H     H_    0.035006 0.255095 0.523568 0.146689
H6    H     H_    0.964912 0.744946 0.476623 0.147456
H7    H     H_    0.964994 0.255095 0.476432 0.146689
H8    H     H_    0.035088 0.744946 0.523377 0.147456
H9    H     H_    0.272844 0.000001 0.461805 0.194696
H10   H     H_    0.727155 0.000001 0.538195 0.194696
H11   H     H_    0.772845 0.500001 0.461805 0.194696
H12   H     H_    0.227155 0.500001 0.538195 0.194696
H13   H     H_    0.589906 0.821219 0.572238 0.175677
H14   H     H_    0.410057 0.178826 0.427915 0.177964
H15   H     H_    0.410094 0.821219 0.427762 0.175677
H16   H     H_    0.589943 0.178826 0.572085 0.177964
H17   H     H_    0.089906 0.321219 0.572238 0.175677
H18   H     H_    0.910057 0.678826 0.427915 0.177964
H19   H     H_    0.910094 0.321219 0.427762 0.175677
H20   H     H_    0.089943 0.678826 0.572085 0.177964
H21   H     H_    0.115938 0.825348 0.018843 0.228106
H22   H     H_    0.851865 0.124113 0.016241 0.221577
H23   H     H_    0.884062 0.825347 0.981156 0.228106
H24   H     H_    0.148134 0.124113 0.983759 0.221577
H25   H     H_    0.615938 0.325348 0.018843 0.228106
H26   H     H_    0.351865 0.624113 0.016241 0.221577
H27   H     H_    0.384062 0.325348 0.981157 0.228106
H28   H     H_    0.648135 0.624112 0.983758 0.221577
H29   H     H_    0.255576 0.771674 0.769434 0.226194
H30   H     H_    0.771162 0.291134 0.209588 0.230215
H31   H     H_    0.744424 0.771673 0.230565 0.226194
H32   H     H_    0.228838 0.291134 0.790412 0.230215
H33   H     H_    0.755576 0.271674 0.769434 0.226194
H34   H     H_    0.271161 0.791134 0.209588 0.230215
H35   H     H_    0.244424 0.271674 0.230566 0.226194
H36   H     H_    0.728839 0.791133 0.790412 0.230215
O1    O     O_R   0.255040 0.869590 0.478480 -0.582059
O2    O     O_R   0.744960 0.130410 0.521520 -0.576943
O3    O     O_R   0.744960 0.869590 0.521520 -0.582058
O4    O     O_R   0.255040 0.130410 0.478480 -0.576943
O5    O     O_R   0.755040 0.369590 0.478480 -0.582059
O6    O     O_R   0.244960 0.630410 0.521520 -0.576943
O7    O     O_R   0.244960 0.369590 0.521520 -0.582059
O8    O     O_R   0.755040 0.630410 0.478480 -0.576943
O9    O     O_R   0.182050 0.796550 0.624440 -0.528397
O10   O     O_R   0.817950 0.203450 0.375560 -0.529275
O11   O     O_R   0.817950 0.796550 0.375560 -0.528397
O12   O     O_R   0.182050 0.203450 0.624440 -0.529275
O13   O     O_R   0.682050 0.296550 0.624440 -0.528397
O14   O     O_R   0.317950 0.703450 0.375560 -0.529275
O15   O     O_R   0.317950 0.296550 0.375560 -0.528397
O16   O     O_R   0.682050 0.703450 0.624440 -0.529276
O17   O     O_R   0.250530 0.763330 0.367210 -0.588294
O18   O     O_R   0.749470 0.236670 0.632790 -0.589912
O19   O     O_R   0.749470 0.763330 0.632790 -0.588293
O20   O     O_R   0.250530 0.236670 0.367210 -0.589912
O21   O     O_R   0.750530 0.263330 0.367210 -0.588294
O22   O     O_R   0.249470 0.736670 0.632790 -0.589912
O23   O     O_R   0.249470 0.263330 0.632790 -0.588293
O24   O     O_R   0.750530 0.736670 0.367210 -0.589912
O25   O     O_R   0.177260 0.690030 0.513710 -0.601060
O26   O     O_R   0.822740 0.309970 0.486290 -0.604286
O27   O     O_R   0.822740 0.690030 0.486290 -0.601060
O28   O     O_R   0.177260 0.309970 0.513710 -0.604286
O29   O     O_R   0.677260 0.190030 0.513710 -0.601060
O30   O     O_R   0.322740 0.809970 0.486290 -0.604286
O31   O     O_R   0.322740 0.190030 0.486290 -0.601060
O32   O     O_R   0.677260 0.809970 0.513710 -0.604286
O33   O     O_R   0.051640 0.926880 0.885090 -0.528905
O34   O     O_R   0.948360 0.073120 0.114910 -0.522582
O35   O     O_R   0.948360 0.926880 0.114910 -0.528904
O36   O     O_R   0.051640 0.073120 0.885090 -0.522583
O37   O     O_R   0.551640 0.426880 0.885090 -0.528906
O38   O     O_R   0.448360 0.573120 0.114910 -0.522583
O39   O     O_R   0.448360 0.426880 0.114910 -0.528904
O40   O     O_R   0.551640 0.573120 0.885090 -0.522582
O41   O     O_R   0.940620 0.926560 0.986760 -0.593972
O42   O     O_R   0.059380 0.073440 0.013240 -0.593107
O43   O     O_R   0.059380 0.926560 0.013240 -0.593972
O44   O     O_R   0.940620 0.073440 0.986760 -0.593107
O45   O     O_R   0.440620 0.426560 0.986760 -0.593973
O46   O     O_R   0.559380 0.573440 0.013240 -0.593107
O47   O     O_R   0.559380 0.426560 0.013240 -0.593972
O48   O     O_R   0.440620 0.573440 0.986760 -0.593106
O49   O     O_3   0.170546 0.857256 0.075790 -0.548296
C157  C     C_3   0.198024 0.922478 0.043106 -0.266775
H37   H     H_    0.215338 0.926355 0.969079 0.147167
H38   H     H_    0.230206 0.929931 0.063030 0.149221
H39   H     H_    0.168758 0.966916 0.072890 0.196874
O50   O     O_3   0.850082 0.190690 0.906267 -0.549913
C158  C     C_3   0.886366 0.248415 0.871336 -0.270368
H40   H     H_    0.887195 0.280980 0.925670 0.141558
H41   H     H_    0.876474 0.282682 0.827328 0.164125
H42   H     H_    0.927542 0.226730 0.829918 0.179242
O51   O     O_3   0.829454 0.857255 0.924209 -0.548295
C159  C     C_3   0.801976 0.922477 0.956893 -0.266776
H43   H     H_    0.784662 0.926354 0.030920 0.147167
H44   H     H_    0.769795 0.929930 0.936969 0.149222
H45   H     H_    0.831242 0.966915 0.927109 0.196874
O52   O     O_3   0.149918 0.190690 0.093733 -0.549912
C160  C     C_3   0.113634 0.248415 0.128664 -0.270369
H46   H     H_    0.112805 0.280980 0.074330 0.141559
H47   H     H_    0.123526 0.282682 0.172672 0.164126
H48   H     H_    0.072458 0.226730 0.170082 0.179243
O53   O     O_3   0.670547 0.357257 0.075789 -0.548296
C161  C     C_3   0.698025 0.422479 0.043105 -0.266775
H49   H     H_    0.715338 0.426356 0.969079 0.147167
H50   H     H_    0.730206 0.429932 0.063029 0.149221
H51   H     H_    0.668759 0.466917 0.072889 0.196875
O54   O     O_3   0.350081 0.690690 0.906267 -0.549913
C162  C     C_3   0.386366 0.748414 0.871336 -0.270368
H52   H     H_    0.387195 0.780980 0.925670 0.141559
H53   H     H_    0.376473 0.782682 0.827328 0.164125
H54   H     H_    0.427542 0.726730 0.829918 0.179243
O55   O     O_3   0.329453 0.357257 0.924210 -0.548296
C163  C     C_3   0.301975 0.422479 0.956894 -0.266774
H55   H     H_    0.284662 0.426356 0.030921 0.147167
H56   H     H_    0.269794 0.429932 0.936971 0.149221
H57   H     H_    0.331241 0.466917 0.927110 0.196874
O56   O     O_3   0.649919 0.690688 0.093732 -0.549913
C164  C     C_3   0.613635 0.748412 0.128664 -0.270366
H58   H     H_    0.612806 0.780978 0.074331 0.141558
H59   H     H_    0.623527 0.782679 0.172672 0.164126
H60   H     H_    0.572459 0.726728 0.170081 0.179243
O57   O     O_3   0.279853 0.687098 0.839325 -0.548477
C165  C     C_3   0.252489 0.621064 0.862745 -0.267737
H61   H     H_    0.207933 0.628721 0.897448 0.139854
H62   H     H_    0.264987 0.588605 0.904935 0.154269
H63   H     H_    0.263178 0.590440 0.800548 0.190050
O58   O     O_3   0.700894 0.284875 0.182276 -0.553282
C166  C     C_3   0.667609 0.225224 0.223100 -0.257382
H64   H     H_    0.691817 0.175595 0.211981 0.148204
H65   H     H_    0.637340 0.217918 0.198909 0.155644
H66   H     H_    0.645211 0.234605 0.296377 0.193447
O59   O     O_3   0.720148 0.687097 0.160674 -0.548477
C167  C     C_3   0.747512 0.621063 0.137253 -0.267736
H67   H     H_    0.792069 0.628720 0.102551 0.139854
H68   H     H_    0.735014 0.588604 0.095064 0.154269
H69   H     H_    0.736823 0.590439 0.199451 0.190049
O60   O     O_3   0.299106 0.284876 0.817724 -0.553283
C168  C     C_3   0.332392 0.225225 0.776900 -0.257381
H70   H     H_    0.308184 0.175595 0.788021 0.148202
H71   H     H_    0.362661 0.217921 0.801089 0.155646
H72   H     H_    0.354789 0.234606 0.703623 0.193447
O61   O     O_3   0.779854 0.187099 0.839324 -0.548477
C169  C     C_3   0.752489 0.121064 0.862745 -0.267737
H73   H     H_    0.707933 0.128721 0.897448 0.139854
H74   H     H_    0.764988 0.088606 0.904935 0.154269
H75   H     H_    0.763178 0.090441 0.800548 0.190049
O62   O     O_3   0.200894 0.784875 0.182277 -0.553283
C170  C     C_3   0.167609 0.725223 0.223101 -0.257380
H76   H     H_    0.191817 0.675594 0.211981 0.148204
H77   H     H_    0.137340 0.717917 0.198910 0.155643
H78   H     H_    0.145210 0.734604 0.296377 0.193447
O63   O     O_3   0.220146 0.187099 0.160675 -0.548477
C171  C     C_3   0.247511 0.121064 0.137255 -0.267738
H79   H     H_    0.292067 0.128721 0.102552 0.139855
H80   H     H_    0.235012 0.088606 0.095065 0.154269
H81   H     H_    0.236822 0.090440 0.199452 0.190050
O64   O     O_3   0.799107 0.784874 0.817723 -0.553282
C172  C     C_3   0.832391 0.725222 0.776899 -0.257380
H82   H     H_    0.808183 0.675593 0.788018 0.148204
H83   H     H_    0.862660 0.717916 0.801090 0.155643
H84   H     H_    0.854790 0.734604 0.703622 0.193447
O65   O     O_3   0.098903 0.828873 0.768532 -0.534318
C173  C     C_3   0.062149 0.771545 0.791769 -0.280033
H85   H     H_    0.083565 0.719351 0.770620 0.131342
H86   H     H_    0.037992 0.778250 0.756070 0.186635
H87   H     H_    0.033609 0.771160 0.864851 0.133315
O66   O     O_3   0.901983 0.168909 0.229980 -0.532395
C174  C     C_3   0.937529 0.227239 0.211014 -0.284512
H88   H     H_    0.963609 0.217223 0.242629 0.179926
H89   H     H_    0.915181 0.277885 0.239552 0.131033
H90   H     H_    0.964328 0.232986 0.137654 0.135333
O67   O     O_3   0.901097 0.828874 0.231468 -0.534317
C175  C     C_3   0.937851 0.771546 0.208232 -0.280031
H91   H     H_    0.916435 0.719352 0.229385 0.131343
H92   H     H_    0.962008 0.778252 0.243929 0.186634
H93   H     H_    0.966390 0.771158 0.135150 0.133313
O68   O     O_3   0.098018 0.168909 0.770020 -0.532395
C176  C     C_3   0.062471 0.227238 0.788986 -0.284511
H94   H     H_    0.036392 0.217223 0.757368 0.179926
H95   H     H_    0.084818 0.277885 0.760451 0.131031
H96   H     H_    0.035670 0.232983 0.862346 0.135336
O69   O     O_3   0.598903 0.328873 0.768532 -0.534318
C177  C     C_3   0.562148 0.271546 0.791770 -0.280031
H97   H     H_    0.583564 0.219350 0.770623 0.131341
H98   H     H_    0.537992 0.278250 0.756070 0.186634
H99   H     H_    0.533608 0.271162 0.864853 0.133316
O70   O     O_3   0.401983 0.668910 0.229979 -0.532395
C178  C     C_3   0.437529 0.727239 0.211013 -0.284513
H100  H     H_    0.463610 0.717224 0.242628 0.179926
H101  H     H_    0.415181 0.777885 0.239551 0.131034
H102  H     H_    0.464328 0.732986 0.137653 0.135333
O71   O     O_3   0.401097 0.328873 0.231468 -0.534317
C179  C     C_3   0.437850 0.271545 0.208232 -0.280034
H103  H     H_    0.416434 0.219351 0.229385 0.131344
H104  H     H_    0.462008 0.278251 0.243929 0.186635
H105  H     H_    0.466389 0.271157 0.135149 0.133313
O72   O     O_3   0.598016 0.668911 0.770022 -0.532395
C180  C     C_3   0.562473 0.727242 0.788983 -0.284516
H106  H     H_    0.536389 0.717225 0.757376 0.179927
H107  H     H_    0.584823 0.777885 0.760434 0.131041
H108  H     H_    0.535677 0.732998 0.862343 0.135326

loop_
_geom_bond_atom_site_label_1
_geom_bond_atom_site_label_2
_ccdc_geom_bond_type
C40   O55   S    
Cu5   O13   S    
C22   C94   S    
C87   O8    A    
C34   C42   A    
C16   C113  A    
C110  C118  A    
C91   O4    A    
O65   C173  S    
C104  O34   A    
C27   C99   S    
C23   C95   S    
C13   C139  A    
C163  H55   S    
C117  C119  A    
C101  O35   A    
Cu9   O48   S    
C30   C38   A    
C1    O17   A    
C161  H49   S    
C157  H38   S    
C109  C127  A    
C167  H69   S    
C171  H79   S    
C102  O42   A    
C111  C125  A    
C37   O54   S    
C180  H108  S    
C84   H36   S    
C143  C151  A    
C126  C136  A    
C19   C141  A    
C92   C147  S    
Cu10  O39   S    
C82   C98   A    
Cu12  O43   S    
C130  C134  A    
Cu7   O23   S    
C73   C81   A    
O72   C180  S    
C14   H14   S    
Cu12  O35   S    
C115  C123  A    
O63   C171  S    
C84   C100  A    
Cu4   Cu7   S    
Cu1   O1    S    
C127  C136  A    
C128  C135  A    
C61   O65   S    
C112  C120  A    
Cu6   O6    S    
C27   C35   A    
C169  H73   S    
C21   C29   A    
C92   O32   A    
C103  O43   A    
Cu3   O27   S    
C24   C32   A    
C5    C70   S    
C90   O1    A    
O59   C167  S    
C146  C154  A    
C4    O15   A    
C86   O26   A    
C38   O53   S    
C129  C133  A    
Cu4   O20   S    
C63   C71   A    
C160  H47   S    
C36   C44   A    
Cu9   O37   S    
O58   C166  S    
C54   C104  S    
C8    C71   S    
C48   C96   A    
C163  H57   S    
C16   C138  A    
C158  H41   S    
C16   H16   S    
Cu3   O3    S    
C106  O46   A    
C24   C96   S    
C62   O66   S    
C31   O59   S    
C156  H12   S    
C173  H87   S    
C6    O9    A    
C21   C93   S    
Cu8   O8    S    
C171  H81   S    
O68   C176  S    
C5    O21   A    
C162  H53   S    
C149  C155  A    
C118  C120  A    
C121  C123  A    
C49   C97   A    
C21   C42   A    
Cu5   O29   S    
C178  H100  S    
C125  C127  A    
C24   C43   A    
C107  O37   A    
C51   H27   S    
C78   H30   S    
Cu1   Cu6   S    
C105  O39   A    
C110  C128  A    
C15   C137  A    
C9    C133  A    
C6    C69   S    
C170  H77   S    
C176  H94   S    
C69   C77   A    
C86   O5    A    
C45   C93   A    
C44   O51   S    
C71   C79   A    
C8    O24   A    
Cu1   O25   S    
C62   C70   A    
Cu10  O46   S    
C7    O23   A    
C108  O48   A    
C1    C74   S    
C78   C94   A    
C119  H6    S    
O49   C157  S    
C9    C140  A    
C20   H20   S    
C64   O68   S    
Cu11  O44   S    
C66   C74   A    
C91   O31   A    
C49   C57   A    
C179  H103  S    
C111  C119  A    
C89   O29   A    
C33   O61   S    
C52   C60   A    
C59   C67   A    
C53   C61   A    
C179  H104  S    
C3    O16   A    
C55   C63   A    
C56   C64   A    
C1    O14   A    
C35   C43   A    
C7    O12   A    
C19   H19   S    
C167  H68   S    
C45   C53   A    
Cu1   O17   S    
C172  H83   S    
C67   O71   S    
Cu6   O22   S    
C168  H71   S    
C153  H9    S    
C50   C98   A    
Cu3   O11   S    
Cu8   O24   S    
C29   O57   S    
C7    C72   S    
C173  H85   S    
C30   O58   S    
Cu12  O34   S    
C157  H39   S    
C52   C100  A    
Cu7   O15   S    
O57   C165  S    
C25   C38   A    
Cu4   O4    S    
C66   O70   S    
C46   C94   A    
C27   C40   A    
O71   C179  S    
C164  H58   S    
C116  C130  A    
C11   C141  A    
C60   C68   A    
C2    C73   S    
C25   C97   S    
C14   C140  A    
C176  H96   S    
C13   H13   S    
C87   C152  S    
C88   C151  S    
C67   C75   A    
C122  C124  A    
C60   C106  S    
C167  H67   S    
C3    O19   A    
C22   C30   A    
C174  H89   S    
C106  O40   A    
O64   C172  S    
C68   C76   A    
C10   C138  A    
C12   C143  A    
C163  H56   S    
O50   C158  S    
C56   C102  S    
C72   C80   A    
C92   O3    A    
C125  C135  A    
C138  C146  A    
C159  H45   S    
C178  H102  S    
C161  H50   S    
C166  H66   S    
C123  H2    S    
Cu7   O31   S    
Cu11  O33   S    
C174  H90   S    
C113  C121  A    
C175  H91   S    
C171  H80   S    
C177  H97   S    
C12   C136  A    
O55   C163  S    
O54   C162  S    
C25   C33   A    
C180  H107  S    
Cu6   O14   S    
Cu8   O32   S    
C161  H51   S    
C131  C134  A    
C101  O41   A    
C76   C84   A    
O69   C177  S    
C109  C117  A    
O51   C159  S    
C59   C105  S    
C137  C145  A    
C90   C145  S    
C165  H61   S    
C19   C110  A    
C22   C41   A    
C169  H74   S    
C14   C115  A    
Cu4   O12   S    
C2    O18   A    
C164  H60   S    
C85   C150  S    
C4    C75   S    
Cu2   Cu5   S    
C63   O67   S    
C9    C137  A    
C124  H1    S    
C17   H17   S    
C104  O44   A    
C15   H15   S    
C126  C128  A    
C162  H52   S    
C112  C126  A    
C158  H42   S    
C169  H75   S    
C65   O69   S    
C83   C99   A    
C160  H46   S    
C140  C148  A    
C74   C82   A    
C155  H11   S    
C79   H31   S    
Cu2   O2    S    
C165  H63   S    
C83   H35   S    
Cu11  Cu12  S    
C81   H33   S    
C54   C62   A    
C28   C39   A    
Cu5   O5    S    
C23   C44   A    
C50   C58   A    
C130  C132  A    
C166  H64   S    
C79   C95   A    
C157  H37   S    
C11   C135  A    
C89   O2    A    
C175  H93   S    
C46   C54   A    
C85   O25   A    
C151  C156  A    
C18   C111  A    
C154  H10   S    
Cu10  O38   S    
Cu2   O10   S    
C10   C139  A    
C82   H34   S    
C68   O72   S    
C32   O60   S    
C116  C124  A    
C87   O27   A    
C57   C65   A    
C52   H28   S    
C179  H105  S    
C26   C37   A    
C39   O56   S    
C102  O36   A    
Cu10  O47   S    
C42   O49   S    
C107  O47   A    
C17   C143  A    
C33   C41   A    
C142  C150  A    
C18   C144  A    
C105  O45   A    
C50   H26   S    
C75   C83   A    
O61   C169  S    
C53   C103  S    
C5    O10   A    
C6    O22   A    
C77   C93   A    
C12   C142  A    
C58   C108  S    
C47   H23   S    
C48   H24   S    
C13   C116  A    
C170  H76   S    
Cu6   O30   S    
O52   C160  S    
C28   C36   A    
C159  H44   S    
C160  H48   S    
C29   C37   A    
C77   H29   S    
C144  C152  A    
C23   C31   A    
Cu12  O42   S    
O67   C175  S    
Cu9   Cu10  S    
C70   C78   A    
C172  H82   S    
C35   O63   S    
C8    O11   A    
C85   O6    A    
Cu2   O26   S    
C141  C149  A    
C168  H70   S    
C139  C147  A    
C81   C97   A    
Cu9   O45   S    
C4    O20   A    
C173  H86   S    
C80   H32   S    
C65   C73   A    
C90   O30   A    
C162  H54   S    
C147  C154  A    
C26   C34   A    
C174  H88   S    
C132  C133  A    
C88   O7    A    
C2    O13   A    
C152  C155  A    
C80   C96   A    
C11   C144  A    
C145  C153  A    
Cu8   O16   S    
C32   C40   A    
C170  H78   S    
Cu2   O18   S    
C150  C156  A    
O70   C178  S    
C46   H22   S    
C91   C148  S    
C58   C66   A    
Cu5   O21   S    
C51   C99   A    
C89   C146  S    
C20   C142  A    
C86   C149  S    
Cu7   O7    S    
C159  H43   S    
Cu11  O41   S    
C18   H18   S    
C36   O64   S    
O62   C170  S    
C103  O33   A    
C121  H4    S    
Cu4   O28   S    
O53   C161  S    
C15   C114  A    
C178  H101  S    
Cu9   O40   S    
C3    C76   S    
C166  H65   S    
C26   C98   S    
C117  H8    S    
C45   H21   S    
Cu11  O36   S    
C57   C107  S    
C175  H92   S    
C118  H7    S    
C122  H3    S    
C177  H98   S    
C172  H84   S    
C51   C59   A    
C158  H40   S    
C17   C112  A    
C34   O62   S    
O60   C168  S    
C47   C55   A    
C180  H106  S    
C115  C129  A    
C168  H72   S    
C61   C69   A    
C48   C56   A    
C113  C131  A    
C88   O28   A    
Cu3   Cu8   S    
C114  C132  A    
C10   C134  A    
C177  H99   S    
C108  O38   A    
C55   C101  S    
Cu1   O9    S    
O56   C164  S    
C43   O52   S    
C165  H62   S    
C28   C100  S    
C49   H25   S    
Cu3   O19   S    
C164  H59   S    
C31   C39   A    
C64   C72   A    
C41   O50   S    
C20   C109  A    
C114  C122  A    
C120  H5    S    
C176  H95   S    
O66   C174  S    
C148  C153  A    
C47   C95   A    
C129  C131  A    
