data_mof_unit_62396.cif
_audit_creation_date              2012-12-10T19:22:58-0500
_audit_creation_method            fapswitch 2.2
_symmetry_space_group_name_H-M    P1
_symmetry_Int_Tables_number       1
_space_group_crystal_system       triclinic
_cell_length_a                    11.082836
_cell_length_b                    17.726665
_cell_length_c                    16.448835
_cell_angle_alpha                 89.982962
_cell_angle_beta                  102.791274
_cell_angle_gamma                 90.189204
_cell_volume                      3151.35142691

loop_
_atom_site_label
_atom_site_type_symbol
_atom_type_description
_atom_site_fract_x
_atom_site_fract_y
_atom_site_fract_z
_atom_type_partial_charge
C1    C     C_R   0.499828 0.355215 0.500000 0.798918
C2    C     C_R   0.500172 0.644785 0.500000 0.798919
C3    C     C_R   0.500381 0.885596 0.500055 0.136745
C4    C     C_R   0.499619 0.114404 0.499945 0.136745
C5    C     C_1   0.500123 0.966176 0.500019 -0.045360
C6    C     C_1   0.499877 0.033824 0.499981 -0.045360
C7    C     C_R   0.580824 0.548124 0.840432 0.185101
C8    C     C_R   0.419175 0.451876 0.159568 0.185101
C9    C     C_R   0.578569 0.546734 0.754248 0.065138
C10   C     C_R   0.421430 0.453266 0.245752 0.065138
C11   C     C_R   0.421893 0.453550 0.731766 0.073620
C12   C     C_R   0.578108 0.546449 0.268234 0.073620
C13   C     C_R   0.421020 0.453059 0.817398 -0.276838
C14   C     C_R   0.578980 0.546940 0.182602 -0.276838
C15   C     C_R   0.500980 0.500627 0.873207 0.056106
C16   C     C_R   0.499019 0.499373 0.126793 0.056106
C17   C     C_1   0.500235 0.500155 0.962762 0.084106
C18   C     C_1   0.499765 0.499845 0.037238 0.084106
C19   C     C_R   0.262378 0.499970 0.466371 0.756350
C20   C     C_R   0.737622 0.500030 0.533629 0.756349
C21   C     C_2   0.127730 0.499995 0.446732 0.429127
C22   C     C_2   0.872270 0.500005 0.553267 0.429127
C23   C     C_2   0.067285 0.499921 0.508636 -0.220135
C24   C     C_2   0.932715 0.500079 0.491364 -0.220135
C25   C     C_R   0.500531 0.846361 0.573774 -0.138935
C26   C     C_R   0.499469 0.153639 0.426226 -0.138935
C27   C     C_R   0.500557 0.767719 0.573872 -0.172296
C28   C     C_R   0.499443 0.232280 0.426128 -0.172296
C29   C     C_R   0.500394 0.727734 0.500041 -0.045167
C30   C     C_R   0.499606 0.272266 0.499959 -0.045166
C31   C     C_R   0.500415 0.767772 0.426248 -0.177649
C32   C     C_R   0.499585 0.232228 0.573752 -0.177649
C33   C     C_R   0.500387 0.846413 0.426353 -0.141549
C34   C     C_R   0.499613 0.153587 0.573647 -0.141549
Cu1   Cu    Cu3+1 0.499990 0.499980 0.580420 0.973983
Cu2   Cu    Cu3+1 0.500010 0.500020 0.419580 0.973983
H1    H     H_    0.882058 0.500247 0.426692 0.199595
H2    H     H_    0.117942 0.499753 0.573307 0.199595
H3    H     H_    0.358109 0.415634 0.839836 0.183166
H4    H     H_    0.641891 0.584365 0.160164 0.183166
H5    H     H_    0.500573 0.876532 0.631068 0.144496
H6    H     H_    0.499427 0.123468 0.368932 0.144496
H7    H     H_    0.500660 0.738333 0.631626 0.164399
H8    H     H_    0.499341 0.261667 0.368374 0.164399
H9    H     H_    0.500398 0.738427 0.368502 0.159332
H10   H     H_    0.499602 0.261573 0.631498 0.159332
H11   H     H_    0.500315 0.876624 0.369060 0.142328
H12   H     H_    0.499685 0.123376 0.630940 0.142328
H13   H     H_    0.640094 0.583386 0.729628 0.161421
H14   H     H_    0.359905 0.416615 0.270372 0.161421
H15   H     H_    0.359750 0.416512 0.689716 0.137321
H16   H     H_    0.640250 0.583488 0.310284 0.137321
N1    N     N_R   0.499970 0.499970 0.701210 -0.194570
N2    N     N_R   0.500030 0.500030 0.298790 -0.194569
O1    O     O_R   0.499990 0.391240 0.567930 -0.584251
O2    O     O_R   0.500010 0.608760 0.432070 -0.584251
O3    O     O_R   0.500000 0.391270 0.432120 -0.586312
O4    O     O_R   0.500000 0.608730 0.567880 -0.586313
O5    O     O_R   0.320680 0.500000 0.542950 -0.622587
O6    O     O_R   0.679320 0.500000 0.457050 -0.622587
O7    O     O_R   0.320690 0.500030 0.407130 -0.531562
O8    O     O_R   0.679310 0.499970 0.592870 -0.531562
F1    F     F_    0.934386 0.499854 0.634573 -0.639298
F2    F     F_    0.065614 0.500146 0.365427 -0.639298
Br1   Br    Br    0.693732 0.615375 0.910713 -0.474743
Br2   Br    Br    0.306267 0.384625 0.089287 -0.474743

loop_
_geom_bond_atom_site_label_1
_geom_bond_atom_site_label_2
_ccdc_geom_bond_type
C4    C26   A    
C23   C24   S    
C31   C33   A    
C8    Br2   S    
C19   C21   S    
Cu2   O2    S    
C1    O3    A    
Cu1   N1    S    
C23   H2    S    
C34   H12   S    
C26   C28   A    
Cu1   Cu2   S    
C11   N1    A    
C3    C5    S    
C8    C16   A    
C7    C15   A    
C17   C18   T    
C1    O1    A    
C29   C31   A    
Cu2   N2    S    
C2    O2    A    
C30   C32   A    
C11   C13   A    
C5    C6    T    
C9    N1    A    
C19   O7    A    
C2    C29   S    
C10   N2    A    
C11   H15   S    
C28   C30   A    
C1    C30   S    
C12   H16   S    
C14   H4    S    
C12   C14   A    
C24   H1    S    
Cu1   O8    S    
C14   C16   A    
C13   C15   A    
C4    C34   A    
C20   O8    A    
C2    O4    A    
C33   H11   S    
Cu1   O5    S    
C22   C24   D    
C13   H3    S    
C4    C6    S    
C7    Br1   S    
C3    C33   A    
Cu1   O1    S    
Cu2   O7    S    
C10   H14   S    
C27   H7    S    
C3    C25   A    
C9    H13   S    
C27   C29   A    
C26   H6    S    
C8    C10   A    
Cu2   O3    S    
C31   H9    S    
C25   H5    S    
C7    C9    A    
C21   F2    S    
Cu1   O4    S    
C19   O5    A    
C20   O6    A    
C15   C17   S    
C32   H10   S    
C21   C23   D    
C28   H8    S    
C16   C18   S    
C12   N2    A    
C22   F1    S    
C20   C22   S    
Cu2   O6    S    
C25   C27   A    
C32   C34   A    
