data_mof_unit_31814.cif
_audit_creation_date              2012-12-11T14:29:42-0500
_audit_creation_method            fapswitch 2.2
_symmetry_space_group_name_H-M    P1
_symmetry_Int_Tables_number       1
_space_group_crystal_system       triclinic
_cell_length_a                    6.936628
_cell_length_b                    15.029127
_cell_length_c                    16.037448
_cell_angle_alpha                 90.298468
_cell_angle_beta                  89.622109
_cell_angle_gamma                 89.666407
_cell_volume                      1671.83969603

loop_
_atom_site_label
_atom_site_type_symbol
_atom_type_description
_atom_site_fract_x
_atom_site_fract_y
_atom_site_fract_z
_atom_type_partial_charge
O1    O     O_R   0.494400 0.416610 0.413880 -0.545825
O2    O     O_R   0.823920 0.406790 0.585520 -0.492766
O3    O     O_R   0.994250 0.583390 0.586120 -0.546841
C1    C     C_R   0.655909 0.384979 0.613900 0.815113
O4    O     O_R   0.824110 0.405730 0.414490 -0.545945
O5    O     O_R   0.994440 0.582310 0.413870 -0.547072
C2    C     C_R   0.655257 0.383622 0.386366 0.725658
O6    O     O_R   0.494210 0.417690 0.586130 -0.516076
O7    O     O_3   0.660810 0.557940 0.500000 -0.393334
V1    V     V_3+5 0.935650 0.489250 0.500000 1.552019
O8    O     O_R   0.324160 0.593210 0.414480 -0.556392
C3    C     C_R   0.155397 0.614941 0.386319 0.704529
O9    O     O_R   0.323970 0.594270 0.585510 -0.542918
C4    C     C_R   0.153232 0.613066 0.616464 0.720534
V2    V     V_3+5 0.435660 0.510750 0.500000 1.493123
O10   O     O_3   0.160630 0.442060 0.500000 -0.335033
H1    H     H_    0.383498 0.891621 0.506081 0.159384
C5    C     C_R   0.933793 0.587197 0.772272 -0.101748
C6    C     C_R   0.853858 0.566920 0.849670 -0.105791
C7    C     C_R   0.875384 0.625218 0.916223 -0.129972
C8    C     C_R   0.969085 0.705893 0.904638 -0.135971
C9    C     C_R   0.044608 0.729903 0.825525 0.068137
C10   C     C_R   0.038549 0.666342 0.759436 0.051944
C11   C     C_R   0.125331 0.815256 0.811972 -0.151343
C12   C     C_R   0.207354 0.835068 0.732008 -0.009592
C13   C     C_R   0.208505 0.769054 0.667636 0.076501
C14   C     C_R   0.134580 0.683294 0.682567 -0.166872
C15   C     C_R   0.283209 0.920115 0.712748 -0.125213
C16   C     C_R   0.342890 0.940718 0.631008 0.570658
C17   C     C_R   0.338245 0.876185 0.569144 -0.197503
C18   C     C_R   0.273752 0.791707 0.586871 -0.218790
H2    H     H_    0.906235 0.541421 0.722331 0.164249
H3    H     H_    0.775512 0.505464 0.858007 0.122904
H4    H     H_    0.816543 0.608573 0.976819 0.113836
H5    H     H_    0.982098 0.748593 0.958711 0.102007
H6    H     H_    0.295588 0.970591 0.760242 0.190766
H7    H     H_    0.268531 0.745794 0.534891 0.136059
C19   C     C_2   0.985506 0.709347 0.282578 -0.123604
C20   C     C_2   0.150206 0.682678 0.319556 -0.300884
H8    H     H_    0.849682 0.680978 0.303080 0.133625
H9    H     H_    0.287627 0.710400 0.301128 0.127463
C21   C     C_2   0.973209 0.776759 0.214608 -0.133223
C22   C     C_2   0.126424 0.814641 0.177127 -0.297479
H10   H     H_    0.829195 0.795160 0.194571 0.133395
H11   H     H_    0.271594 0.796848 0.195290 0.129060
C23   C     C_2   0.759052 0.187091 0.761891 0.368203
C24   C     C_2   0.624776 0.185639 0.823413 -0.358658
H12   H     H_    0.532437 0.243239 0.833778 0.117951
C25   C     C_2   0.794770 0.269641 0.713154 0.238587
C26   C     C_2   0.644249 0.311785 0.675615 -0.402669
H13   H     H_    0.500348 0.286403 0.686780 0.236834
C27   C     C_2   0.778213 0.208421 0.213927 -0.122760
C28   C     C_2   0.613004 0.181461 0.177650 -0.296517
H14   H     H_    0.914111 0.179723 0.192743 0.138449
H15   H     H_    0.475317 0.209319 0.196786 0.128340
C29   C     C_2   0.791492 0.276587 0.281858 -0.129748
C30   C     C_2   0.638726 0.315483 0.319749 -0.286376
H16   H     H_    0.935681 0.294775 0.301393 0.140130
H17   H     H_    0.493521 0.297896 0.301936 0.134254
O11   O     O_R   0.770210 0.079270 0.910680 -0.509393
O12   O     O_R   0.440150 0.091160 0.082270 -0.554285
O13   O     O_R   0.269970 0.914530 0.082860 -0.548370
C31   C     C_R   0.608362 0.113171 0.110620 0.707114
O14   O     O_R   0.440480 0.090100 0.911240 -0.525276
O15   O     O_R   0.270310 0.913460 0.910610 -0.546850
C32   C     C_R   0.609999 0.112326 0.883912 0.849418
O16   O     O_R   0.769870 0.080340 0.082930 -0.548561
O17   O     O_3   0.603660 0.938980 0.996790 -0.383770
V3    V     V_3+5 0.328750 0.007610 0.996740 1.490957
O18   O     O_R   0.940600 0.902510 0.911180 -0.522192
C33   C     C_R   0.110709 0.884090 0.879762 0.764022
O19   O     O_R   0.940270 0.903570 0.082200 -0.551017
C34   C     C_R   0.109590 0.881912 0.110374 0.712756
V4    V     V_3+5 0.828770 0.986010 0.996670 1.511572
O20   O     O_3   0.103730 0.054750 0.996710 -0.365505
S1    S     S_3+6 0.896763 0.090369 0.736209 0.114875
O21   O     O_2   0.058490 0.082499 0.797425 -0.312823
O22   O     O_2   0.774160 0.008415 0.741494 -0.327421
O23   O     O_3   0.990073 0.097294 0.639752 -0.390740
H18   H     H_    0.904474 0.138042 0.608830 0.366146
S2    S     S_3+6 0.040353 0.303616 0.704489 0.040741
O24   O     O_2   0.117317 0.280535 0.619245 -0.268780
O25   O     O_2   0.060266 0.401705 0.718089 -0.382611
O26   O     O_3   0.175715 0.252010 0.776141 -0.455968
H19   H     H_    0.126500 0.274203 0.830560 0.319014
S3    S     S_3+6 0.421726 0.046852 0.601593 0.076208
O27   O     O_2   0.293445 0.081662 0.533790 -0.312310
O28   O     O_2   0.417857 0.110052 0.674238 -0.278907
O29   O     O_3   0.646174 0.036260 0.562849 -0.494127
H20   H     H_    0.654655 0.080296 0.517249 0.349290

loop_
_geom_bond_atom_site_label_1
_geom_bond_atom_site_label_2
_ccdc_geom_bond_type
C22   C34   S    
C6    C7    A    
S1    O23   S    
C1    O6    A    
C23   S1    S    
S2    O24   D    
C20   H9    S    
C12   C15   A    
C23   C25   S    
C13   C14   A    
C15   C16   A    
S1    O22   D    
C19   C21   S    
O5    C3    A    
C19   C20   D    
S3    O28   D    
C30   H17   S    
O17   V4    S    
V2    O10   S    
C29   C30   D    
C5    C6    A    
C25   S2    S    
O12   C31   A    
O8    V2    S    
O17   V3    S    
O18   V4    S    
O13   C34   A    
O18   C33   A    
O1    V2    S    
C10   C14   A    
C4    C14   S    
O7    V1    S    
C24   C32   S    
C7    H4    S    
O11   C32   A    
C13   C18   A    
O9    C4    A    
H1    C17   S    
C21   H10   S    
S2    O25   D    
C27   H14   S    
S1    O21   D    
C28   H15   S    
C31   O16   A    
V4    O20   S    
C5    C10   A    
C11   C12   A    
O19   V4    S    
C6    H3    S    
O4    C2    A    
S3    O27   D    
C12   C13   A    
O15   C33   A    
C18   H7    S    
O13   V3    S    
C1    C26   S    
O14   C32   A    
O2    C1    A    
C16   C17   A    
C24   H12   S    
C26   H13   S    
O16   V4    S    
O14   V3    S    
O26   H19   S    
C22   H11   S    
C16   S3    S    
O3    C4    A    
O6    V2    S    
O9    V2    S    
C9    C11   A    
C5    H2    S    
C21   C22   D    
O2    V1    S    
S2    O26   S    
C27   C28   D    
O12   V3    S    
C23   C24   D    
O1    C2    A    
O19   C34   A    
S3    O29   S    
O5    V1    S    
O8    C3    A    
C8    H5    S    
C3    C20   S    
O7    V2    S    
O4    V1    S    
O3    V1    S    
V1    O10   S    
C19   H8    S    
C28   C31   S    
C17   C18   A    
O15   V3    S    
O11   V4    S    
C29   H16   S    
V3    O20   S    
O23   H18   S    
C7    C8    A    
C15   H6    S    
C25   C26   D    
C9    C10   A    
O29   H20   S    
C8    C9    A    
C2    C30   S    
C27   C29   S    
C11   C33   S    
