data_mof_unit_63547.cif
_audit_creation_date              2013-03-05T16:13:24-0500
_audit_creation_method            fapswitch 2.2
_symmetry_space_group_name_H-M    P1
_symmetry_Int_Tables_number       1
_space_group_crystal_system       triclinic
_cell_length_a                    22.089276
_cell_length_b                    26.975036
_cell_length_c                    8.717586
_cell_angle_alpha                 90.373725
_cell_angle_beta                  103.576791
_cell_angle_gamma                 89.989266
_cell_volume                      5049.18708506

loop_
_atom_site_label
_atom_site_type_symbol
_atom_site_description
_atom_site_fract_x
_atom_site_fract_y
_atom_site_fract_z
_atom_type_partial_charge
P1    P     P_3+3 0.869190 0.445350 0.992760 0.666251
P2    P     P_3+3 0.869190 0.554650 0.492760 0.721711
P3    P     P_3+3 0.369190 0.945350 0.992760 0.659856
P4    P     P_3+3 0.369190 0.054650 0.492760 0.712766
O1    O     O_2   0.875320 0.428620 0.822840 -0.388614
O2    O     O_2   0.875320 0.571380 0.322840 -0.328112
O3    O     O_2   0.375320 0.928620 0.822840 -0.385671
O4    O     O_2   0.375320 0.071380 0.322840 -0.340865
O5    O     O_3   0.927380 0.474960 0.096800 -0.301430
O6    O     O_3   0.927380 0.525040 0.596800 -0.320554
O7    O     O_3   0.427380 0.974960 0.096800 -0.304824
O8    O     O_3   0.427380 0.025040 0.596800 -0.319678
O9    O     O_3   0.978260 0.384470 0.628120 -0.306160
O10   O     O_3   0.978260 0.615530 0.128120 -0.333116
O11   O     O_3   0.478260 0.884470 0.628120 -0.305055
O12   O     O_3   0.478260 0.115530 0.128120 -0.301188
O13   O     O_2   0.879590 0.341268 0.699745 -0.368050
O14   O     O_2   0.873499 0.648114 0.182989 -0.278508
O15   O     O_2   0.379795 0.841018 0.699676 -0.356544
O16   O     O_2   0.380637 0.160289 0.202196 -0.336525
O17   O     O_3   0.795901 0.475550 0.964383 -0.496795
O18   O     O_3   0.794932 0.526486 0.468499 -0.476451
O19   O     O_3   0.295669 0.975055 0.966063 -0.501289
O20   O     O_3   0.294926 0.026409 0.468468 -0.474511
O21   O     O_3   0.942113 0.285442 0.547971 -0.531496
O22   O     O_3   0.942590 0.717799 0.134439 -0.546450
O23   O     O_3   0.442033 0.785491 0.546157 -0.533157
O24   O     O_3   0.446662 0.215084 0.057963 -0.544711
H1    H     H_    0.983905 0.290001 0.787523 0.004485
H2    H     H_    0.021359 0.703140 0.045370 0.005832
H3    H     H_    0.483211 0.788916 0.786218 0.004493
H4    H     H_    0.487301 0.210367 0.296850 0.031629
C1    C     C_3   0.003104 0.220136 0.688770 -0.067721
C2    C     C_3   0.031245 0.771267 0.170003 0.082374
C3    C     C_3   0.502820 0.719695 0.684239 -0.060235
C4    C     C_3   0.511456 0.278807 0.198758 -0.007859
H5    H     H_    0.043750 0.212192 0.787988 0.133395
H6    H     H_    0.052308 0.753569 0.284136 0.124355
H7    H     H_    0.543271 0.711365 0.783584 0.132926
H8    H     H_    0.551108 0.285993 0.301147 0.174564
H9    H     H_    0.960930 0.202517 0.713860 0.112263
H10   H     H_    0.002674 0.803668 0.189225 0.157156
H11   H     H_    0.460507 0.701764 0.707451 0.109026
H12   H     H_    0.470102 0.299005 0.219638 0.104657
P5    P     P_3+3 0.130420 0.444720 0.696970 0.623457
P6    P     P_3+3 0.130420 0.555280 0.196970 0.624705
P7    P     P_3+3 0.630420 0.944720 0.696970 0.625063
P8    P     P_3+3 0.630420 0.055280 0.196970 0.623487
P9    P     P_3+3 0.081882 0.340988 0.113532 0.529498
P10   P     P_3+3 0.083722 0.657947 0.616332 0.558044
P11   P     P_3+3 0.581668 0.840970 0.113100 0.524496
P12   P     P_3+3 0.582588 0.158756 0.618546 0.528276
O25   O     O_2   0.124210 0.428020 0.866900 -0.348769
O26   O     O_2   0.124210 0.571980 0.366900 -0.344180
O27   O     O_2   0.624210 0.928020 0.866900 -0.348707
O28   O     O_2   0.624210 0.071980 0.366900 -0.346559
O29   O     O_3   0.021040 0.384370 0.061630 -0.351623
O30   O     O_3   0.021040 0.615630 0.561630 -0.330602
O31   O     O_3   0.521040 0.884370 0.061630 -0.348141
O32   O     O_3   0.521040 0.115630 0.561630 -0.354235
O33   O     O_2   0.128486 0.351238 0.011179 -0.338914
O34   O     O_2   0.133386 0.644517 0.526011 -0.339764
O35   O     O_2   0.628450 0.851289 0.011355 -0.343014
O36   O     O_2   0.629595 0.148443 0.516980 -0.350393
O37   O     O_3   0.202587 0.476382 0.734518 -0.589455
O38   O     O_3   0.202544 0.523673 0.234011 -0.586890
O39   O     O_3   0.702700 0.976215 0.733744 -0.587156
O40   O     O_3   0.702445 0.023489 0.234627 -0.591076
O41   O     O_3   0.055209 0.281288 0.050223 -0.569136
O42   O     O_3   0.060841 0.717006 0.541847 -0.535526
O43   O     O_3   0.555192 0.781155 0.050316 -0.583551
O44   O     O_3   0.557297 0.218842 0.558871 -0.564630
C5    C     C_3   0.020738 0.260790 0.151309 0.792256
C6    C     C_3   0.010006 0.733112 0.599628 0.811422
C7    C     C_3   0.517752 0.761949 0.146318 0.778891
C8    C     C_3   0.517828 0.237437 0.651117 0.790916
H13   H     H_    0.040278 0.271023 0.277162 0.070038
H14   H     H_    0.021444 0.729383 0.729694 0.054740
H15   H     H_    0.536997 0.770844 0.273352 0.089877
H16   H     H_    0.537532 0.230737 0.779176 0.063110
C9    C     C_3   0.023703 0.204077 0.141772 -0.175881
C10   C     C_3   0.997343 0.788091 0.561146 -0.186085
C11   C     C_3   0.516289 0.705277 0.130926 -0.166119
C12   C     C_3   0.511253 0.293763 0.628530 -0.217615
H17   H     H_    0.003712 0.191069 0.019274 0.114623
H18   H     H_    0.981241 0.792698 0.431857 0.127918
H19   H     H_    0.495328 0.694569 0.006584 0.112173
H20   H     H_    0.492411 0.302400 0.502287 0.118333
C13   C     C_3   0.197860 0.471884 0.226068 0.908046
C14   C     C_3   0.197965 0.528171 0.727939 0.920878
C15   C     C_3   0.697788 0.971707 0.225948 0.903737
C16   C     C_3   0.698257 0.028018 0.727817 0.919182
H21   H     H_    0.153385 0.459394 0.149891 0.066304
H22   H     H_    0.153385 0.540574 0.652664 0.066245
H23   H     H_    0.653242 0.959266 0.150075 0.066997
H24   H     H_    0.653641 0.040566 0.653112 0.064475
C17   C     C_3   0.248860 0.450539 0.152710 -0.892100
C18   C     C_3   0.248797 0.549377 0.654356 -0.916422
C19   C     C_3   0.748633 0.950537 0.151709 -0.879351
C20   C     C_3   0.748917 0.049247 0.653687 -0.913208
H25   H     H_    0.295175 0.465659 0.212997 0.239992
H26   H     H_    0.295055 0.533960 0.712665 0.241725
H27   H     H_    0.794960 0.965777 0.211370 0.240406
H28   H     H_    0.795259 0.033952 0.711859 0.242977
H29   H     H_    0.249853 0.409508 0.163495 0.262565
H30   H     H_    0.250370 0.590382 0.667640 0.255776
H31   H     H_    0.749838 0.909506 0.162484 0.263138
H32   H     H_    0.750327 0.090268 0.666545 0.255340
H33   H     H_    0.239632 0.459531 0.026121 0.267224
H34   H     H_    0.238938 0.540624 0.527145 0.270948
H35   H     H_    0.739073 0.959511 0.025104 0.266405
H36   H     H_    0.738971 0.040369 0.526579 0.271039
Ba1   Ba    Ba6+2 0.999850 0.464270 0.844920 1.805249
Ba2   Ba    Ba6+2 0.999850 0.535730 0.344920 1.816344
Ba3   Ba    Ba6+2 0.499850 0.964270 0.844920 1.804921
Ba4   Ba    Ba6+2 0.499850 0.035730 0.344920 1.813072
C21   C     C_3   0.799187 0.527300 0.979364 0.613936
C22   C     C_3   0.796163 0.474728 0.476728 0.594173
C23   C     C_3   0.298512 0.026849 0.978118 0.617213
C24   C     C_3   0.296163 0.974620 0.476275 0.602336
H37   H     H_    0.838924 0.538647 0.074462 0.052782
H38   H     H_    0.835531 0.461838 0.570607 0.036175
H39   H     H_    0.338362 0.038878 0.072168 0.042849
H40   H     H_    0.335624 0.961644 0.569778 0.034917
C25   C     C_3   0.738763 0.549244 0.013710 0.455773
C26   C     C_3   0.735074 0.454120 0.509937 0.436265
C27   C     C_3   0.238114 0.048791 0.012523 0.459238
C28   C     C_3   0.235153 0.953848 0.509618 0.439253
H41   H     H_    0.739193 0.590053 0.992997 0.044241
H42   H     H_    0.734240 0.413302 0.487692 0.051233
H43   H     H_    0.238242 0.089517 0.990139 0.033500
H44   H     H_    0.234371 0.913064 0.486823 0.046436
O45   O     O_3   0.072510 0.524860 0.092920 -0.323639
O46   O     O_3   0.072510 0.475140 0.592920 -0.327947
O47   O     O_3   0.572510 0.024860 0.092920 -0.324271
O48   O     O_3   0.572510 0.975140 0.592920 -0.326938
P13   P     P_3+3 0.916275 0.657745 0.070238 0.589465
P14   P     P_3+3 0.913406 0.345479 0.563666 0.592725
P15   P     P_3+3 0.414890 0.155801 0.066844 0.606541
P16   P     P_3+3 0.413425 0.845470 0.563429 0.593542
C29   C     C_3   0.993214 0.276164 0.674658 1.025855
C30   C     C_3   0.990039 0.733765 0.062627 0.872379
C31   C     C_3   0.492879 0.775748 0.673008 1.018888
C32   C     C_3   0.498032 0.223039 0.184995 0.896355
H45   H     H_    0.995073 0.187891 0.218247 0.145362
H46   H     H_    0.959195 0.801506 0.614249 0.142353
H47   H     H_    0.486564 0.689402 0.205081 0.135816
H48   H     H_    0.477206 0.308008 0.693913 0.124073
C33   C     C_2   0.892197 0.374851 0.246626 0.075927
C34   C     C_2   0.894619 0.625087 0.749880 -0.027484
C35   C     C_2   0.392629 0.875341 0.247605 0.081879
C36   C     C_2   0.394068 0.124034 0.751594 0.011207
C37   C     C_3   0.859766 0.360685 0.366037 0.001289
C38   C     C_3   0.864803 0.648574 0.862011 -0.007759
C39   C     C_3   0.359847 0.861006 0.366185 -0.011433
C40   C     C_3   0.361605 0.144370 0.863708 0.002750
C41   C     C_2   0.814200 0.322780 0.308585 0.112439
C42   C     C_2   0.829675 0.691189 0.795410 0.164129
C43   C     C_2   0.314157 0.823189 0.307730 0.168117
C44   C     C_2   0.327584 0.188022 0.798097 0.220403
C45   C     C_2   0.790056 0.317107 0.143268 -0.210250
C46   C     C_2   0.804434 0.692767 0.628961 -0.412321
C47   C     C_2   0.291123 0.817076 0.142151 -0.331541
C48   C     C_2   0.304434 0.191618 0.631119 -0.412843
C49   C     C_2   0.811967 0.348900 0.036428 0.459898
C50   C     C_2   0.818500 0.652517 0.531379 0.411736
C51   C     C_2   0.314151 0.848332 0.036014 0.410375
C52   C     C_2   0.319630 0.152445 0.531900 0.429885
C53   C     C_1   0.858287 0.385188 0.093916 0.060056
C54   C     C_1   0.861366 0.615425 0.596260 0.243674
C55   C     C_1   0.359257 0.885226 0.094313 0.106659
C56   C     C_1   0.361794 0.115014 0.596802 0.213058
C57   C     C_R   0.165242 0.695538 0.897043 -0.208336
C58   C     C_R   0.164177 0.304395 0.390360 -0.204453
C59   C     C_R   0.668368 0.193824 0.896104 -0.316931
C60   C     C_R   0.662825 0.804311 0.389434 -0.183981
C61   C     C_R   0.123465 0.655581 0.827539 0.020321
C62   C     C_R   0.125242 0.345638 0.321115 0.028517
C63   C     C_R   0.625894 0.154192 0.826434 0.074463
C64   C     C_R   0.624604 0.845773 0.320460 0.027830
C65   C     C_R   0.140463 0.613627 0.085862 0.195475
C66   C     C_R   0.139940 0.386440 0.582701 0.238762
C67   C     C_R   0.641321 0.113009 0.085290 0.237740
C68   C     C_R   0.639481 0.886504 0.582123 0.240700
C69   C     C_R   0.178431 0.651643 0.155135 0.276151
C70   C     C_R   0.177306 0.348172 0.650372 0.292484
C71   C     C_R   0.680169 0.150479 0.154489 0.325493
C72   C     C_R   0.676179 0.847915 0.649704 0.291697
C73   C     C_R   0.192725 0.695062 0.058392 -0.007652
C74   C     C_R   0.190140 0.304396 0.551668 -0.017897
C75   C     C_R   0.694566 0.193820 0.058046 -0.021950
C76   C     C_R   0.688626 0.804122 0.550603 -0.024166
C77   C     C_2   0.737284 0.281822 0.082660 0.723338
C78   C     C_2   0.769257 0.738224 0.556389 0.565500
C79   C     C_2   0.238508 0.781483 0.078542 0.687430
C80   C     C_2   0.270709 0.238031 0.560272 0.568048
C81   C     C_2   0.241781 0.733171 0.123596 -0.200660
C82   C     C_2   0.225009 0.259103 0.619880 -0.102003
C83   C     C_2   0.741831 0.232971 0.124924 -0.349572
C84   C     C_2   0.723819 0.758960 0.617620 -0.066663
C85   C     C_R   0.116126 0.612844 0.928484 0.308833
C86   C     C_R   0.116071 0.387495 0.424893 0.322812
C87   C     C_R   0.616919 0.112188 0.927861 0.319952
C88   C     C_R   0.615832 0.887772 0.424238 0.323599
H49   H     H_    0.784172 0.220632 0.206140 0.162073
H50   H     H_    0.711128 0.742111 0.718349 0.135334
H51   H     H_    0.283019 0.720726 0.208677 0.126629
H52   H     H_    0.211364 0.242247 0.719298 0.144111
H53   H     H_    0.177053 0.723232 0.819692 0.236803
H54   H     H_    0.169750 0.273022 0.316808 0.224600
H55   H     H_    0.679803 0.222223 0.820295 0.236733
H56   H     H_    0.668372 0.773090 0.315247 0.222811
N1    N     N_R   0.809232 0.546534 0.834447 0.142338
O49   O     O_R   0.765705 0.569001 0.731655 -0.406009
O50   O     O_R   0.858613 0.530945 0.795188 -0.426017
N2    N     N_R   0.804840 0.456404 0.328565 0.141466
O51   O     O_R   0.760143 0.435835 0.222977 -0.384246
O52   O     O_R   0.855806 0.469518 0.292549 -0.440103
N3    N     N_R   0.307883 0.045219 0.831562 0.139089
O53   O     O_R   0.264172 0.067421 0.728524 -0.406164
O54   O     O_R   0.357602 0.030063 0.793015 -0.431925
N4    N     N_R   0.304696 0.956479 0.327833 0.142840
O55   O     O_R   0.260153 0.935496 0.222831 -0.408686
O56   O     O_R   0.355473 0.969863 0.291397 -0.438103
N5    N     N_R   0.682920 0.527308 0.911335 0.279766
O57   O     O_R   0.645026 0.554828 0.810060 -0.291880
O58   O     O_R   0.666524 0.482213 0.935331 -0.225430
N6    N     N_R   0.679993 0.476922 0.408256 0.285521
O59   O     O_R   0.665444 0.522567 0.432791 -0.243331
O60   O     O_R   0.640920 0.449831 0.306971 -0.265860
N7    N     N_R   0.182265 0.026378 0.911659 0.280251
O61   O     O_R   0.143929 0.053476 0.810006 -0.297515
O62   O     O_R   0.166457 0.981227 0.936921 -0.249164
N8    N     N_R   0.179971 0.976673 0.408434 0.287536
O63   O     O_R   0.165518 0.022337 0.433007 -0.236764
O64   O     O_R   0.140818 0.949611 0.307244 -0.281112
O65   O     O_3   0.737585 0.541841 0.171190 -0.668035
H57   H     H_    0.704096 0.563498 0.192592 0.381187
O66   O     O_3   0.734162 0.462146 0.667673 -0.690257
H58   H     H_    0.700467 0.440832 0.689019 0.378087
O67   O     O_3   0.237364 0.041932 0.170559 -0.668061
H59   H     H_    0.204259 0.063938 0.192195 0.378127
O68   O     O_3   0.234340 0.961565 0.667570 -0.692990
H60   H     H_    0.200576 0.940266 0.688608 0.370385
O69   O     O_3   0.046748 0.298523 0.645753 -0.739232
H61   H     H_    0.078771 0.297867 0.746776 0.306268
O70   O     O_3   0.963592 0.757674 0.920906 -0.701855
H62   H     H_    0.941238 0.731954 0.848441 0.279779
O71   O     O_3   0.546553 0.798439 0.646190 -0.735800
H63   H     H_    0.578000 0.798146 0.748370 0.304807
O72   O     O_3   0.550206 0.198214 0.156978 -0.728522
H64   H     H_    0.582516 0.199358 0.257419 0.316106
O73   O     O_3   0.013989 0.200836 0.548107 -0.668554
H65   H     H_    0.020281 0.164672 0.564937 0.373576
O74   O     O_3   0.078800 0.787177 0.100570 -0.643898
H66   H     H_    0.103384 0.811844 0.174718 0.392016
O75   O     O_3   0.514106 0.701241 0.542981 -0.659298
H67   H     H_    0.520481 0.665018 0.558001 0.373409
O76   O     O_3   0.527439 0.296415 0.062436 -0.643028
H68   H     H_    0.487793 0.301725 0.982842 0.361381
O77   O     O_3   0.783986 0.343721 0.877643 -0.631524
H69   H     H_    0.791050 0.373882 0.821181 0.360934
O78   O     O_3   0.788438 0.647843 0.373787 -0.658581
H70   H     H_    0.751651 0.669881 0.350372 0.366765
O79   O     O_3   0.288798 0.841801 0.876435 -0.666886
H71   H     H_    0.291715 0.873166 0.821266 0.360778
O80   O     O_3   0.290823 0.148819 0.373182 -0.659893
H72   H     H_    0.254028 0.170854 0.349468 0.369152
O81   O     O_3   0.185170 0.798561 0.976380 -0.652572
H73   H     H_    0.187408 0.835226 0.972713 0.384508
O82   O     O_3   0.288552 0.261426 0.437035 -0.716894
H74   H     H_    0.326436 0.244869 0.419470 0.359567
O83   O     O_3   0.683742 0.301837 0.988741 -0.614480
H75   H     H_    0.647459 0.281809 0.999910 0.356129
O84   O     O_3   0.785817 0.761368 0.430964 -0.720659
H76   H     H_    0.823068 0.744578 0.410514 0.356881
N9    N     N_R   0.782036 0.300358 0.415962 0.252660
O85   O     O_R   0.724823 0.312860 0.412137 -0.326784
O86   O     O_R   0.806837 0.263150 0.502440 -0.355675
N10   N     N_R   0.819040 0.730896 0.897084 0.247322
O87   O     O_R   0.835581 0.776027 0.874273 -0.369427
O88   O     O_R   0.791798 0.722038 0.011181 -0.331519
N11   N     N_R   0.281137 0.801098 0.413785 0.249041
O89   O     O_R   0.223562 0.813354 0.406299 -0.361225
O90   O     O_R   0.305686 0.764375 0.502957 -0.355920
N12   N     N_R   0.318164 0.227908 0.900300 0.244993
O91   O     O_R   0.340445 0.271803 0.885381 -0.409484
O92   O     O_R   0.287940 0.220205 0.009316 -0.337627
O93   O     O_3   0.206241 0.648055 0.313629 -0.673655
H77   H     H_    0.224457 0.680537 0.352530 0.359567
O94   O     O_3   0.206315 0.352143 0.808252 -0.673073
H78   H     H_    0.233411 0.323034 0.839632 0.367626
O95   O     O_3   0.707905 0.146679 0.313069 -0.686926
H79   H     H_    0.727548 0.178706 0.351816 0.360250
O96   O     O_3   0.704883 0.851608 0.807798 -0.669608
H80   H     H_    0.729648 0.821418 0.840672 0.368365
N13   N     N_R   0.956413 0.386516 0.293283 0.253373
O97   O     O_R   0.971565 0.429523 0.358334 -0.286237
O98   O     O_R   0.994484 0.349917 0.335425 -0.437910
N14   N     N_R   0.957961 0.611996 0.796871 0.248384
O99   O     O_R   0.972188 0.569445 0.863990 -0.270328
O100  O     O_R   0.997211 0.648044 0.832044 -0.546380
N15   N     N_R   0.456791 0.887091 0.294945 0.250953
O101  O     O_R   0.471766 0.930122 0.359975 -0.287612
O102  O     O_R   0.494913 0.850540 0.337256 -0.439350
N16   N     N_R   0.458207 0.112489 0.800147 0.251389
O103  O     O_R   0.473032 0.069351 0.862362 -0.282358
O104  O     O_R   0.496554 0.149031 0.843545 -0.435207
O105  O     O_3   0.088001 0.569711 0.862746 -0.654125
H81   H     H_    0.082275 0.569646 0.748473 0.334106
O106  O     O_3   0.087428 0.430376 0.361147 -0.660016
H82   H     H_    0.083049 0.430901 0.247277 0.332891
O107  O     O_3   0.588204 0.069272 0.862198 -0.664383
H83   H     H_    0.582202 0.069309 0.747796 0.332233
O108  O     O_3   0.587673 0.930851 0.360678 -0.660982
H84   H     H_    0.582570 0.931121 0.246581 0.333734
O109  O     O_3   0.958495 0.276166 0.102009 -0.757772
H85   H     H_    0.937690 0.267520 0.187649 0.306039
O110  O     O_3   0.956966 0.705426 0.528143 -0.717044
H86   H     H_    0.923918 0.714856 0.582201 0.251788
O111  O     O_3   0.456995 0.780448 0.094815 -0.751031
H87   H     H_    0.434237 0.771605 0.176451 0.301571
O112  O     O_3   0.458799 0.215558 0.600662 -0.766005
H88   H     H_    0.434831 0.224874 0.679559 0.298277
N17   N     N_R   0.087849 0.186682 0.193536 0.255551
O113  O     O_R   0.105123 0.161831 0.323873 -0.329167
O114  O     O_R   0.127068 0.193251 0.105023 -0.356285
N18   N     N_R   0.052878 0.817965 0.621770 0.282025
O115  O     O_R   0.070377 0.827555 0.771990 -0.263399
O116  O     O_R   0.081415 0.839153 0.524969 -0.319114
N19   N     N_R   0.578925 0.684701 0.180652 0.270310
O117  O     O_R   0.608338 0.686230 0.328562 -0.366869
O118  O     O_R   0.604129 0.662013 0.079108 -0.340778
N20   N     N_R   0.570836 0.319053 0.684997 0.273116
O119  O     O_R   0.576357 0.353486 0.792583 -0.251136
O120  O     O_R   0.616304 0.311491 0.616089 -0.288767
O121  O     O_3   0.205738 0.453349 0.379140 -0.807320
H89   H     H_    0.248752 0.461323 0.438666 0.331587
O122  O     O_3   0.206220 0.546967 0.881578 -0.807381
H90   H     H_    0.249230 0.538937 0.940479 0.328288
O123  O     O_3   0.706022 0.952956 0.378853 -0.805236
H91   H     H_    0.749035 0.961056 0.438114 0.333244
O124  O     O_3   0.706881 0.046635 0.881756 -0.811811
H92   H     H_    0.750004 0.038644 0.939923 0.328844

loop_
_geom_bond_atom_site_label_1
_geom_bond_atom_site_label_2
_geom_bond_distance
_ccdc_geom_bond_type
C19   H27   1.110927 S    
C68   C88   1.353338 D    
P7    O48   1.611521 S    
C85   O105  1.375723 S    
C3    O75   1.400883 S    
P8    O47   1.605730 S    
O94   H78   0.987617 S    
C2    H10   1.112575 S    
O121  H89   0.992709 S    
N15   O102  1.294566 A    
O5    Ba2   2.873584 S    
P6    C65   1.893531 S    
C38   C42   1.434418 A    
Ba3   O48   3.025241 S    
O82   H74   0.991127 S    
C20   H28   1.110922 S    
C11   N19   1.459987 S    
C4    O76   1.402472 S    
C33   C37   1.448544 A    
O17   C21   1.401505 S    
O84   H76   0.990788 S    
P2    O18   1.774265 S    
O23   C31   1.404987 S    
O24   C32   1.402507 S    
C35   C39   1.448876 A    
P4    O8    1.604521 S    
O8    Ba3   2.889295 S    
C17   H29   1.111192 S    
P9    O41   1.755355 S    
O69   H61   0.991960 S    
C87   O107  1.375263 S    
P1    Ba1   3.465124 S    
C5    C9    1.533767 S    
N6    O59   1.301436 A    
O25   Ba1   2.879817 S    
P5    C66   1.893639 S    
O38   C13   1.400932 S    
N1    O50   1.287247 A    
C49   C53   1.417565 A    
C5    O109  1.404184 S    
O20   C24   1.399073 S    
O112  H88   0.992561 S    
C48   C52   1.449710 A    
C69   O93   1.378046 S    
C51   C55   1.413315 A    
O10   Ba2   2.839482 S    
C60   H56   1.082858 S    
C70   C74   1.521958 S    
O14   P13   1.538145 D    
P12   O44   1.756119 S    
N15   O101  1.296786 A    
O10   P13   1.763135 S    
N16   O103  1.296221 A    
O28   Ba4   2.879318 S    
C21   N1    1.433403 S    
O6    Ba1   2.889295 S    
N7    O62   1.301399 A    
O11   Ba3   2.820865 S    
C4    H12   1.114025 S    
N14   O99   1.296492 A    
C73   C81   1.502576 S    
O18   C22   1.398417 S    
C13   O121  1.400204 S    
C31   O71   1.402595 S    
O1    Ba1   2.877254 S    
P9    C62   1.841517 S    
C65   C85   1.350944 D    
C12   H20   1.107670 S    
C57   C73   1.395163 A    
P11   O43   1.756017 S    
C23   H39   1.100067 S    
C18   H30   1.111095 S    
C4    C32   1.531816 S    
N12   O92   1.301007 A    
P2    Ba2   3.462488 S    
C34   C54   1.390893 A    
O26   Ba2   2.879318 S    
O39   C16   1.401246 S    
C76   C84   1.491822 S    
H3    C31   1.113615 S    
C27   H43   1.117159 S    
H4    C32   1.112103 S    
P3    O7    1.598861 S    
O4    Ba4   2.877749 S    
C41   N9    1.437565 S    
Ba1   O45   2.871795 S    
C25   H41   1.117115 S    
O111  H87   0.993133 S    
C5    H13   1.113535 S    
P3    Ba3   3.465124 S    
C7    H15   1.113663 S    
C45   C49   1.435064 A    
C83   H49   1.085772 S    
O22   P13   1.763847 S    
Ba4   O47   3.022403 S    
O71   H63   0.992793 S    
C33   C53   1.395590 A    
O16   P15   1.548112 D    
N2    O52   1.287905 A    
O19   C23   1.400738 S    
O77   H69   0.984832 S    
C36   C56   1.390134 A    
Ba3   Ba4   4.777497 S    
C16   H24   1.100640 S    
C35   C55   1.393694 A    
C80   O82   1.384023 S    
O75   H67   0.992328 S    
C22   H38   1.102888 S    
N17   O114  1.301155 A    
O2    Ba2   2.877749 S    
P12   O32   1.767563 S    
C78   C84   1.361118 D    
C29   O69   1.402772 S    
C10   N18   1.457397 S    
C59   H55   1.082805 S    
C3    H11   1.112977 S    
P8    Ba4   3.466430 S    
C19   H35   1.102428 S    
O65   H57   0.993254 S    
N13   O98   1.294665 A    
C14   O122  1.400263 S    
O24   P15   1.755974 S    
N5    O57   1.300997 A    
C9    N17   1.460781 S    
C20   H32   1.111181 S    
C39   C43   1.439107 A    
C36   C40   1.446460 A    
C40   C44   1.443994 A    
N10   O87   1.301000 A    
N20   O119  1.300848 A    
O29   Ba1   2.840956 S    
C1    C29   1.528634 S    
O42   C6    1.402134 S    
O95   H79   0.988061 S    
C17   H33   1.102756 S    
C42   N10   1.439902 S    
P11   C64   1.837402 S    
H1    C29   1.113493 S    
O93   H77   0.988349 S    
Ba2   O46   2.887461 S    
C45   C77   1.499555 S    
N4    O56   1.287705 A    
O11   P16   1.757701 S    
C32   O72   1.402178 S    
C63   C87   1.483381 S    
C50   C54   1.404701 A    
P5    O37   1.769097 S    
C61   C85   1.486587 S    
O32   Ba4   2.822331 S    
C35   N15   1.415406 S    
C79   O81   1.380612 S    
P4    C56   1.884403 S    
C57   H53   1.081707 S    
C8    H16   1.114831 S    
N18   O115  1.299704 A    
O80   H72   0.989519 S    
C48   C80   1.515793 S    
C69   C73   1.523408 S    
C72   C76   1.521684 S    
O9    P14   1.757616 S    
C62   C86   1.485598 S    
P12   C63   1.844867 S    
C36   N16   1.415441 S    
P10   O42   1.753325 S    
Ba3   O47   2.871795 S    
C33   N13   1.415684 S    
C7    O111  1.404111 S    
N5    O58   1.301410 A    
C49   O77   1.383272 S    
C13   H21   1.100255 S    
C15   H23   1.100013 S    
C60   C64   1.447515 S    
C30   O70   1.398211 S    
N11   O89   1.300828 A    
O30   Ba2   2.822331 S    
C22   N2    1.434291 S    
C15   C19   1.530555 S    
C21   C25   1.551292 S    
C9    H17   1.110081 S    
O76   H68   0.992400 S    
C79   C81   1.360565 D    
C23   C27   1.550969 S    
C11   H19   1.110459 S    
C18   H34   1.102818 S    
O66   H58   0.992846 S    
C27   O67   1.395203 S    
O106  H82   0.974714 S    
C8    C12   1.535859 S    
N6    O60   1.301013 A    
O72   H64   0.991591 S    
N1    O49   1.302720 A    
P7    Ba3   3.463706 S    
C78   O84   1.384159 S    
N8    O64   1.301027 A    
P1    O1    1.581661 D    
C44   C48   1.429037 A    
P6    O38   1.769442 S    
P3    O3    1.581661 D    
P4    O20   1.775236 S    
C26   H42   1.116172 S    
O68   H60   0.992849 S    
C66   C70   1.368903 D    
C46   C50   1.452911 A    
N16   O104  1.295101 A    
O41   C5    1.408429 S    
C58   C62   1.451354 S    
C71   O95   1.378832 S    
O44   C8    1.407872 S    
O108  H84   0.974441 S    
C2    H6    1.105952 S    
O81   H73   0.991382 S    
C6    C10   1.533775 S    
C25   N5    1.464494 S    
C26   O66   1.395430 S    
O12   Ba4   2.839482 S    
C10   H46   1.111838 S    
N14   O100  1.289535 A    
C14   H22   1.100743 S    
C12   H48   1.111963 S    
O37   C14   1.401283 S    
P9    O33   1.538484 D    
P10   O30   1.769479 S    
P10   C61   1.845941 S    
P11   O35   1.538086 D    
C80   C82   1.361756 D    
P12   O36   1.538776 D    
N3    O53   1.302858 A    
O105  H81   0.974270 S    
C1    H5    1.112605 S    
C3    H7    1.112696 S    
N19   O117  1.300931 A    
C51   O79   1.382405 S    
C18   H26   1.110928 S    
O122  H90   0.992729 S    
C47   C79   1.506984 S    
P6    O26   1.582058 D    
P1    O5    1.598861 S    
C15   O123  1.400220 S    
C50   O78   1.383360 S    
P8    O40   1.769853 S    
O7    Ba4   2.873584 S    
C58   C74   1.388422 A    
P14   C37   1.894995 S    
C20   H36   1.102588 S    
Ba1   O46   3.025241 S    
C81   H51   1.085603 S    
N8    O63   1.301404 A    
C52   O80   1.383409 S    
C41   C45   1.421649 A    
O96   H80   0.986849 S    
C25   O65   1.394846 S    
C74   C82   1.494539 S    
Ba1   Ba2   4.777497 S    
C2    C30   1.521859 S    
C66   C86   1.353265 D    
P4    Ba4   3.462488 S    
O21   C29   1.405242 S    
C75   C83   1.500634 S    
P7    C68   1.892607 S    
C64   C88   1.486072 S    
P8    C67   1.887024 S    
C24   C28   1.549519 S    
Ba4   O48   2.887461 S    
C8    O112  1.403419 S    
C19   H31   1.111198 S    
H2    C30   1.109390 S    
C1    H9    1.113017 S    
C77   C83   1.367911 D    
P6    O45   1.605730 S    
C10   H18   1.107192 S    
C7    C11   1.533409 S    
O107  H83   0.974751 S    
O73   H65   0.992318 S    
O27   Ba3   2.879817 S    
P13   C38   1.916839 S    
C44   N12   1.438463 S    
C37   C41   1.437517 A    
N17   O113  1.300869 A    
P16   C39   1.893872 S    
O110  H86   0.989733 S    
P5    Ba1   3.463706 S    
C52   C56   1.402421 A    
C6    H14   1.107505 S    
C28   O68   1.395543 S    
C86   O106  1.374830 S    
C3    C31   1.528317 S    
O124  H92   0.992746 S    
P1    O17   1.777579 S    
C24   N4    1.433802 S    
N11   O90   1.300603 A    
N13   O97   1.296891 A    
P3    O19   1.777121 S    
P4    O4    1.587179 D    
P9    O29   1.761014 S    
O123  H91   0.992739 S    
P5    O46   1.611521 S    
O109  H85   0.993168 S    
N10   O88   1.301027 A    
O67   H59   0.992895 S    
C67   C71   1.367929 D    
C59   C75   1.394398 A    
N12   O91   1.301318 A    
N20   O120  1.301069 A    
C60   C76   1.386736 A    
C77   O83   1.382599 S    
C12   N20   1.460039 S    
O74   H66   0.992554 S    
O40   C15   1.400867 S    
O3    Ba3   2.877254 S    
C21   H37   1.098447 S    
O15   P16   1.546982 D    
O13   P14   1.547881 D    
O79   H71   0.985482 S    
C71   C75   1.520964 S    
C23   N3    1.432875 S    
P2    O2    1.587179 D    
C70   O94   1.378554 S    
C28   H44   1.116101 S    
P7    O39   1.769293 S    
C28   N8    1.464561 S    
P6    Ba2   3.466430 S    
C82   H52   1.084705 S    
C4    H8    1.110037 S    
N2    O51   1.302607 A    
C16   O124  1.400219 S    
N18   O116  1.300895 A    
C65   C69   1.369005 D    
C59   C63   1.454783 S    
C34   N14   1.408124 S    
C68   C72   1.367929 D    
C13   C17   1.530608 S    
C2    O74   1.398602 S    
C47   C51   1.434236 A    
C43   N11   1.437308 S    
N3    O54   1.287459 A    
C57   C61   1.452515 S    
C46   C78   1.512130 S    
C27   N7    1.464475 S    
O83   H75   0.990557 S    
N19   O118  1.300887 A    
C88   O108  1.374987 S    
C11   H47   1.111492 S    
P2    C54   1.893527 S    
C9    H45   1.112161 S    
N9    O86   1.300616 A    
P10   O34   1.535066 D    
C43   C47   1.421881 A    
O12   P15   1.755216 S    
P11   O31   1.757725 S    
C6    O110  1.403662 S    
P2    O6    1.604521 S    
C16   C20   1.530482 S    
P7    O27   1.587566 D    
P8    O28   1.582058 D    
C84   H50   1.084933 S    
C58   H54   1.082804 S    
C26   N6    1.464546 S    
O70   H62   0.986002 S    
O23   P16   1.755209 S    
C67   C87   1.351594 D    
C1    O73   1.400924 S    
O21   P14   1.755298 S    
O22   C30   1.409858 S    
O43   C7    1.408395 S    
P3    C55   1.890067 S    
P15   C40   1.905468 S    
O78   H70   0.989407 S    
P1    C53   1.894174 S    
Ba2   O45   3.022403 S    
N4    O55   1.302680 A    
O9    Ba1   2.820865 S    
C72   O96   1.378161 S    
C42   C46   1.427985 A    
P5    O25   1.587566 D    
O31   Ba3   2.840956 S    
C34   C38   1.443846 A    
N7    O61   1.300989 A    
C22   C26   1.549050 S    
N9    O85   1.300863 A    
C14   C18   1.530579 S    
C17   H25   1.110922 S    
C24   H40   1.103063 S    
