data_mof_unit_9024.cif
_audit_creation_date              2012-12-10T17:28:34-0500
_audit_creation_method            fapswitch 2.2
_symmetry_space_group_name_H-M    P1
_symmetry_Int_Tables_number       1
_space_group_crystal_system       triclinic
_cell_length_a                    10.719419
_cell_length_b                    12.144379
_cell_length_c                    12.766745
_cell_angle_alpha                 97.438761
_cell_angle_beta                  97.308952
_cell_angle_gamma                 82.103946
_cell_volume                      1622.20732432

loop_
_atom_site_label
_atom_site_type_symbol
_atom_type_description
_atom_site_fract_x
_atom_site_fract_y
_atom_site_fract_z
_atom_type_partial_charge
C1    C     C_R   0.491934 0.525493 0.700474 0.955745
C2    C     C_R   0.508065 0.474507 0.299526 0.955742
C3    C     C_R   0.516240 0.453454 0.186237 -0.139586
C4    C     C_R   0.483760 0.546547 0.813763 -0.139582
C5    C     C_R   0.577480 0.625438 0.983168 0.206717
C6    C     C_R   0.422516 0.374566 0.016832 0.206713
C7    C     C_R   0.551368 0.626085 0.874725 -0.192554
C8    C     C_R   0.448630 0.373919 0.125275 -0.192559
C9    C     C_R   0.420473 0.477615 0.861905 0.108369
C10   C     C_R   0.579525 0.522389 0.138096 0.108377
C11   C     C_R   0.458666 0.462784 0.969125 -0.030777
C12   C     C_R   0.541330 0.537220 0.030876 -0.030777
C13   C     C_R   0.449580 0.938533 0.365129 -0.270686
C14   C     C_R   0.550404 0.061471 0.634872 -0.270718
C15   C     C_R   0.435686 0.829409 0.383284 0.130988
C16   C     C_R   0.564297 0.170595 0.616717 0.130999
C17   C     C_R   0.496396 0.872183 0.566435 0.223991
C18   C     C_R   0.503607 0.127815 0.433568 0.223987
C19   C     C_R   0.510022 0.983671 0.551167 0.012281
C20   C     C_R   0.489979 0.016328 0.448835 0.012292
C21   C     C_R   0.741527 0.496018 0.505517 0.920854
C22   C     C_R   0.258473 0.503982 0.494482 0.920854
C23   C     C_R   0.902355 0.299412 0.406706 -0.195844
C24   C     C_R   0.097653 0.700585 0.593306 -0.195847
C25   C     C_R   0.969057 0.225427 0.335049 -0.203573
C26   C     C_R   0.030957 0.774566 0.664972 -0.203566
C27   C     C_R   0.072126 0.257198 0.296216 0.216358
C28   C     C_R   0.927882 0.742796 0.703798 0.216358
C29   C     C_R   0.112782 0.361056 0.335624 0.125950
C30   C     C_R   0.887216 0.638942 0.664379 0.125946
C31   C     C_R   0.062589 0.424658 0.424795 0.012772
C32   C     C_R   0.937409 0.575343 0.575205 0.012775
C33   C     C_R   0.946746 0.402292 0.451093 0.071062
C34   C     C_R   0.053254 0.597710 0.548910 0.071058
C35   C     C_R   0.121128 0.514551 0.482592 -0.150548
C36   C     C_R   0.878871 0.485451 0.517409 -0.150541
H1    H     H_    0.415477 0.965293 0.287783 0.205174
H2    H     H_    0.584483 0.034721 0.712218 0.205183
H3    H     H_    0.819636 0.270671 0.427495 0.194277
H4    H     H_    0.180373 0.729328 0.572517 0.194276
H5    H     H_    0.935363 0.146094 0.304626 0.187968
H6    H     H_    0.064661 0.853893 0.695406 0.187969
H7    H     H_    0.409474 0.313947 0.162743 0.228596
H8    H     H_    0.590522 0.686058 0.837257 0.228595
N1    N     N_R   0.523130 0.207800 0.519340 -0.138470
N2    N     N_R   0.476870 0.792200 0.480660 -0.138464
O1    O     O_R   0.506170 0.421700 0.658830 -0.601971
O2    O     O_R   0.493830 0.578300 0.341170 -0.601969
O3    O     O_R   0.491330 0.609310 0.646410 -0.594224
O4    O     O_R   0.508670 0.390690 0.353590 -0.594223
O5    O     O_R   0.690650 0.406190 0.506220 -0.639420
O6    O     O_R   0.309350 0.593810 0.493780 -0.639421
O7    O     O_R   0.675800 0.593810 0.493800 -0.583186
O8    O     O_R   0.324200 0.406190 0.506200 -0.583185
Zn1   Zn    Zn3+2 0.509910 0.374730 0.508290 0.993868
Zn2   Zn    Zn3+2 0.490090 0.625270 0.491710 0.993869
I1    I     I_    0.843777 0.852255 0.825526 -0.283583
I2    I     I_    0.156230 0.147735 0.174490 -0.283596
I3    I     I_    0.182279 0.449551 0.229174 -0.349771
I4    I     I_    0.817711 0.550441 0.770821 -0.349753
I5    I     I_    0.755330 0.564054 0.223913 -0.317210
I6    I     I_    0.244667 0.435952 0.776088 -0.317207
I7    I     I_    0.658284 0.771131 0.058176 -0.254638
I8    I     I_    0.341709 0.228877 0.941826 -0.254654
I9    I     I_    0.553657 0.148638 0.282628 -0.319876
I10   I     I_    0.446351 0.851356 0.717380 -0.319893
C37   C     C_R   0.659539 0.225262 0.692131 0.157242
C38   C     C_R   0.640072 0.253318 0.799368 -0.141837
C39   C     C_R   0.739394 0.283156 0.875170 -0.108214
C40   C     C_R   0.860271 0.282082 0.844753 -0.029046
C41   C     C_R   0.880937 0.253865 0.738117 -0.109238
C42   C     C_R   0.781042 0.225512 0.662171 -0.128489
H9    H     H_    0.548666 0.249288 0.823986 0.174379
H10   H     H_    0.723229 0.304849 0.957713 0.168753
H11   H     H_    0.937692 0.303702 0.903582 0.185886
H12   H     H_    0.974690 0.252535 0.714544 0.175534
H13   H     H_    0.800012 0.197459 0.581270 0.125986
C43   C     C_R   0.340442 0.774741 0.307872 0.157232
C44   C     C_R   0.359906 0.746687 0.200633 -0.141824
C45   C     C_R   0.260585 0.716837 0.124835 -0.108211
C46   C     C_R   0.139716 0.717895 0.155257 -0.029050
C47   C     C_R   0.119055 0.746112 0.261893 -0.109249
C48   C     C_R   0.218945 0.774481 0.337836 -0.128492
H14   H     H_    0.451309 0.750722 0.176009 0.174377
H15   H     H_    0.276748 0.695141 0.042290 0.168751
H16   H     H_    0.062297 0.696262 0.096431 0.185891
H17   H     H_    0.025314 0.747418 0.285469 0.175544
H18   H     H_    0.199976 0.802534 0.418738 0.125987

loop_
_geom_bond_atom_site_label_1
_geom_bond_atom_site_label_2
_ccdc_geom_bond_type
C30   C32   A    
C27   C29   A    
C19   C20   A    
C8    H7    S    
C46   C47   A    
C22   O8    A    
C21   C36   S    
C28   I1    S    
C18   I9    S    
C22   C35   S    
C17   I10   S    
C42   H13   S    
C32   C36   A    
C22   O6    A    
C24   C26   A    
C37   C42   A    
C44   H14   S    
C15   C43   S    
C47   H17   S    
C33   C36   A    
C5    I7    S    
C18   C20   A    
C34   C35   A    
C6    I8    S    
C2    O4    A    
C17   C19   A    
C43   C48   A    
C29   I3    S    
C38   C39   A    
C23   C33   A    
C30   I4    S    
C31   C33   A    
C40   C41   A    
C13   H1    S    
C46   H16   S    
C48   H18   S    
C4    C7    A    
C37   C38   A    
C17   N2    A    
C5    C12   A    
C3    C8    A    
C25   H5    S    
C6    C11   A    
C5    C7    A    
C43   C44   A    
C1    O1    A    
C6    C8    A    
C2    O2    A    
C38   H9    S    
C24   C34   A    
C9    I6    S    
C32   C34   A    
C45   H15   S    
C14   H2    S    
C39   H10   S    
C16   C37   S    
C7    H8    S    
C9    C11   A    
C10   C12   A    
C13   C15   A    
C14   C16   A    
C10   I5    S    
C18   N1    A    
C21   O5    A    
C26   H6    S    
O1    Zn1   S    
O7    Zn2   S    
O2    Zn2   S    
O8    Zn1   S    
C13   C20   A    
C14   C19   A    
C45   C46   A    
C27   I2    S    
C16   N1    A    
C11   C12   A    
C25   C27   A    
O3    Zn2   S    
C26   C28   A    
O4    Zn1   S    
C1    C4    S    
C28   C30   A    
C2    C3    S    
C41   C42   A    
C29   C31   A    
C3    C10   A    
C21   O7    A    
C41   H12   S    
C23   H3    S    
C31   C35   A    
C24   H4    S    
O5    Zn1   S    
C23   C25   A    
C39   C40   A    
C44   C45   A    
N1    Zn1   S    
C47   C48   A    
N2    Zn2   S    
C40   H11   S    
C15   N2    A    
C4    C9    A    
C1    O3    A    
O6    Zn2   S    
