data_mof_unit_29841.cif
_audit_creation_date              2012-12-10T17:58:10-0500
_audit_creation_method            fapswitch 2.2
_symmetry_space_group_name_H-M    P1
_symmetry_Int_Tables_number       1
_space_group_crystal_system       triclinic
_cell_length_a                    18.241228
_cell_length_b                    25.937261
_cell_length_c                    18.433998
_cell_angle_alpha                 89.979919
_cell_angle_beta                  89.990387
_cell_angle_gamma                 90.007463
_cell_volume                      8721.63050136

loop_
_atom_site_label
_atom_site_type_symbol
_atom_type_description
_atom_site_fract_x
_atom_site_fract_y
_atom_site_fract_z
_atom_type_partial_charge
C1    C     C_R   0.641723 0.749184 0.361328 0.923577
C2    C     C_R   0.860477 0.749097 0.140751 0.934547
C3    C     C_R   0.698796 0.710021 0.252867 0.328057
C4    C     C_R   0.683810 0.749282 0.764851 0.313874
C5    C     C_R   0.242987 0.282990 0.309996 0.280142
C6    C     C_R   0.325013 0.734178 0.231477 0.320530
C7    C     C_R   0.698732 0.289807 0.747288 0.315358
C8    C     C_R   0.194050 0.711706 0.749107 0.274601
C9    C     C_R   0.830269 0.264386 0.275269 0.239112
C10   C     C_R   0.824793 0.767006 0.268689 0.339092
C11   C     C_R   0.202793 0.204454 0.759132 0.311757
C12   C     C_R   0.253310 0.213468 0.190813 0.301077
C13   C     C_R   0.860729 0.252090 0.141432 0.982825
C14   C     C_R   0.831008 0.736078 0.723273 0.311670
C15   C     C_R   0.824977 0.233148 0.731203 0.319094
C16   C     C_R   0.202547 0.795275 0.241261 0.321439
C17   C     C_R   0.139373 0.748981 0.859518 1.102151
C18   C     C_R   0.141930 0.751072 0.138458 0.961438
C19   C     C_R   0.860488 0.250889 0.859246 0.933795
C20   C     C_R   0.861466 0.747298 0.857956 0.990966
C21   C     C_R   0.139416 0.251066 0.140472 1.068677
C22   C     C_R   0.701128 0.253633 0.308789 -0.355878
C23   C     C_R   0.302370 0.751506 0.695454 -0.362723
C24   C     C_R   0.308559 0.242355 0.701337 -0.393483
C25   C     C_R   0.360597 0.248367 0.641083 0.956843
C26   C     C_R   0.702843 0.746016 0.309988 -0.398694
C27   C     C_R   0.701310 0.745967 0.690976 -0.376756
C28   C     C_R   0.302277 0.247861 0.304723 -0.386467
C29   C     C_R   0.308566 0.757529 0.298667 -0.391007
C30   C     C_R   0.702930 0.254001 0.689956 -0.396288
C31   C     C_R   0.196886 0.748782 0.805233 -0.382837
C32   C     C_R   0.808203 0.260097 0.201448 -0.338085
C33   C     C_R   0.807653 0.745651 0.200134 -0.371487
C34   C     C_R   0.203878 0.244361 0.811243 -0.384721
C35   C     C_R   0.197343 0.251329 0.194510 -0.375910
C36   C     C_R   0.359561 0.750234 0.639919 1.080238
C37   C     C_R   0.809346 0.738993 0.797551 -0.378159
C38   C     C_R   0.807687 0.254284 0.799854 -0.371239
C39   C     C_R   0.203955 0.755694 0.188681 -0.385544
C40   C     C_R   0.433417 0.973280 0.500194 -0.120424
C41   C     C_R   0.566585 0.026728 0.499674 -0.132658
C42   C     C_R   0.566588 0.973292 0.499661 -0.108062
C43   C     C_R   0.433414 0.026716 0.500165 -0.106016
C44   C     C_R   0.933427 0.473277 0.000469 -0.135705
C45   C     C_R   0.066597 0.526729 0.999331 -0.133768
C46   C     C_R   0.066601 0.473291 0.999418 -0.100890
C47   C     C_R   0.641339 0.250780 0.361230 1.015715
C48   C     C_R   0.933425 0.526713 0.000360 -0.130868
C49   C     C_R   0.499998 0.053689 0.499932 -0.018297
C50   C     C_R   0.500004 0.946318 0.499959 -0.032898
C51   C     C_R   0.000008 0.553688 0.999849 -0.033110
C52   C     C_R   0.000015 0.446316 0.000001 -0.026434
C53   C     C_R   0.500003 0.890244 0.500001 0.835585
C54   C     C_R   0.499998 0.109758 0.499975 0.829973
C55   C     C_R   0.000006 0.390243 0.000038 0.832397
C56   C     C_R   0.000000 0.609758 0.999938 0.813527
C57   C     C_R   0.493227 0.609881 0.500563 0.878471
C58   C     C_R   0.641764 0.250844 0.638638 0.946856
C59   C     C_R   0.493256 0.390097 0.499517 0.873841
C60   C     C_R   0.991845 0.109882 0.000422 0.901866
C61   C     C_R   0.992021 0.890136 0.999510 0.883720
C62   C     C_R   0.440151 0.555052 0.370593 0.251153
C63   C     C_R   0.439631 0.444565 0.629413 0.253934
C64   C     C_R   0.459944 0.548337 0.639026 0.119890
C65   C     C_R   0.459051 0.451110 0.361956 0.237462
C66   C     C_R   0.934463 0.055298 0.870539 0.246829
C67   C     C_R   0.932146 0.944606 0.128404 0.256087
C68   C     C_R   0.943481 0.049817 0.136125 0.143185
C69   C     C_R   0.360576 0.751581 0.358938 0.936605
C70   C     C_R   0.946904 0.950247 0.862848 0.142549
C71   C     C_R   0.464053 0.533888 0.305039 0.516313
C72   C     C_R   0.463952 0.465196 0.695069 0.539393
C73   C     C_R   0.478819 0.517607 0.698730 0.466743
C74   C     C_R   0.478129 0.481319 0.301844 0.471971
C75   C     C_R   0.953912 0.032858 0.804431 0.542190
C76   C     C_R   0.949799 0.967238 0.194868 0.541117
C77   C     C_R   0.958095 0.020410 0.198360 0.469332
C78   C     C_R   0.962993 0.979748 0.801071 0.469565
C79   C     C_R   0.462799 0.473971 0.432239 -0.163216
C80   C     C_R   0.359922 0.249277 0.359744 1.011645
C81   C     C_R   0.462711 0.525888 0.568288 -0.120647
C82   C     C_R   0.457225 0.471408 0.564735 -0.170017
C83   C     C_R   0.457467 0.528437 0.435553 -0.176203
C84   C     C_R   0.956069 0.973632 0.932247 -0.120867
C85   C     C_R   0.954558 0.026368 0.067068 -0.121140
C86   C     C_R   0.951662 0.971487 0.064263 -0.178860
C87   C     C_R   0.952840 0.028479 0.935035 -0.178291
C88   C     C_R   0.469657 0.445409 0.498225 0.044605
C89   C     C_R   0.469624 0.554532 0.502131 0.051266
C90   C     C_R   0.965667 0.945305 0.998150 0.043828
C91   C     C_R   0.641359 0.749166 0.638752 1.033257
C92   C     C_R   0.965452 0.054695 0.001392 0.038674
C93   C     C_R   0.242455 0.716891 0.689862 0.230614
C94   C     C_R   0.774207 0.266470 0.329644 0.292165
C95   C     C_R   0.766578 0.777694 0.315737 0.224386
C96   C     C_R   0.244389 0.211146 0.696235 0.307295
C97   C     C_R   0.305955 0.211061 0.247652 0.262799
C98   C     C_R   0.774445 0.734058 0.669396 0.286141
C99   C     C_R   0.766819 0.222467 0.684046 0.307119
C100  C     C_R   0.244125 0.788358 0.304024 0.232897
C101  C     C_R   0.733550 0.265733 0.184335 0.283214
C102  C     C_R   0.141880 0.248980 0.861487 0.950288
C103  C     C_R   0.252908 0.786627 0.808783 0.298533
C104  C     C_R   0.266587 0.277037 0.815048 0.234611
C105  C     C_R   0.739998 0.719876 0.191247 0.276989
C106  C     C_R   0.734821 0.732191 0.814811 0.228591
C107  C     C_R   0.195040 0.288485 0.250575 0.213853
C108  C     C_R   0.266878 0.723208 0.184647 0.312100
C109  C     C_R   0.739921 0.279840 0.808844 0.293065
C110  C     C_R   0.683415 0.248774 0.235136 0.307623
C111  C     C_R   0.307150 0.787666 0.753278 0.287656
C112  C     C_R   0.324783 0.266068 0.768334 0.323960
F1    F     F_    0.488606 0.539308 0.765053 -0.514444
F2    F     F_    0.487127 0.459102 0.235755 -0.501609
F3    F     F_    0.459175 0.561078 0.242322 -0.482187
F4    F     F_    0.458962 0.437704 0.757515 -0.481736
F5    F     F_    0.959882 0.042987 0.264755 -0.526080
F6    F     F_    0.966635 0.957187 0.734732 -0.524921
F7    F     F_    0.948885 0.059982 0.741667 -0.482222
F8    F     F_    0.943748 0.940128 0.257556 -0.482106
H1    H     H_    0.381368 0.953168 0.500405 0.203943
H2    H     H_    0.303755 0.348462 0.570704 0.392661
H3    H     H_    0.475296 0.639421 0.712964 0.387617
H4    H     H_    0.369659 0.354822 0.252479 0.365577
H5    H     H_    0.801466 0.151575 0.936768 0.387354
H6    H     H_    0.801821 0.847246 0.059818 0.385252
H7    H     H_    0.944291 0.137395 0.219516 0.394918
H8    H     H_    0.950986 0.861528 0.781483 0.392032
H9    H     H_    0.140443 0.748400 0.584930 0.371973
H10   H     H_    0.740021 0.305219 0.521474 0.387107
H11   H     H_    0.694469 0.877294 0.310717 0.368085
H12   H     H_    0.618633 0.046837 0.499464 0.185588
H13   H     H_    0.203858 0.206215 0.502259 0.412854
H14   H     H_    0.460238 0.168505 0.329940 0.349108
H15   H     H_    0.740238 0.695975 0.477008 0.387960
H16   H     H_    0.700900 0.104420 0.597769 0.383784
H17   H     H_    0.184772 0.740847 0.432489 0.367373
H18   H     H_    0.746346 0.384846 0.075159 0.404101
H19   H     H_    0.196931 0.844189 0.984741 0.382163
H20   H     H_    0.195088 0.377082 0.813018 0.364105
H21   H     H_    0.746748 0.754614 0.018454 0.382500
H22   H     H_    0.793006 0.626030 0.846560 0.350659
H23   H     H_    0.618638 0.953190 0.499409 0.209063
H24   H     H_    0.227370 0.393472 0.206748 0.363627
H25   H     H_    0.202592 0.606021 0.094499 0.384959
H26   H     H_    0.747203 0.244106 0.980865 0.381197
H27   H     H_    0.557240 0.192231 0.103824 0.423012
H28   H     H_    0.387290 0.915658 0.782988 0.402870
H29   H     H_    0.465953 0.261150 0.909231 0.421416
H30   H     H_    0.687566 0.571361 0.219869 0.404212
H31   H     H_    0.556947 0.800799 0.899235 0.422389
H32   H     H_    0.122872 0.306761 0.464384 0.411220
H33   H     H_    0.466339 0.740023 0.090752 0.421201
H34   H     H_    0.381366 0.046820 0.500359 0.204922
H35   H     H_    0.687418 0.428344 0.781087 0.403381
H36   H     H_    0.057473 0.619236 0.827168 0.377601
H37   H     H_    0.945347 0.334394 0.222477 0.364524
H38   H     H_    0.968341 0.767257 0.407643 0.410083
H39   H     H_    0.193985 0.063369 0.749355 0.400392
H40   H     H_    0.338467 0.128482 0.053192 0.405850
H41   H     H_    0.986490 0.708567 0.604390 0.419712
H42   H     H_    0.968442 0.234253 0.592146 0.415159
H43   H     H_    0.192760 0.936162 0.253559 0.401685
H44   H     H_    0.881377 0.453163 0.000937 0.193472
H45   H     H_    0.118640 0.546844 0.998857 0.186326
H46   H     H_    0.118648 0.453186 0.999001 0.206001
H47   H     H_    0.881375 0.546816 0.000732 0.205165
H48   H     H_    0.304243 0.651156 0.429082 0.387348
O1    O     O_3   0.500000 0.750040 0.500000 -0.570224
O2    O     O_R   0.414580 0.719700 0.353880 -0.563264
O3    O     O_3   0.212448 0.770498 0.452420 -0.487571
O4    O     O_2   0.665272 0.297121 0.063227 -0.157157
O5    O     O_2   0.646630 0.348185 0.172249 -0.199066
O6    O     O_3   0.770088 0.358389 0.105977 -0.520477
O7    O     O_2   0.328324 0.845628 0.907603 -0.156588
O8    O     O_2   0.216564 0.881466 0.854435 -0.249886
O9    O     O_3   0.205655 0.812786 0.955423 -0.581226
O10   O     O_2   0.281110 0.314337 0.950714 -0.161469
O11   O     O_2   0.339087 0.364807 0.854932 -0.114551
O12   O     O_3   0.198466 0.368959 0.865424 -0.516853
O13   O     O_R   0.414580 0.280300 0.353880 -0.582761
O14   O     O_2   0.732620 0.663321 0.069079 -0.164558
O15   O     O_2   0.617580 0.699006 0.114552 -0.158621
O16   O     O_3   0.708349 0.762584 0.054649 -0.519759
O17   O     O_2   0.667904 0.699475 0.935988 -0.120719
O18   O     O_2   0.649800 0.648464 0.827162 -0.215994
O19   O     O_3   0.773655 0.639582 0.893010 -0.474965
O20   O     O_2   0.095371 0.349215 0.174713 -0.319872
O21   O     O_2   0.085452 0.347357 0.306004 -0.104284
O22   O     O_3   0.193093 0.397337 0.248080 -0.419601
O23   O     O_2   0.281592 0.686508 0.048719 -0.195699
O24   O     O_R   0.585420 0.719700 0.646120 -0.625586
O25   O     O_2   0.339846 0.635931 0.144604 -0.118022
O26   O     O_3   0.199184 0.631438 0.134456 -0.523533
O27   O     O_2   0.731772 0.335709 0.931540 -0.207655
O28   O     O_2   0.617186 0.299643 0.885545 -0.156928
O29   O     O_3   0.708593 0.236230 0.944856 -0.511332
O30   O     O_2   0.578833 0.177801 0.251824 -0.302799
O31   O     O_2   0.540150 0.263350 0.209178 -0.194219
O32   O     O_3   0.607305 0.202748 0.118413 -0.448702
O33   O     O_2   0.431484 0.820757 0.815173 -0.192216
O34   O     O_2   0.422462 0.838290 0.685877 -0.322219
O35   O     O_R   0.085420 0.219700 0.853880 -0.575770
O36   O     O_3   0.344438 0.893703 0.771358 -0.451105
O37   O     O_2   0.459389 0.223122 0.770408 -0.307837
O38   O     O_2   0.452268 0.316753 0.785532 -0.111705
O39   O     O_3   0.414050 0.258780 0.893811 -0.454223
O40   O     O_2   0.674168 0.630347 0.343172 -0.316633
O41   O     O_2   0.584758 0.644039 0.245968 -0.146350
O42   O     O_3   0.711067 0.605327 0.211909 -0.482008
O43   O     O_2   0.574132 0.817020 0.749270 -0.255766
O44   O     O_2   0.542020 0.730780 0.794121 -0.203143
O45   O     O_3   0.607583 0.794099 0.882313 -0.455238
O46   O     O_R   0.914580 0.780300 0.146120 -0.546141
O47   O     O_2   0.271830 0.299936 0.454781 -0.306927
O48   O     O_2   0.212088 0.369294 0.388618 -0.117477
O49   O     O_3   0.136331 0.287831 0.419660 -0.464390
O50   O     O_2   0.459263 0.777678 0.229820 -0.312308
O51   O     O_2   0.452995 0.684075 0.214084 -0.112865
O52   O     O_3   0.414405 0.742213 0.106143 -0.451854
O53   O     O_2   0.673941 0.369709 0.657441 -0.319222
O54   O     O_2   0.584670 0.355669 0.754709 -0.145502
O55   O     O_3   0.710966 0.394372 0.788805 -0.486188
O56   O     O_2   0.085149 0.653353 0.691057 -0.159580
O57   O     O_R   0.914580 0.219700 0.146120 -0.563681
O58   O     O_2   0.183828 0.608849 0.754899 -0.177924
O59   O     O_3   0.083147 0.652825 0.830206 -0.571997
O60   O     O_2   0.943472 0.300836 0.362357 -0.134090
O61   O     O_2   0.958255 0.217586 0.303943 -0.189366
O62   O     O_3   0.968829 0.300034 0.225846 -0.530605
O63   O     O_2   0.959835 0.724992 0.271164 -0.316142
O64   O     O_2   0.952372 0.818989 0.281230 -0.121935
O65   O     O_3   0.916265 0.763861 0.393178 -0.448644
O66   O     O_2   0.177199 0.132362 0.861396 -0.292055
O67   O     O_2   0.089863 0.136880 0.760714 -0.166891
O68   O     O_R   0.085420 0.780300 0.853880 -0.616893
O69   O     O_3   0.217771 0.096506 0.736691 -0.467112
O70   O     O_2   0.219704 0.120277 0.136369 -0.249329
O71   O     O_2   0.217192 0.190789 0.049016 -0.319580
O72   O     O_3   0.342676 0.157345 0.088121 -0.424514
O73   O     O_2   0.950220 0.786679 0.677344 -0.232318
O74   O     O_2   0.972523 0.716481 0.762894 -0.290248
O75   O     O_3   0.945781 0.692436 0.631762 -0.401045
O76   O     O_2   0.959439 0.276058 0.728919 -0.323822
O77   O     O_2   0.953346 0.182059 0.718231 -0.121097
O78   O     O_3   0.916339 0.237286 0.606686 -0.446263
O79   O     O_R   0.085420 0.780300 0.146120 -0.578494
O80   O     O_2   0.176621 0.868177 0.140284 -0.320385
O81   O     O_2   0.089087 0.862379 0.240689 -0.165322
O82   O     O_3   0.216618 0.902974 0.265789 -0.460281
O83   O     O_R   0.914580 0.219700 0.853880 -0.548874
O84   O     O_R   0.914580 0.780300 0.853880 -0.564040
O85   O     O_3   0.500000 0.249960 0.500000 -0.571749
O86   O     O_R   0.085420 0.219700 0.146120 -0.602718
O87   O     O_R   0.646120 0.780390 0.585510 -0.570461
O88   O     O_R   0.353880 0.219610 0.414490 -0.578199
O89   O     O_R   0.353880 0.780390 0.414490 -0.572110
O90   O     O_R   0.646120 0.219610 0.585510 -0.576309
O91   O     O_R   0.646120 0.219610 0.414490 -0.581919
O92   O     O_R   0.353880 0.780390 0.585510 -0.579766
O93   O     O_R   0.353880 0.219610 0.585510 -0.577618
O94   O     O_R   0.646120 0.780390 0.414490 -0.567351
O95   O     O_R   0.146120 0.280390 0.085510 -0.580378
O96   O     O_3   0.000000 0.250040 0.000000 -0.566393
O97   O     O_R   0.853880 0.719610 0.914490 -0.618259
O98   O     O_R   0.853880 0.280390 0.914490 -0.631788
O99   O     O_R   0.146120 0.719610 0.085510 -0.577364
O100  O     O_R   0.146120 0.719610 0.914490 -0.552989
O101  O     O_R   0.853880 0.280390 0.085510 -0.608506
O102  O     O_R   0.853880 0.719610 0.085510 -0.628273
O103  O     O_R   0.146120 0.280390 0.914490 -0.571658
O104  O     O_R   0.560660 0.865840 0.500000 -0.620927
O105  O     O_R   0.439340 0.134160 0.500000 -0.617626
O106  O     O_R   0.439340 0.865840 0.500000 -0.624504
O107  O     O_3   0.000000 0.749960 0.000000 -0.561170
O108  O     O_R   0.560660 0.134160 0.500000 -0.646979
O109  O     O_R   0.060660 0.365840 0.000000 -0.608390
O110  O     O_R   0.939340 0.634160 0.000000 -0.621485
O111  O     O_R   0.939340 0.365840 0.000000 -0.633514
O112  O     O_R   0.060660 0.634160 0.000000 -0.628610
O113  O     O_R   0.500000 0.634240 0.439310 -0.602758
O114  O     O_R   0.500000 0.365760 0.560690 -0.605813
O115  O     O_R   0.500000 0.634240 0.560690 -0.644586
O116  O     O_R   0.500000 0.365760 0.439310 -0.604332
O117  O     O_R   1.000000 0.134240 0.939310 -0.592514
O118  O     O_R   0.585420 0.719700 0.353880 -0.573534
O119  O     O_R   0.000000 0.865760 0.060690 -0.594207
O120  O     O_R   0.000000 0.134240 0.060690 -0.631785
O121  O     O_R   0.000000 0.865760 0.939310 -0.635934
O122  O     O_2   0.357960 0.625027 0.299921 -0.206448
O123  O     O_2   0.295019 0.555910 0.364275 -0.177498
O124  O     O_3   0.348470 0.630455 0.440044 -0.528129
O125  O     O_2   0.355816 0.375529 0.700295 -0.223149
O126  O     O_2   0.294420 0.444199 0.633569 -0.197320
O127  O     O_3   0.348583 0.368662 0.560252 -0.524551
O128  O     O_2   0.364166 0.621920 0.595804 -0.223361
O129  O     O_R   0.414580 0.280300 0.646120 -0.562833
O130  O     O_2   0.327593 0.564431 0.693636 -0.137042
O131  O     O_3   0.422690 0.634609 0.724486 -0.419714
O132  O     O_2   0.362598 0.378674 0.407230 -0.222089
O133  O     O_2   0.324087 0.438832 0.313156 -0.203575
O134  O     O_3   0.415275 0.366965 0.276117 -0.433159
O135  O     O_2   0.849446 0.123826 0.799513 -0.191688
O136  O     O_2   0.789438 0.059539 0.875473 -0.197830
O137  O     O_3   0.851423 0.136715 0.938663 -0.563063
O138  O     O_2   0.846585 0.875562 0.197896 -0.217008
O139  O     O_2   0.787321 0.939318 0.120533 -0.208524
O140  O     O_R   0.414580 0.719700 0.646120 -0.584322
O141  O     O_3   0.851590 0.862467 0.058824 -0.560082
O142  O     O_2   0.856419 0.127704 0.084224 -0.280502
O143  O     O_2   0.803130 0.064809 0.166528 -0.157056
O144  O     O_3   0.890527 0.132232 0.221391 -0.426193
O145  O     O_2   0.857246 0.873199 0.912750 -0.273173
O146  O     O_2   0.807964 0.935190 0.826757 -0.158114
O147  O     O_3   0.897431 0.867069 0.777129 -0.417988
O148  O     O_2   0.272940 0.698766 0.545427 -0.304203
O149  O     O_2   0.212909 0.630055 0.612271 -0.082547
O150  O     O_3   0.137012 0.710585 0.578252 -0.483572
O151  O     O_R   0.585420 0.280300 0.353880 -0.598813
O152  O     O_2   0.848884 0.255166 0.454267 -0.147311
O153  O     O_2   0.825021 0.343384 0.412403 -0.218192
O154  O     O_3   0.720128 0.294550 0.473778 -0.584110
O155  O     O_2   0.779374 0.816764 0.450805 -0.139627
O156  O     O_2   0.838094 0.866089 0.354361 -0.110246
O157  O     O_3   0.697240 0.869711 0.363317 -0.512700
O158  O     O_2   0.259772 0.137578 0.594306 -0.223923
O159  O     O_2   0.134114 0.164121 0.622378 -0.172506
O160  O     O_3   0.213309 0.226249 0.547038 -0.507042
O161  O     O_2   0.341429 0.110604 0.225557 -0.151339
O162  O     O_R   0.585420 0.280300 0.646120 -0.573741
O163  O     O_2   0.433848 0.175369 0.196540 -0.196373
O164  O     O_3   0.412451 0.150420 0.330740 -0.537740
O165  O     O_2   0.850460 0.744625 0.545125 -0.163841
O166  O     O_2   0.822375 0.656735 0.586017 -0.209919
O167  O     O_3   0.720482 0.707942 0.524152 -0.582793
O168  O     O_2   0.779299 0.184072 0.548582 -0.188422
O169  O     O_2   0.839044 0.134733 0.644704 -0.113462
O170  O     O_3   0.698078 0.130521 0.636888 -0.518989
O171  O     O_2   0.256799 0.860322 0.408666 -0.178069
O172  O     O_2   0.132182 0.832981 0.378780 -0.178601
S1    S     S_3+6 0.358842 0.592489 0.367156 0.146658
S2    S     S_3+6 0.793566 0.290020 0.419015 0.130682
S3    S     S_3+6 0.772917 0.833268 0.372966 0.180854
S4    S     S_3+6 0.211771 0.182536 0.614201 0.137193
S5    S     S_3+6 0.374284 0.161009 0.248997 0.143554
S6    S     S_3+6 0.793429 0.710797 0.579709 0.125294
S7    S     S_3+6 0.773460 0.167195 0.626337 0.171815
S8    S     S_3+6 0.210158 0.815185 0.386649 0.146084
S9    S     S_3+6 0.702189 0.317855 0.129685 0.135317
S10   S     S_3+6 0.252324 0.833054 0.881975 0.120892
S11   S     S_3+6 0.273856 0.332008 0.873369 0.173486
S12   S     S_3+6 0.358027 0.407392 0.632448 0.135198
S13   S     S_3+6 0.698204 0.709126 0.105711 0.172375
S14   S     S_3+6 0.705018 0.679445 0.869221 0.148964
S15   S     S_3+6 0.138506 0.345261 0.243814 0.141560
S16   S     S_3+6 0.274459 0.668499 0.125958 0.167352
S17   S     S_3+6 0.697901 0.289919 0.894393 0.168548
S18   S     S_3+6 0.599010 0.222914 0.204733 0.133782
S19   S     S_3+6 0.379496 0.834854 0.755213 0.128636
S20   S     S_3+6 0.415857 0.266470 0.803225 0.157605
S21   S     S_3+6 0.664515 0.646414 0.265374 0.122815
S22   S     S_3+6 0.598440 0.772994 0.796516 0.146018
S23   S     S_3+6 0.390978 0.593475 0.661331 0.176210
S24   S     S_3+6 0.218427 0.311763 0.395274 0.138864
S25   S     S_3+6 0.416146 0.734247 0.196681 0.156327
S26   S     S_3+6 0.664395 0.353414 0.735162 0.119649
S27   S     S_3+6 0.135546 0.655793 0.755306 0.142118
S28   S     S_3+6 0.926301 0.270552 0.295203 0.158255
S29   S     S_3+6 0.916481 0.769063 0.302246 0.146177
S30   S     S_3+6 0.169273 0.141637 0.781245 0.129712
S31   S     S_3+6 0.256287 0.169824 0.114430 0.115901
S32   S     S_3+6 0.926702 0.733458 0.699680 0.129440
S33   S     S_3+6 0.916689 0.231783 0.697585 0.143473
S34   S     S_3+6 0.387439 0.407730 0.341463 0.153478
S35   S     S_3+6 0.168565 0.858114 0.220228 0.128943
S36   S     S_3+6 0.854673 0.094701 0.869602 0.143463
S37   S     S_3+6 0.852891 0.904614 0.127811 0.131421
S38   S     S_3+6 0.871433 0.094850 0.149448 0.152278
S39   S     S_3+6 0.875299 0.905226 0.847435 0.156636
S40   S     S_3+6 0.218937 0.687538 0.604635 0.156778
Zn1   Zn    Zn3+2 0.500000 0.706650 0.586810 1.125138
Zn2   Zn    Zn3+2 0.413290 0.206580 0.500000 1.115420
Zn3   Zn    Zn3+2 0.413290 0.793420 0.500000 1.148718
Zn4   Zn    Zn3+2 0.586710 0.206580 0.500000 1.092343
Zn5   Zn    Zn3+2 0.086710 0.293420 0.000000 1.149271
Zn6   Zn    Zn3+2 0.913290 0.706580 0.000000 1.092519
Zn7   Zn    Zn3+2 0.913290 0.293420 0.000000 1.078598
Zn8   Zn    Zn3+2 0.086710 0.706580 0.000000 1.124496
Zn9   Zn    Zn3+2 0.500000 0.293350 0.413190 1.150977
Zn10  Zn    Zn3+2 0.500000 0.706650 0.413190 1.158625
Zn11  Zn    Zn3+2 0.500000 0.293350 0.586810 1.163381
Zn12  Zn    Zn3+2 0.000000 0.206650 0.086810 1.136603
Zn13  Zn    Zn3+2 1.000000 0.793350 0.913190 1.119780
Zn14  Zn    Zn3+2 1.000000 0.206650 0.913190 1.168044
Zn15  Zn    Zn3+2 0.000000 0.793350 0.086810 1.160290
Zn16  Zn    Zn3+2 0.586710 0.793420 0.500000 1.135658

loop_
_geom_bond_atom_site_label_1
_geom_bond_atom_site_label_2
_ccdc_geom_bond_type
C11   C96   A    
C59   O116  A    
C55   O111  A    
O29   S17   S    
C56   O112  A    
C96   S4    S    
C62   C83   A    
O99   Zn8   S    
O51   S25   D    
O78   S33   S    
O97   Zn6   S    
C3    C105  A    
O171  S8    D    
O146  S39   D    
C34   C102  S    
O49   S24   S    
O108  Zn4   S    
C24   C96   A    
H38   O65   S    
C13   O57   A    
H2    O127  S    
C6    S25   S    
O105  Zn2   S    
O96   Zn12  S    
O22   S15   S    
C74   F2    S    
C100  S8    S    
H33   O52   S    
C21   O86   A    
C57   O113  A    
C21   O95   A    
C40   C43   A    
O34   S19   D    
H18   O6    S    
C70   C84   A    
O130  S23   D    
O157  S3    S    
C7    S26   S    
O5    S9    D    
O107  Zn6   S    
C22   C47   S    
O142  S38   D    
O143  S38   D    
H27   O32   S    
O8    S10   D    
C41   C49   A    
C1    O118  A    
O160  S4    S    
C99   S7    S    
H13   O160  S    
C29   C69   S    
C76   C77   A    
O147  S39   S    
O52   S25   S    
C50   C53   S    
C102  O103  A    
C86   C90   A    
O42   S21   S    
C101  C110  A    
C109  S17   S    
O166  S6    D    
C60   O120  A    
C102  O35   A    
O117  Zn14  S    
C105  S13   S    
C71   C74   A    
O112  Zn8   S    
C93   S40   S    
O53   S26   D    
O79   Zn15  S    
O36   S19   S    
O131  S23   S    
O76   S33   D    
C38   C109  A    
O113  Zn10  S    
C12   C97   A    
C19   O98   A    
C59   O114  A    
C2    O46   A    
C47   O151  A    
O56   S27   D    
O41   S21   D    
O26   S16   S    
O1    Zn1   S    
O28   S17   D    
C5    C107  A    
C68   C77   A    
C11   S30   S    
C80   O88   A    
O57   Zn12  S    
C70   S39   S    
C3    C26   A    
H3    O131  S    
C8    C93   A    
C72   C73   A    
C21   C35   S    
O124  S1    S    
O141  S37   S    
O115  Zn1   S    
C91   O87   A    
H20   O12   S    
O127  S12   S    
H41   O75   S    
C35   C107  A    
O170  S7    S    
O45   S22   S    
C54   O108  A    
C23   C36   S    
H31   O45   S    
C16   S35   S    
C101  S9    S    
C42   H23   S    
C44   C48   A    
H10   O154  S    
O90   Zn4   S    
C28   C97   A    
O74   S32   D    
C65   C79   A    
C57   O115  A    
C13   C32   S    
H35   O55   S    
C24   C112  A    
O158  S4    D    
O13   Zn9   S    
O136  S36   D    
C85   C86   A    
H22   O19   S    
C76   F8    S    
O32   S18   S    
C58   O90   A    
O151  Zn9   S    
C103  C111  A    
C78   F6    S    
C20   O84   A    
O137  S36   S    
O64   S29   D    
O33   S19   D    
O24   Zn1   S    
O148  S40   D    
O167  S6    S    
O114  Zn11  S    
C18   O79   A    
O11   S11   D    
H6    O141  S    
O93   Zn2   S    
C64   C73   A    
C27   C91   S    
C43   H34   S    
O1    Zn3   S    
O62   S28   S    
O18   S14   D    
H9    O150  S    
C44   C52   A    
O110  Zn6   S    
O61   S28   D    
C68   C85   A    
C22   C94   A    
C84   C90   A    
O96   Zn7   S    
C85   C92   A    
C14   C98   A    
C60   C92   S    
O101  Zn7   S    
C39   C108  A    
C83   C89   A    
C63   C82   A    
O75   S32   S    
O12   S11   S    
O85   Zn9   S    
C104  C112  A    
C16   C100  A    
C22   C110  A    
C4    C106  A    
C65   C74   A    
C23   C93   A    
O125  S12   D    
C5    S24   S    
O14   S13   D    
H19   O9    S    
C13   O101  A    
O106  Zn3   S    
O145  S39   D    
H32   O49   S    
C3    S21   S    
C12   C35   A    
O16   S13   S    
C42   C50   A    
O128  S23   D    
H15   O167  S    
C53   O106  A    
C1    C26   S    
C47   O91   A    
C4    C27   A    
C61   C90   S    
H28   O36   S    
C69   O89   A    
O102  Zn6   S    
C17   O68   A    
O100  Zn8   S    
O92   Zn3   S    
C8    C31   A    
O54   S26   D    
H43   O82   S    
O89   Zn3   S    
O140  Zn1   S    
H8    O147  S    
C23   C111  A    
O155  S3    D    
O59   S27   S    
O15   S13   D    
C66   S36   S    
C20   C37   S    
C19   O83   A    
C48   H47   S    
H24   O22   S    
C10   C95   A    
C82   C88   A    
C62   C71   A    
C10   C33   A    
C36   O92   A    
H5    O137  S    
C62   S1    S    
C97   S5    S    
C64   C81   A    
C1    O94   A    
C15   S33   S    
O27   S17   D    
C8    S27   S    
C25   O129  A    
C32   C101  A    
C9    C94   A    
O82   S35   S    
O55   S26   S    
O133  S34   D    
O30   S18   D    
H14   O164  S    
C41   C42   A    
O3    S8    S    
C112  S20   S    
O85   Zn11  S    
O150  S40   S    
O86   Zn12  S    
C45   C46   A    
H7    O144  S    
C10   S29   S    
C57   C89   S    
O149  S40   D    
O1    Zn10  S    
C17   O100  A    
C18   O99   A    
C14   S32   S    
C26   C95   A    
C73   F1    S    
C60   O117  A    
C64   S23   S    
O96   Zn14  S    
O65   S29   S    
O19   S14   S    
O98   Zn7   S    
O37   S20   D    
C108  S16   S    
O50   S25   D    
H11   O157  S    
O121  Zn13  S    
O118  Zn10  S    
C84   C87   A    
C52   C55   S    
O20   S15   D    
C81   C89   A    
C7    C30   A    
C87   C92   A    
O138  S37   D    
O66   S30   D    
H16   O170  S    
C79   C88   A    
O63   S29   D    
C98   S6    S    
C2    O102  A    
O116  Zn9   S    
C33   C105  A    
O4    S9    D    
C110  S18   S    
O47   S24   D    
O35   Zn14  S    
O144  S38   S    
O44   S22   D    
C18   C39   S    
C106  S14   S    
C19   C38   S    
C25   O93   A    
O2    Zn10  S    
O73   S32   D    
O111  Zn7   S    
H48   O124  S    
O109  Zn5   S    
O21   S15   D    
C2    C33   S    
O135  S36   D    
O139  S37   D    
O38   S20   D    
H30   O42   S    
O129  Zn11  S    
C111  S19   S    
C67   C86   A    
C46   H46   S    
C29   C100  A    
O40   S21   D    
O154  S2    S    
C41   H12   S    
C65   S34   S    
O67   S30   D    
O23   S16   D    
O80   S35   D    
C91   O24   A    
C72   F4    S    
C36   O140  A    
C12   S31   S    
C9    S28   S    
C14   C37   A    
C79   C83   A    
O83   Zn14  S    
H25   O26   S    
O165  S6    D    
O168  S7    D    
C40   C50   A    
C66   C75   A    
C67   S37   S    
O60   S28   D    
O85   Zn2   S    
O39   S20   S    
H4    O134  S    
C16   C39   A    
O81   S35   D    
C6    C29   A    
C63   C72   A    
O107  Zn15  S    
O96   Zn5   S    
C44   H44   S    
C45   H45   S    
C63   S12   S    
O25   S16   D    
C107  S15   S    
C27   C98   A    
C70   C78   A    
O43   S22   D    
H29   O39   S    
C81   C82   A    
O153  S2    D    
C40   H1    S    
O134  S34   S    
O6    S9    S    
O17   S14   D    
O69   S30   S    
O7    S10   D    
C77   F5    S    
C61   O121  A    
C45   C51   A    
C49   C54   S    
C46   C52   A    
O84   Zn13  S    
C58   O162  A    
C51   C56   S    
C59   C88   S    
O71   S31   D    
O70   S31   D    
C48   C51   A    
O164  S5    S    
C53   O104  A    
O104  Zn16  S    
O46   Zn15  S    
O152  S2    D    
H37   O62   S    
O72   S31   S    
O48   S24   D    
O10   S11   D    
H17   O3    S    
O87   Zn16  S    
C56   O110  A    
C75   F7    S    
C24   C25   S    
C66   C87   A    
O120  Zn12  S    
O91   Zn4   S    
C43   C49   A    
C30   C99   A    
C34   C104  A    
C7    C109  A    
O159  S4    D    
O122  S1    D    
C31   C103  A    
H42   O78   S    
O85   Zn4   S    
C15   C38   A    
O9    S10   S    
C5    C28   A    
C104  S11   S    
O103  Zn5   S    
O132  S34   D    
O107  Zn13  S    
O162  Zn11  S    
C94   S2    S    
H39   O69   S    
C71   F3    S    
C80   O13   A    
C9    C32   A    
O126  S12   D    
H36   O59   S    
O107  Zn8   S    
H40   O72   S    
C11   C34   A    
C15   C99   A    
C20   O97   A    
O88   Zn2   S    
C55   O109  A    
O58   S27   D    
O77   S33   D    
C95   S3    S    
H21   O16   S    
H26   O29   S    
O161  S5    D    
C37   C106  A    
O123  S1    D    
C4    S22   S    
C54   O105  A    
C17   C31   S    
C30   C58   S    
O31   S18   D    
C69   O2    A    
C61   O119  A    
C103  S10   S    
O94   Zn16  S    
O68   Zn13  S    
C28   C80   S    
C75   C78   A    
O95   Zn5   S    
O163  S5    D    
O169  S7    D    
C68   S38   S    
O156  S3    D    
C6    C108  A    
O1    Zn16  S    
C67   C76   A    
O172  S8    D    
O119  Zn15  S    
