data_mof_unit_50220.cif
_audit_creation_date              2012-12-10T18:00:48-0500
_audit_creation_method            fapswitch 2.2
_symmetry_space_group_name_H-M    P1
_symmetry_Int_Tables_number       1
_space_group_crystal_system       triclinic
_cell_length_a                    15.87646
_cell_length_b                    10.77317
_cell_length_c                    9.638526
_cell_angle_alpha                 90.359753
_cell_angle_beta                  89.80344
_cell_angle_gamma                 91.533724
_cell_volume                      1647.93971147

loop_
_atom_site_label
_atom_site_type_symbol
_atom_type_description
_atom_site_fract_x
_atom_site_fract_y
_atom_site_fract_z
_atom_type_partial_charge
C1    C     C_R   0.502000 0.262846 0.499690 0.819347
C2    C     C_R   0.498073 0.737188 0.500315 0.829921
C3    C     C_R   0.436424 0.935952 0.422891 0.006098
C4    C     C_R   0.563594 0.064168 0.577265 0.007502
C5    C     C_R   0.496038 0.871184 0.500968 -0.086948
C6    C     C_R   0.504042 0.128902 0.499073 -0.093768
C7    C     C_R   0.451840 0.414718 0.073747 0.031622
C8    C     C_R   0.550593 0.581600 0.926055 0.028898
C9    C     C_R   0.450691 0.416344 0.925397 0.068663
C10   C     C_R   0.549660 0.583097 0.074161 0.060197
C11   C     C_R   0.340139 0.499346 0.500251 0.840673
C12   C     C_R   0.659865 0.500585 0.499745 0.855138
C13   C     C_3   0.970823 0.386990 0.536196 -0.045443
C14   C     C_3   0.029178 0.612000 0.463640 -0.051116
C15   C     C_3   0.029053 0.413731 0.409849 -0.270307
C16   C     C_3   0.970969 0.585249 0.590008 -0.259736
C17   C     C_1   0.250600 0.500084 0.501120 -0.036708
C18   C     C_1   0.749407 0.499512 0.498829 -0.005239
C19   C     C_3   0.025970 0.473722 0.627800 -0.057263
C20   C     C_3   0.974056 0.525248 0.372028 -0.059865
C21   C     C_3   0.083552 0.501506 0.502520 0.038816
C22   C     C_3   0.916455 0.497491 0.497302 0.036246
C23   C     C_1   0.175170 0.500921 0.502085 0.108177
C24   C     C_1   0.824834 0.498360 0.497783 0.118292
C25   C     C_R   0.441736 0.065037 0.423043 -0.181742
C26   C     C_R   0.558344 0.935101 0.577017 -0.224440
Cu1   Cu    Cu3+1 0.500000 0.500020 0.640660 1.028534
Cu2   Cu    Cu3+1 0.500000 0.499980 0.359340 1.019105
H1    H     H_    0.053139 0.343440 0.336002 0.184933
H2    H     H_    0.946886 0.655527 0.663876 0.194296
H3    H     H_    0.394726 0.116889 0.368577 0.189370
H4    H     H_    0.605486 0.883444 0.631340 0.167788
N1    N     N_R   0.500020 0.500030 0.852070 -0.242473
N2    N     N_R   0.499980 0.499970 0.147930 -0.241807
O1    O     O_R   0.500000 0.319660 0.618740 -0.560806
O2    O     O_R   0.500000 0.680340 0.381260 -0.553800
O3    O     O_R   0.499990 0.319630 0.381170 -0.579374
O4    O     O_R   0.500010 0.680370 0.618830 -0.617199
O5    O     O_R   0.379080 0.500000 0.618760 -0.553126
O6    O     O_R   0.620920 0.500000 0.381240 -0.556274
O7    O     O_R   0.379080 0.499970 0.381190 -0.602028
O8    O     O_R   0.620920 0.500030 0.618810 -0.533810
C27   C     C_2   0.940455 0.259128 0.576021 0.900634
O9    O     O_2   0.991656 0.180235 0.603260 -0.556675
O10   O     O_R   0.854209 0.230548 0.581555 -0.723198
H5    H     H_    0.841862 0.141293 0.609398 0.351369
C28   C     C_2   0.059483 0.739894 0.423813 0.897743
O11   O     O_2   0.008237 0.818717 0.396547 -0.558064
O12   O     O_R   0.145713 0.768586 0.418316 -0.727211
H6    H     H_    0.158008 0.857858 0.390490 0.349161
C29   C     C_2   0.947692 0.552889 0.226543 0.907033
O13   O     O_2   0.001385 0.575970 0.138607 -0.550005
O14   O     O_R   0.862370 0.551473 0.191829 -0.719678
H7    H     H_    0.852851 0.571031 0.090414 0.377355
C30   C     C_2   0.052536 0.445709 0.773100 0.910257
O15   O     O_2   0.998933 0.423889 0.861556 -0.545380
O16   O     O_R   0.137968 0.444998 0.806950 -0.712642
H8    H     H_    0.147625 0.425279 0.908284 0.361930
C31   C     C_2   0.366271 0.873785 0.344876 0.872755
O17   O     O_2   0.337659 0.772715 0.381330 -0.585298
O18   O     O_R   0.330947 0.933278 0.231256 -0.713078
H9    H     H_    0.283273 0.882587 0.187261 0.350498
C32   C     C_2   0.633636 0.126344 0.655539 0.889571
O19   O     O_2   0.662314 0.227401 0.619169 -0.575682
O20   O     O_R   0.668769 0.066865 0.769338 -0.735970
H10   H     H_    0.716390 0.117549 0.813499 0.358404
C33   C     C_2   0.401194 0.318003 0.146519 0.430721
H11   H     H_    0.352657 0.342004 0.219694 0.074706
O21   O     O_2   0.412516 0.208406 0.121975 -0.490718
C34   C     C_2   0.606549 0.670590 0.852897 0.466856
H12   H     H_    0.582951 0.759766 0.822996 0.079458
O22   O     O_2   0.680759 0.648139 0.835112 -0.521007
C35   C     C_2   0.393350 0.328178 0.852025 0.918453
O23   O     O_2   0.321484 0.358056 0.825715 -0.582014
O24   O     O_R   0.418705 0.206946 0.825820 -0.701464
H13   H     H_    0.373320 0.154248 0.778348 0.334148
C36   C     C_2   0.603309 0.676764 0.146363 0.894641
O25   O     O_2   0.578633 0.782653 0.160579 -0.583471
O26   O     O_R   0.685168 0.647798 0.184627 -0.705987
H14   H     H_    0.716537 0.720556 0.229758 0.341507

loop_
_geom_bond_atom_site_label_1
_geom_bond_atom_site_label_2
_ccdc_geom_bond_type
C25   H3    S    
C30   O15   D    
C32   O20   S    
C26   H4    S    
C35   O23   D    
C27   O9    D    
C28   O12   S    
O10   H5    S    
Cu1   N1    S    
C4    C32   S    
C17   C23   T    
C18   C24   T    
C14   C21   S    
C19   C21   S    
C20   C29   S    
C6    C25   A    
Cu2   O6    S    
Cu1   O4    S    
C16   H2    S    
Cu2   O7    S    
C2    O2    A    
C12   O8    A    
Cu1   O5    S    
C34   H12   S    
C1    O3    A    
Cu2   N2    S    
C31   O17   D    
C9    N1    A    
C35   O24   S    
C9    C35   S    
C10   C36   S    
C15   H1    S    
C36   O26   S    
C15   C20   S    
C31   O18   S    
C13   C19   S    
C33   H11   S    
C14   C20   S    
C3    C25   A    
C4    C6    A    
Cu1   O1    S    
C36   O25   D    
O26   H14   S    
C33   O21   D    
C12   O6    A    
O24   H13   S    
C2    O4    A    
C28   O11   D    
C10   N2    A    
C30   O16   S    
C11   O5    A    
C27   O10   S    
C20   C22   S    
O20   H10   S    
C13   C15   S    
C7    N2    A    
C14   C16   S    
C2    C5    S    
C13   C27   S    
C1    O1    A    
C19   C30   S    
C7    C9    A    
C11   C17   S    
C16   C22   S    
C32   O19   D    
C3    C5    A    
C4    C26   A    
O14   H7    S    
C14   C28   S    
C8    C34   S    
C21   C23   S    
C29   O13   D    
Cu1   O8    S    
O16   H8    S    
Cu2   O3    S    
C16   C19   S    
C13   C22   S    
C11   O7    A    
C22   C24   S    
C8    N1    A    
O18   H9    S    
C7    C33   S    
C5    C26   A    
C15   C21   S    
Cu2   O2    S    
C8    C10   A    
O12   H6    S    
C12   C18   S    
C1    C6    S    
C34   O22   D    
C29   O14   S    
Cu1   Cu2   S    
C3    C31   S    
