data_mof_unit_61641.cif
_audit_creation_date              2012-12-10T19:22:26-0500
_audit_creation_method            fapswitch 2.2
_symmetry_space_group_name_H-M    P1
_symmetry_Int_Tables_number       1
_space_group_crystal_system       triclinic
_cell_length_a                    17.732924
_cell_length_b                    16.475716
_cell_length_c                    10.956384
_cell_angle_alpha                 89.987929
_cell_angle_beta                  90.932999
_cell_angle_gamma                 90.345225
_cell_volume                      3200.56333901

loop_
_atom_site_label
_atom_site_type_symbol
_atom_type_description
_atom_site_fract_x
_atom_site_fract_y
_atom_site_fract_z
_atom_type_partial_charge
C1    C     C_R   0.355090 0.499641 0.499763 0.822131
C2    C     C_R   0.644521 0.500359 0.502636 0.773722
C3    C     C_R   0.884910 0.506076 0.499510 0.044671
C4    C     C_R   0.113616 0.506140 0.498523 0.053384
C5    C     C_1   0.965441 0.508255 0.497508 -0.016983
C6    C     C_1   0.033074 0.508443 0.497417 -0.016731
C7    C     C_R   0.543968 0.829823 0.585206 0.162883
C8    C     C_R   0.455752 0.829098 0.414495 0.162773
C9    C     C_R   0.546268 0.742925 0.579644 0.423936
C10   C     C_R   0.453774 0.742190 0.420044 0.423715
C11   C     C_R   0.499710 0.872970 0.499911 -0.043693
C12   C     C_1   0.499353 0.962731 0.500000 0.218190
C13   C     C_1   0.498993 0.037177 0.500189 0.223698
C14   C     C_R   0.546061 0.170461 0.581725 0.178315
C15   C     C_R   0.453732 0.170363 0.416885 0.177374
C16   C     C_R   0.544680 0.257414 0.581798 0.468517
C17   C     C_R   0.453620 0.257382 0.420058 0.463925
C18   C     C_R   0.498608 0.126942 0.500957 -0.046457
C19   C     C_R   0.500328 0.499689 0.264694 0.904675
C20   C     C_R   0.498938 0.499721 0.735158 0.902826
C21   C     C_2   0.485506 0.433986 0.934338 0.271599
C22   C     C_2   0.504529 0.432463 0.064418 0.283002
C23   C     C_2   0.505292 0.498779 0.866985 -0.429190
C24   C     C_2   0.492236 0.498878 0.132841 -0.428077
C25   C     C_R   0.843056 0.560752 0.429088 -0.143115
C26   C     C_R   0.155259 0.574344 0.464572 -0.149445
C27   C     C_R   0.764585 0.558617 0.432096 -0.216597
C28   C     C_R   0.233776 0.571210 0.465012 -0.226032
C29   C     C_R   0.727248 0.501894 0.505786 -0.131644
C30   C     C_R   0.271715 0.499415 0.497892 -0.132201
C31   C     C_R   0.770020 0.447964 0.580081 0.408247
C32   C     C_R   0.228662 0.430071 0.531052 0.397772
C33   C     C_R   0.848594 0.449660 0.573833 -0.127935
C34   C     C_R   0.150158 0.434789 0.533009 -0.142982
Cu1   Cu    Cu3+1 0.500000 0.580420 0.500000 1.041424
Cu2   Cu    Cu3+1 0.500000 0.419580 0.500000 1.097339
H1    H     H_    0.532587 0.551098 0.909396 0.145587
H2    H     H_    0.469859 0.553720 0.091094 0.148141
H3    H     H_    0.871038 0.604731 0.371561 0.154186
H4    H     H_    0.127085 0.629946 0.438013 0.155213
H5    H     H_    0.732862 0.600661 0.375479 0.167498
H6    H     H_    0.264810 0.625105 0.438867 0.189252
H7    H     H_    0.881458 0.408232 0.629883 0.164925
H8    H     H_    0.117571 0.381990 0.559730 0.165830
N1    N     N_R   0.500000 0.701220 0.500000 -0.215429
N2    N     N_R   0.500000 0.298780 0.500000 -0.213881
O1    O     O_R   0.391260 0.567930 0.500000 -0.554708
O2    O     O_R   0.608740 0.567930 0.500000 -0.548857
O3    O     O_R   0.391280 0.432120 0.500000 -0.540044
O4    O     O_R   0.608720 0.432120 0.500000 -0.534960
O5    O     O_R   0.500000 0.567890 0.321940 -0.548780
O6    O     O_R   0.500000 0.567890 0.678060 -0.545733
O7    O     O_R   0.500030 0.432070 0.321950 -0.498331
O8    O     O_R   0.499970 0.432070 0.678050 -0.507601
Br1   Br    Br    0.430093 0.341435 0.870566 -0.381013
Br2   Br    Br    0.549827 0.333574 0.124996 -0.396006
O9    O     O_3   0.586907 0.301912 0.664685 -0.670256
H9    H     H_    0.592063 0.270361 0.741268 0.346667
O10   O     O_3   0.406469 0.302029 0.345087 -0.676429
H10   H     H_    0.361024 0.269236 0.324829 0.314430
O11   O     O_3   0.738047 0.395148 0.662373 -0.689241
H11   H     H_    0.688575 0.416822 0.686558 0.349361
O12   O     O_3   0.261211 0.358101 0.566027 -0.687261
H12   H     H_    0.289381 0.338527 0.494678 0.346600
O13   O     O_3   0.583564 0.873734 0.672704 -0.684904
H13   H     H_    0.590962 0.839282 0.745913 0.342183
O14   O     O_3   0.416096 0.872350 0.326869 -0.686430
H14   H     H_    0.409247 0.837926 0.253426 0.342324
O15   O     O_3   0.594864 0.698782 0.652813 -0.690555
H15   H     H_    0.640220 0.732246 0.671070 0.317447
O16   O     O_3   0.405613 0.697298 0.346330 -0.698149
H16   H     H_    0.360210 0.729995 0.327610 0.309937
O17   O     O_3   0.594399 0.126745 0.656466 -0.675307
H17   H     H_    0.639647 0.160298 0.674966 0.351695
O18   O     O_3   0.412567 0.126551 0.331180 -0.679980
H18   H     H_    0.407295 0.159588 0.256068 0.359543

loop_
_geom_bond_atom_site_label_1
_geom_bond_atom_site_label_2
_ccdc_geom_bond_type
C15   C18   A    
C15   O18   S    
C9    N1    A    
C27   C29   A    
O17   H17   S    
C14   C18   A    
Cu1   Cu2   S    
Cu1   O1    S    
C7    C11   A    
C13   C18   S    
C2    C29   S    
C9    O15   S    
C5    C6    T    
C3    C33   A    
C15   C17   A    
C31   O11   S    
Cu2   O7    S    
C2    O4    A    
C24   H2    S    
C31   C33   A    
Cu2   N2    S    
C10   O16   S    
C19   O7    A    
O10   H10   S    
C21   C22   S    
O11   H11   S    
Cu1   O2    S    
C4    C34   A    
O14   H14   S    
C33   H7    S    
C14   O17   S    
C3    C25   A    
C34   H8    S    
C17   N2    A    
C4    C6    S    
C16   N2    A    
C21   Br1   S    
C1    O1    A    
C22   Br2   S    
C2    O2    A    
C23   H1    S    
C32   C34   A    
O18   H18   S    
C7    O13   S    
C27   H5    S    
C20   C23   S    
C10   N1    A    
C17   O10   S    
C20   O8    A    
C21   C23   D    
Cu1   O5    S    
C22   C24   D    
Cu1   N1    S    
Cu2   O4    S    
C7    C9    A    
C8    C10   A    
C32   O12   S    
C3    C5    S    
C4    C26   A    
C11   C12   S    
C25   C27   A    
C26   C28   A    
C28   C30   A    
C19   C24   S    
O16   H16   S    
C20   O6    A    
C25   H3    S    
C30   C32   A    
C26   H4    S    
O9    H9    S    
C8    C11   A    
C28   H6    S    
C1    C30   S    
C14   C16   A    
C16   O9    S    
O15   H15   S    
Cu2   O8    S    
O12   H12   S    
C19   O5    A    
C12   C13   T    
C8    O14   S    
C29   C31   A    
O13   H13   S    
Cu1   O6    S    
C1    O3    A    
Cu2   O3    S    
