data_mof_unit_61733.cif
_audit_creation_date              2013-03-05T15:42:05-0500
_audit_creation_method            fapswitch 2.2
_symmetry_space_group_name_H-M    P1
_symmetry_Int_Tables_number       1
_space_group_crystal_system       triclinic
_cell_length_a                    21.739874
_cell_length_b                    21.739871
_cell_length_c                    47.16608
_cell_angle_alpha                 89.99999
_cell_angle_beta                  90.0
_cell_angle_gamma                 90.000028
_cell_volume                      22291.729718

loop_
_atom_site_label
_atom_site_type_symbol
_atom_site_description
_atom_site_fract_x
_atom_site_fract_y
_atom_site_fract_z
_atom_type_partial_charge
O1    O     O_R   0.999970 0.909590 0.023670 -0.604439
O2    O     O_R   0.090410 0.999970 0.023670 -0.604441
O3    O     O_R   0.000030 0.090410 0.023670 -0.604439
O4    O     O_R   0.909590 0.000030 0.023670 -0.604436
O5    O     O_R   0.499970 0.409590 0.523670 -0.604440
O6    O     O_R   0.590410 0.499970 0.523670 -0.604438
O7    O     O_R   0.500030 0.590410 0.523670 -0.604441
O8    O     O_R   0.409590 0.500030 0.523670 -0.604440
O9    O     O_R   1.000000 0.909590 0.976330 -0.619961
O10   O     O_R   0.090410 1.000000 0.976330 -0.619960
O11   O     O_R   1.000000 0.090410 0.976330 -0.619960
O12   O     O_R   0.909590 1.000000 0.976330 -0.619960
O13   O     O_R   0.500000 0.409590 0.476330 -0.619960
O14   O     O_R   0.590410 0.500000 0.476330 -0.619960
O15   O     O_R   0.500000 0.590410 0.476330 -0.619961
O16   O     O_R   0.409590 0.500000 0.476330 -0.619960
C1    C     C_R   0.996811 0.880811 0.000239 0.807080
C2    C     C_R   0.119188 0.996811 0.000239 0.807083
C3    C     C_R   0.003189 0.119188 0.000239 0.807082
C4    C     C_R   0.880812 0.003188 0.000239 0.807078
C5    C     C_R   0.496811 0.380812 0.500239 0.807083
C6    C     C_R   0.619188 0.496811 0.500239 0.807081
C7    C     C_R   0.503189 0.619188 0.500239 0.807083
C8    C     C_R   0.380812 0.503189 0.500239 0.807083
Zn1   Zn    Zn3+2 1.000000 1.000000 0.031610 1.020498
Zn2   Zn    Zn3+2 0.500000 0.500000 0.531610 1.020496
Zn3   Zn    Zn3+2 1.000000 0.000000 0.968400 0.998006
Zn4   Zn    Zn3+2 0.500000 0.500000 0.468400 0.998007
C9    C     C_2   0.715082 0.049709 0.985004 -0.032345
C10   C     C_2   0.950292 0.715081 0.985002 -0.032344
C11   C     C_2   0.284919 0.950292 0.985001 -0.032343
C12   C     C_2   0.049708 0.284918 0.985002 -0.032344
C13   C     C_2   0.215082 0.549708 0.485002 -0.032343
C14   C     C_2   0.450292 0.215081 0.485002 -0.032344
C15   C     C_2   0.784918 0.450292 0.485003 -0.032344
C16   C     C_2   0.549708 0.784918 0.485002 -0.032343
C17   C     C_2   0.683338 0.998437 0.990513 -0.317634
C18   C     C_2   0.001563 0.683338 0.990513 -0.317635
C19   C     C_2   0.316661 0.001563 0.990514 -0.317634
C20   C     C_2   0.998437 0.316661 0.990514 -0.317633
C21   C     C_2   0.183338 0.498436 0.490514 -0.317634
C22   C     C_2   0.501563 0.183338 0.490514 -0.317633
C23   C     C_2   0.816661 0.501563 0.490513 -0.317635
C24   C     C_2   0.498436 0.816661 0.490514 -0.317634
C25   C     C_2   0.782613 0.047256 0.983288 -0.026296
C26   C     C_2   0.952745 0.782613 0.983287 -0.026296
C27   C     C_2   0.217387 0.952746 0.983286 -0.026295
C28   C     C_2   0.047255 0.217387 0.983286 -0.026295
C29   C     C_2   0.282613 0.547254 0.483286 -0.026296
C30   C     C_2   0.452745 0.282613 0.483286 -0.026296
C31   C     C_2   0.717387 0.452745 0.483287 -0.026296
C32   C     C_2   0.547254 0.717387 0.483286 -0.026297
C33   C     C_2   0.814606 0.012598 0.002309 -0.285330
C34   C     C_2   0.987400 0.814606 0.002309 -0.285334
C35   C     C_2   0.185394 0.987398 0.002309 -0.285336
C36   C     C_2   0.012601 0.185394 0.002309 -0.285333
C37   C     C_2   0.314606 0.512601 0.502309 -0.285334
C38   C     C_2   0.487399 0.314606 0.502309 -0.285334
C39   C     C_2   0.685394 0.487400 0.502309 -0.285333
C40   C     C_2   0.512602 0.685394 0.502309 -0.285336
O17   O     O_R   0.500030 0.051130 0.958080 -0.628318
O18   O     O_R   0.948870 0.500030 0.958080 -0.628318
O19   O     O_R   0.499970 0.948870 0.958080 -0.628319
O20   O     O_R   0.051130 0.499970 0.958080 -0.628319
O21   O     O_R   0.000030 0.551130 0.458080 -0.628319
O22   O     O_R   0.448870 0.000030 0.458080 -0.628319
O23   O     O_R   0.999970 0.448870 0.458080 -0.628318
O24   O     O_R   0.551130 0.999970 0.458080 -0.628319
C41   C     C_R   0.500000 1.000000 0.944518 0.862157
C42   C     C_R   1.000000 0.500000 0.944518 0.862158
C43   C     C_R   1.000000 0.500000 0.444518 0.862158
C44   C     C_R   0.500000 1.000000 0.444518 0.862158
O25   O     O_R   0.590470 0.051110 0.000000 -0.614216
O26   O     O_R   0.948890 0.590470 0.000000 -0.614215
O27   O     O_R   0.409530 0.948890 0.000000 -0.614213
O28   O     O_R   0.051110 0.409530 0.000000 -0.614214
O29   O     O_R   0.090470 0.551110 0.500000 -0.614214
O30   O     O_R   0.448890 0.090470 0.500000 -0.614214
O31   O     O_R   0.909530 0.448890 0.500000 -0.614215
O32   O     O_R   0.551110 0.909530 0.500000 -0.614213
O33   O     O_R   0.590450 0.948970 0.000000 -0.620183
O34   O     O_R   0.051030 0.590450 0.000000 -0.620184
O35   O     O_R   0.409550 0.051030 0.000000 -0.620184
O36   O     O_R   0.948970 0.409550 0.000000 -0.620184
O37   O     O_R   0.090450 0.448970 0.500000 -0.620185
O38   O     O_R   0.551030 0.090450 0.500000 -0.620185
O39   O     O_R   0.909550 0.551030 0.500000 -0.620184
O40   O     O_R   0.448970 0.909550 0.500000 -0.620185
C45   C     C_R   0.618691 0.999892 0.997337 0.966275
C46   C     C_R   0.000108 0.618691 0.997337 0.966274
C47   C     C_R   0.381309 0.000108 0.997337 0.966271
C48   C     C_R   0.999892 0.381309 0.997337 0.966273
C49   C     C_R   0.118691 0.499892 0.497337 0.966272
C50   C     C_R   0.500108 0.118690 0.497337 0.966272
C51   C     C_R   0.881309 0.500108 0.497337 0.966274
C52   C     C_R   0.499892 0.881309 0.497337 0.966272
Zn5   Zn    Zn3+2 0.500010 0.068250 0.000000 0.997936
Zn6   Zn    Zn3+2 0.931750 0.500010 0.000000 0.997937
Zn7   Zn    Zn3+2 0.499990 0.931750 0.000000 0.997938
Zn8   Zn    Zn3+2 0.068250 0.499990 0.000000 0.997936
Zn9   Zn    Zn3+2 0.000010 0.568250 0.500000 0.997936
Zn10  Zn    Zn3+2 0.431750 0.000010 0.500000 0.997936
Zn11  Zn    Zn3+2 0.999990 0.431750 0.500000 0.997936
Zn12  Zn    Zn3+2 0.568250 0.999990 0.500000 0.997937
O41   O     O_R   0.499980 0.051120 0.041920 -0.616442
O42   O     O_R   0.948880 0.499980 0.041920 -0.616441
O43   O     O_R   0.500020 0.948880 0.041920 -0.616440
O44   O     O_R   0.051120 0.500020 0.041920 -0.616442
O45   O     O_R   0.999980 0.551120 0.541920 -0.616441
O46   O     O_R   0.448880 0.999980 0.541920 -0.616441
O47   O     O_R   0.000020 0.448880 0.541920 -0.616441
O48   O     O_R   0.551120 0.000020 0.541920 -0.616442
C53   C     C_R   0.500000 0.000000 0.055481 0.910596
C54   C     C_R   1.000000 0.500000 0.055481 0.910596
C55   C     C_R   1.000000 0.500000 0.555481 0.910596
C56   C     C_R   0.500000 1.000000 0.555481 0.910595
C57   C     C_R   0.962732 0.459689 0.190294 0.495138
C58   C     C_R   0.540311 0.962732 0.190294 0.495138
C59   C     C_R   0.037268 0.540311 0.190294 0.495139
C60   C     C_R   0.459689 0.037268 0.190294 0.495138
C61   C     C_R   0.462732 0.959688 0.690294 0.495138
C62   C     C_R   0.040311 0.462731 0.690294 0.495138
C63   C     C_R   0.537268 0.040312 0.690294 0.495138
C64   C     C_R   0.959689 0.537268 0.690294 0.495138
N1    N     N_R   0.000000 0.500000 0.176242 -0.338561
N2    N     N_R   0.500000 1.000000 0.176242 -0.338561
N3    N     N_R   0.500000 1.000000 0.676242 -0.338561
N4    N     N_R   0.000000 0.500000 0.676242 -0.338561
C65   C     C_R   0.042500 0.537672 0.220054 -0.094509
C66   C     C_R   0.462328 0.042499 0.220055 -0.094509
C67   C     C_R   0.957500 0.462328 0.220055 -0.094508
C68   C     C_R   0.537672 0.957500 0.220055 -0.094509
C69   C     C_R   0.542499 0.037672 0.720055 -0.094509
C70   C     C_R   0.962328 0.542500 0.720055 -0.094509
C71   C     C_R   0.457501 0.962328 0.720055 -0.094508
C72   C     C_R   0.037672 0.457500 0.720055 -0.094508
C73   C     C_R   0.000000 0.500000 0.234966 0.005183
C74   C     C_R   0.500000 1.000000 0.234966 0.005183
C75   C     C_R   0.500000 1.000000 0.734966 0.005183
C76   C     C_R   0.000000 0.500000 0.734966 0.005183
C77   C     C_R   0.086941 0.572371 0.235491 -0.035209
C78   C     C_R   0.427629 0.086941 0.235491 -0.035208
C79   C     C_R   0.913059 0.427629 0.235491 -0.035209
C80   C     C_R   0.572371 0.913059 0.235491 -0.035209
C81   C     C_R   0.586940 0.072371 0.735491 -0.035208
C82   C     C_R   0.927630 0.586941 0.735491 -0.035209
C83   C     C_R   0.413060 0.927629 0.735491 -0.035209
C84   C     C_R   0.072370 0.413059 0.735491 -0.035209
C85   C     C_R   0.585209 0.072127 0.765142 -0.117718
C86   C     C_R   0.927874 0.585210 0.765142 -0.117718
C87   C     C_R   0.414790 0.927873 0.765142 -0.117718
C88   C     C_R   0.072126 0.414790 0.765142 -0.117718
C89   C     C_R   0.085210 0.572126 0.265142 -0.117718
C90   C     C_R   0.427874 0.085210 0.265142 -0.117718
C91   C     C_R   0.914790 0.427874 0.265142 -0.117718
C92   C     C_R   0.572126 0.914790 0.265142 -0.117718
C93   C     C_R   0.542358 0.036484 0.779908 -0.058088
C94   C     C_R   0.963516 0.542359 0.779908 -0.058087
C95   C     C_R   0.457641 0.963516 0.779908 -0.058088
C96   C     C_R   0.036484 0.457641 0.779908 -0.058088
C97   C     C_R   0.042359 0.536484 0.279908 -0.058088
C98   C     C_R   0.463516 0.042359 0.279908 -0.058088
C99   C     C_R   0.957641 0.463516 0.279908 -0.058087
C100  C     C_R   0.536484 0.957641 0.279908 -0.058088
C101  C     C_R   0.500000 1.000000 0.764896 -0.011796
C102  C     C_R   0.000000 0.500000 0.764896 -0.011796
C103  C     C_R   0.000000 0.500000 0.264896 -0.011796
C104  C     C_R   0.500000 1.000000 0.264896 -0.011796
C105  C     C_R   0.541859 0.035456 0.809627 0.523170
C106  C     C_R   0.964545 0.541860 0.809627 0.523171
C107  C     C_R   0.458140 0.964544 0.809627 0.523171
C108  C     C_R   0.035455 0.458140 0.809627 0.523171
C109  C     C_R   0.041860 0.535455 0.309627 0.523170
C110  C     C_R   0.464544 0.041860 0.309627 0.523170
C111  C     C_R   0.958140 0.464545 0.309627 0.523170
C112  C     C_R   0.535456 0.958140 0.309627 0.523170
N5    N     N_R   0.500000 1.000000 0.823812 -0.355246
N6    N     N_R   1.000000 0.500000 0.823812 -0.355246
N7    N     N_R   1.000000 0.500000 0.323812 -0.355246
N8    N     N_R   0.500000 1.000000 0.323812 -0.355246
O49   O     O_2   0.932646 0.416221 0.175348 -0.566650
O50   O     O_2   0.583779 0.932647 0.175348 -0.566650
O51   O     O_2   0.067353 0.583779 0.175348 -0.566651
O52   O     O_2   0.416221 0.067353 0.175348 -0.566651
O53   O     O_2   0.432647 0.916221 0.675347 -0.566651
O54   O     O_2   0.083778 0.432646 0.675347 -0.566651
O55   O     O_2   0.567353 0.083779 0.675347 -0.566650
O56   O     O_2   0.916221 0.567353 0.675347 -0.566650
H1    H     H_    0.619090 0.098578 0.776794 0.226492
H2    H     H_    0.901424 0.619091 0.776794 0.226492
H3    H     H_    0.380910 0.901422 0.776794 0.226492
H4    H     H_    0.098576 0.380909 0.776794 0.226492
H5    H     H_    0.119091 0.598576 0.276794 0.226492
H6    H     H_    0.401423 0.119090 0.276794 0.226492
H7    H     H_    0.880909 0.401423 0.276794 0.226492
H8    H     H_    0.598577 0.880910 0.276794 0.226492
O57   O     O_2   0.583265 0.069110 0.824271 -0.537374
O58   O     O_2   0.930892 0.583266 0.824271 -0.537374
O59   O     O_2   0.416735 0.930890 0.824271 -0.537373
O60   O     O_2   0.069108 0.416734 0.824271 -0.537373
O61   O     O_2   0.083266 0.569109 0.324271 -0.537372
O62   O     O_2   0.430891 0.083265 0.324271 -0.537372
O63   O     O_2   0.916734 0.430891 0.324271 -0.537373
O64   O     O_2   0.569109 0.916734 0.324271 -0.537372
C113  C     C_R   0.512899 0.945726 0.869013 -0.082742
C114  C     C_R   0.054274 0.512899 0.869013 -0.082742
C115  C     C_R   0.487101 0.054274 0.869013 -0.082741
C116  C     C_R   0.945726 0.487101 0.869013 -0.082741
C117  C     C_R   0.012899 0.445726 0.369013 -0.082742
C118  C     C_R   0.554274 0.012899 0.369013 -0.082741
C119  C     C_R   0.987101 0.554274 0.369013 -0.082742
C120  C     C_R   0.445726 0.987101 0.369013 -0.082741
C121  C     C_R   0.512596 0.945599 0.898513 -0.195759
C122  C     C_R   0.054401 0.512595 0.898513 -0.195759
C123  C     C_R   0.487404 0.054401 0.898513 -0.195758
C124  C     C_R   0.945599 0.487405 0.898513 -0.195758
C125  C     C_R   0.012595 0.445599 0.398513 -0.195758
C126  C     C_R   0.554401 0.012595 0.398513 -0.195759
C127  C     C_R   0.987405 0.554401 0.398513 -0.195759
C128  C     C_R   0.445599 0.987405 0.398513 -0.195758
C129  C     C_R   0.500000 0.000000 0.913466 -0.040527
C130  C     C_R   1.000000 0.500000 0.913466 -0.040527
C131  C     C_R   1.000000 0.500000 0.413466 -0.040527
C132  C     C_R   0.500000 1.000000 0.413466 -0.040527
C133  C     C_R   0.500000 0.000000 0.854170 0.292140
C134  C     C_R   1.000000 0.500000 0.854170 0.292139
C135  C     C_R   1.000000 0.500000 0.354170 0.292140
C136  C     C_R   0.500000 1.000000 0.354170 0.292140
C137  C     C_R   0.054237 0.486932 0.130987 -0.088672
C138  C     C_R   0.513068 0.054237 0.130987 -0.088672
C139  C     C_R   0.945763 0.513068 0.130987 -0.088672
C140  C     C_R   0.486932 0.945763 0.130987 -0.088671
C141  C     C_R   0.554237 0.986932 0.630987 -0.088672
C142  C     C_R   0.013068 0.554237 0.630987 -0.088671
C143  C     C_R   0.445763 0.013067 0.630987 -0.088671
C144  C     C_R   0.986932 0.445763 0.630987 -0.088672
H9    H     H_    0.096242 0.476451 0.142345 0.146990
H10   H     H_    0.523548 0.096242 0.142345 0.146990
H11   H     H_    0.903758 0.523548 0.142345 0.146990
H12   H     H_    0.476452 0.903758 0.142345 0.146990
H13   H     H_    0.596242 0.976453 0.642345 0.146990
H14   H     H_    0.023548 0.596242 0.642345 0.146990
H15   H     H_    0.403758 0.023547 0.642345 0.146990
H16   H     H_    0.976452 0.403758 0.642345 0.146990
C145  C     C_R   0.054360 0.487240 0.101487 -0.191132
C146  C     C_R   0.512759 0.054360 0.101487 -0.191133
C147  C     C_R   0.945640 0.512759 0.101487 -0.191132
C148  C     C_R   0.487241 0.945640 0.101487 -0.191131
C149  C     C_R   0.554360 0.987241 0.601487 -0.191132
C150  C     C_R   0.012759 0.554360 0.601487 -0.191132
C151  C     C_R   0.445640 0.012759 0.601487 -0.191133
C152  C     C_R   0.987240 0.445640 0.601487 -0.191132
C153  C     C_R   0.000000 0.500000 0.086535 -0.049743
C154  C     C_R   0.500000 1.000000 0.086535 -0.049743
C155  C     C_R   0.500000 1.000000 0.586535 -0.049744
C156  C     C_R   1.000000 0.500000 0.586535 -0.049743
C157  C     C_R   1.000000 0.500000 0.145845 0.315891
C158  C     C_R   0.500000 1.000000 0.145845 0.315891
C159  C     C_R   0.500000 1.000000 0.645845 0.315891
C160  C     C_R   1.000000 0.500000 0.645845 0.315891
H17   H     H_    0.692091 0.093813 0.982672 0.181230
H18   H     H_    0.906188 0.692090 0.982670 0.181228
H19   H     H_    0.307910 0.906189 0.982668 0.181225
H20   H     H_    0.093811 0.307910 0.982669 0.181227
H21   H     H_    0.192090 0.593811 0.482669 0.181226
H22   H     H_    0.406189 0.192090 0.482669 0.181227
H23   H     H_    0.807909 0.406188 0.482670 0.181228
H24   H     H_    0.593811 0.807910 0.482668 0.181226
H25   H     H_    0.096775 0.476981 0.090411 0.170738
H26   H     H_    0.523019 0.096775 0.090411 0.170738
H27   H     H_    0.903225 0.523019 0.090411 0.170738
H28   H     H_    0.476981 0.903225 0.090411 0.170738
H29   H     H_    0.596775 0.976982 0.590411 0.170738
H30   H     H_    0.023019 0.596775 0.590411 0.170738
H31   H     H_    0.403225 0.023018 0.590411 0.170739
H32   H     H_    0.976981 0.403225 0.590411 0.170738
H33   H     H_    0.706103 0.953886 0.990573 0.146768
H34   H     H_    0.046115 0.706103 0.990575 0.146768
H35   H     H_    0.293896 0.046114 0.990576 0.146768
H36   H     H_    0.953885 0.293897 0.990575 0.146769
H37   H     H_    0.206103 0.453885 0.490576 0.146768
H38   H     H_    0.546115 0.206103 0.490576 0.146768
H39   H     H_    0.793897 0.546114 0.490575 0.146768
H40   H     H_    0.453885 0.793896 0.490576 0.146767
C161  C     C_2   0.813075 0.086499 0.961591 0.433324
H41   H     H_    0.861718 0.097043 0.962828 0.088234
O65   O     O_2   0.783316 0.108814 0.942189 -0.541812
C162  C     C_2   0.913505 0.813074 0.961588 0.433327
H42   H     H_    0.902959 0.861717 0.962826 0.088234
O66   O     O_2   0.891195 0.783316 0.942186 -0.541812
C163  C     C_2   0.186926 0.913509 0.961586 0.433331
H43   H     H_    0.138284 0.902961 0.962824 0.088235
O67   O     O_2   0.216684 0.891203 0.942182 -0.541810
C164  C     C_2   0.086494 0.186926 0.961588 0.433328
H44   H     H_    0.097040 0.138283 0.962825 0.088235
O68   O     O_2   0.108803 0.216684 0.942185 -0.541810
C165  C     C_2   0.313074 0.586492 0.461587 0.433331
H45   H     H_    0.361716 0.597039 0.462825 0.088235
O69   O     O_2   0.283316 0.608799 0.442183 -0.541811
C166  C     C_2   0.413507 0.313074 0.461587 0.433331
H46   H     H_    0.402961 0.361716 0.462825 0.088235
O70   O     O_2   0.391200 0.283316 0.442184 -0.541811
C167  C     C_2   0.686926 0.413504 0.461589 0.433326
H47   H     H_    0.638283 0.402959 0.462826 0.088235
O71   O     O_2   0.716684 0.391193 0.442186 -0.541810
C168  C     C_2   0.586492 0.686926 0.461587 0.433332
H48   H     H_    0.597039 0.638284 0.462824 0.088235
O72   O     O_2   0.608797 0.716684 0.442183 -0.541811
C169  C     C_2   0.786843 0.989543 0.029368 0.451786
H49   H     H_    0.803115 0.946671 0.038486 0.075596
O73   O     O_2   0.748922 0.019815 0.042434 -0.542037
C170  C     C_2   0.010451 0.786843 0.029369 0.451784
H50   H     H_    0.053321 0.803115 0.038488 0.075600
O74   O     O_2   0.980176 0.748922 0.042434 -0.542038
C171  C     C_2   0.213157 0.010445 0.029370 0.451783
H51   H     H_    0.196885 0.053314 0.038490 0.075603
O75   O     O_2   0.251078 0.980169 0.042434 -0.542039
C172  C     C_2   0.989550 0.213157 0.029369 0.451784
H52   H     H_    0.946680 0.196885 0.038488 0.075600
O76   O     O_2   0.019825 0.251078 0.042434 -0.542038
C173  C     C_2   0.286843 0.489552 0.529369 0.451784
H53   H     H_    0.303115 0.446683 0.538489 0.075602
O77   O     O_2   0.248922 0.519828 0.542434 -0.542039
C174  C     C_2   0.510448 0.286843 0.529369 0.451784
H54   H     H_    0.553317 0.303115 0.538489 0.075601
O78   O     O_2   0.480172 0.248922 0.542434 -0.542038
C175  C     C_2   0.713157 0.510452 0.529369 0.451785
H55   H     H_    0.696885 0.553323 0.538487 0.075599
O79   O     O_2   0.751078 0.480178 0.542434 -0.542038
C176  C     C_2   0.489554 0.713157 0.529370 0.451784
H56   H     H_    0.446685 0.696885 0.538489 0.075602
O80   O     O_2   0.519830 0.751078 0.542434 -0.542039
C177  C     C_2   0.139131 0.605090 0.221823 0.506629
H57   H     H_    0.159098 0.588095 0.202284 0.110450
O81   O     O_2   0.161777 0.650670 0.232793 -0.539515
C178  C     C_2   0.394910 0.139131 0.221823 0.506628
H58   H     H_    0.411904 0.159098 0.202284 0.110450
O82   O     O_2   0.349330 0.161776 0.232793 -0.539516
C179  C     C_2   0.860868 0.394910 0.221823 0.506629
H59   H     H_    0.840902 0.411905 0.202284 0.110450
O83   O     O_2   0.838223 0.349330 0.232793 -0.539516
C180  C     C_2   0.605090 0.860869 0.221823 0.506629
H60   H     H_    0.588096 0.840902 0.202284 0.110450
O84   O     O_2   0.650670 0.838223 0.232793 -0.539516
C181  C     C_2   0.639130 0.105091 0.721823 0.506628
H61   H     H_    0.659098 0.088097 0.702284 0.110450
O85   O     O_2   0.661775 0.150671 0.732793 -0.539515
C182  C     C_2   0.894910 0.639131 0.721823 0.506629
H62   H     H_    0.911905 0.659099 0.702284 0.110449
O86   O     O_2   0.849331 0.661777 0.732793 -0.539515
C183  C     C_2   0.360870 0.894909 0.721823 0.506629
H63   H     H_    0.340902 0.911903 0.702284 0.110450
O87   O     O_2   0.338224 0.849329 0.732793 -0.539516
C184  C     C_2   0.105090 0.360868 0.721823 0.506629
H64   H     H_    0.088095 0.340901 0.702284 0.110449
O88   O     O_2   0.150669 0.338223 0.732793 -0.539516
H65   H     H_    0.523248 0.903702 0.857646 0.157659
H66   H     H_    0.096298 0.523247 0.857646 0.157659
H67   H     H_    0.476752 0.096298 0.857646 0.157659
H68   H     H_    0.903702 0.476753 0.857646 0.157659
H69   H     H_    0.023247 0.403702 0.357646 0.157659
H70   H     H_    0.596298 0.023248 0.357646 0.157659
H71   H     H_    0.976753 0.596298 0.357646 0.157659
H72   H     H_    0.403702 0.976752 0.357646 0.157659
H73   H     H_    0.522725 0.903152 0.909589 0.171207
H74   H     H_    0.096848 0.522724 0.909589 0.171207
H75   H     H_    0.477275 0.096848 0.909589 0.171207
H76   H     H_    0.903152 0.477276 0.909589 0.171207
H77   H     H_    0.022724 0.403152 0.409589 0.171207
H78   H     H_    0.596848 0.022725 0.409589 0.171207
H79   H     H_    0.977276 0.596848 0.409589 0.171207
H80   H     H_    0.403152 0.977275 0.409589 0.171207

loop_
_geom_bond_atom_site_label_1
_geom_bond_atom_site_label_2
_geom_bond_distance
_ccdc_geom_bond_type
C68   C80   1.425696 A    
O8    Zn2   2.000863 S    
O29   Zn9   2.001580 S    
C163  H43   1.083626 S    
C14   C22   1.336490 D    
C72   C76   1.420930 A    
C27   C163  1.487835 S    
C142  C150  1.391399 A    
C81   C181  1.486246 S    
C141  C159  1.400763 A    
C177  H57   1.083642 S    
C142  C160  1.400761 A    
C94   C102  1.406585 A    
C106  N6    1.367431 A    
N4    C160  1.433717 S    
C38   C174  1.498116 S    
C119  H71   1.082918 S    
C109  N7    1.367430 A    
C44   C132  1.464578 S    
C10   C18   1.336491 D    
C11   H19   1.086842 S    
C105  N5    1.367430 A    
C12   H20   1.086844 S    
O43   C53   1.282263 A    
C30   C166  1.487837 S    
C122  C130  1.403953 A    
C93   C105  1.401949 A    
C82   C86   1.398995 A    
O22   C44   1.282478 A    
C174  H54   1.085696 S    
C114  C134  1.400337 A    
O3    C3    1.271820 A    
C33   C169  1.498113 S    
C143  H15   1.082946 S    
C138  C146  1.391399 A    
Zn5   O41   2.011967 S    
C114  C122  1.391437 A    
C16   H24   1.086841 S    
C123  C129  1.403952 A    
C19   C47   1.442163 S    
C58   O50   1.348245 S    
C70   C82   1.425696 A    
C171  O75   1.221708 D    
C176  H56   1.085697 S    
N2    C158  1.433717 S    
O12   Zn3   2.000774 S    
C100  C104  1.406585 A    
C167  O71   1.221188 D    
C180  H60   1.083643 S    
C120  C128  1.391437 A    
C145  C153  1.403895 A    
C89   C97   1.397614 A    
C10   H18   1.086842 S    
C71   C75   1.420932 A    
C86   H2    1.084090 S    
C116  H68   1.082919 S    
C167  H47   1.083625 S    
O11   Zn3   2.000772 S    
O24   C44   1.282476 A    
O12   C4    1.291465 A    
C168  H48   1.083624 S    
C96   C108  1.401949 A    
O13   C5    1.291466 A    
C61   C71   1.409435 A    
C29   C165  1.487838 S    
C115  H67   1.082919 S    
C176  O80   1.221707 D    
C23   H39   1.087659 S    
C63   C69   1.409435 A    
C69   C75   1.420930 A    
C15   C31   1.471322 S    
C117  H69   1.082919 S    
C16   C24   1.336492 D    
C69   C81   1.425696 A    
C137  H9    1.082944 S    
C66   C74   1.420931 A    
O46   C56   1.282263 A    
C63   N3    1.365182 A    
C67   C79   1.425696 A    
C166  H46   1.083624 S    
Zn12  O48   2.011968 S    
C53   C154  1.464700 S    
C118  C136  1.400337 A    
C139  C147  1.391399 A    
C178  H58   1.083642 S    
C146  H26   1.083021 S    
O40   Zn10  2.001906 S    
O28   Zn8   2.001579 S    
O35   C47   1.272106 A    
C18   C46   1.442164 S    
C85   H1    1.084091 S    
Zn6   O42   2.011968 S    
C117  C125  1.391437 A    
O26   C46   1.277489 A    
C24   H40   1.087660 S    
C161  O65   1.221188 D    
C31   C167  1.487835 S    
C128  H80   1.083015 S    
O30   C50   1.277489 A    
C182  H62   1.083642 S    
C180  O84   1.221460 D    
C150  H30   1.083019 S    
O25   C45   1.277490 A    
O4    C4    1.271820 A    
C65   C73   1.420932 A    
C88   H4    1.084089 S    
C173  H53   1.085698 S    
C15   H23   1.086842 S    
C68   C74   1.420930 A    
C1    C34   1.457044 S    
C87   C95   1.397613 A    
O6    C6    1.271820 A    
O10   Zn3   2.000772 S    
C125  C131  1.403954 A    
C148  C154  1.403895 A    
C145  H25   1.083020 S    
C183  H63   1.083641 S    
O21   Zn9   2.011932 S    
O38   Zn12  2.001906 S    
O4    Zn1   2.000863 S    
O23   Zn11  2.011932 S    
O26   Zn6   2.001579 S    
C139  C157  1.400763 A    
O18   C42   1.282478 A    
O7    Zn2   2.000860 S    
C109  O61   1.350034 S    
C163  O67   1.221183 D    
O10   C2    1.291466 A    
C126  H78   1.083014 S    
C62   O54   1.348244 S    
C29   C37   1.362482 D    
C170  H50   1.085697 S    
C74   C104  1.411676 A    
C75   C101  1.411676 A    
C172  O76   1.221708 D    
C32   C40   1.362482 D    
C116  C134  1.400339 A    
O39   Zn9   2.001906 S    
O37   C49   1.272105 A    
O19   C41   1.282478 A    
C37   C173  1.498115 S    
C8    C37   1.457047 S    
O39   C51   1.272105 A    
C114  H66   1.082919 S    
C15   C23   1.336491 D    
C41   C129  1.464578 S    
C16   C32   1.471324 S    
O27   C47   1.277490 A    
C137  C145  1.391399 A    
C25   C33   1.362483 D    
C165  O69   1.221181 D    
O31   Zn11  2.001580 S    
C144  C152  1.391399 A    
C40   C176  1.498115 S    
C121  H73   1.083015 S    
C169  O73   1.221708 D    
C150  C156  1.403895 A    
Zn8   O44   2.011968 S    
C123  H75   1.083015 S    
O33   Zn7   2.001906 S    
C93   C101  1.406586 A    
C64   O56   1.348244 S    
C94   C106  1.401954 A    
C91   C99   1.397614 A    
C95   C101  1.406585 A    
C39   C175  1.498114 S    
C140  C148  1.391399 A    
C162  O66   1.221184 D    
C80   C92   1.399000 A    
C83   C87   1.399000 A    
C24   C52   1.442163 S    
C60   O52   1.348245 S    
C79   C91   1.399000 A    
O27   Zn7   2.001580 S    
C83   C183  1.486247 S    
C59   O51   1.348243 S    
C78   C90   1.398995 A    
C152  H32   1.083020 S    
C97   C103  1.406583 A    
C2    C35   1.457049 S    
C142  H14   1.082945 S    
C98   C104  1.406586 A    
C71   C83   1.425695 A    
N3    C159  1.433717 S    
C110  N8    1.367430 A    
O48   C56   1.282262 A    
C105  O57   1.350033 S    
C108  N6    1.367430 A    
C90   C98   1.397617 A    
C84   C88   1.399000 A    
O37   Zn11  2.001906 S    
C119  C127  1.391437 A    
O1    C1    1.271820 A    
C10   C26   1.471324 S    
O14   C6    1.291466 A    
C5    C38   1.457046 S    
C77   C89   1.398995 A    
O6    Zn2   2.000861 S    
O7    C7    1.271821 A    
O8    C8    1.271821 A    
C108  O60   1.350033 S    
C149  H29   1.083022 S    
N7    C135  1.431891 S    
C57   C67   1.409435 A    
C34   C170  1.498115 S    
C58   C68   1.409435 A    
N5    C133  1.431891 S    
C112  N8    1.367429 A    
C89   H5    1.084091 S    
C174  O78   1.221709 D    
C184  H64   1.083642 S    
C72   C84   1.425695 A    
C13   C29   1.471322 S    
C107  N5    1.367431 A    
C140  C158  1.400761 A    
O36   C48   1.272105 A    
C57   N1    1.365183 A    
C9    C25   1.471322 S    
C17   H33   1.087662 S    
C3    C36   1.457045 S    
O40   C52   1.272104 A    
O30   Zn10  2.001579 S    
C112  O64   1.350035 S    
C128  C132  1.403955 A    
C82   C182  1.486247 S    
C141  C149  1.391395 A    
O11   C3    1.291466 A    
C95   C107  1.401949 A    
O32   Zn12  2.001579 S    
C92   H8    1.084088 S    
C61   N3    1.365182 A    
C118  H70   1.082919 S    
C164  H44   1.083623 S    
C60   N2    1.365183 A    
C65   C77   1.425700 A    
Zn9   O45   2.011967 S    
C124  H76   1.083015 S    
C110  O62   1.350035 S    
C25   C161  1.487840 S    
Zn11  O47   2.011968 S    
O44   C54   1.282262 A    
O36   Zn6   2.001906 S    
C121  C129  1.403954 A    
C21   C49   1.442164 S    
C55   C156  1.464700 S    
C168  O72   1.221180 D    
O13   Zn4   2.000774 S    
C113  C133  1.400338 A    
C181  O85   1.221461 D    
C64   N4    1.365184 A    
O33   C45   1.272105 A    
C113  C121  1.391437 A    
C171  H51   1.085696 S    
C11   C27   1.471324 S    
C12   C28   1.471322 S    
C166  O70   1.221183 D    
C177  O81   1.221461 D    
C76   C102  1.411676 A    
C30   C38   1.362484 D    
O3    Zn1   2.000860 S    
C178  O82   1.221461 D    
C6    C39   1.457044 S    
C146  C154  1.403895 A    
N8    C136  1.431891 S    
C13   H21   1.086843 S    
O5    C5    1.271821 A    
O31   C51   1.277489 A    
C161  H41   1.083624 S    
C67   C73   1.420932 A    
C35   C171  1.498115 S    
C97   C109  1.401954 A    
C151  C155  1.403897 A    
C179  H59   1.083641 S    
C148  H28   1.083019 S    
C26   C34   1.362484 D    
C115  C123  1.391437 A    
O9    C1    1.291465 A    
C80   C180  1.486247 S    
C59   N1    1.365182 A    
C77   C177  1.486244 S    
Zn10  O46   2.011968 S    
C73   C103  1.411676 A    
O9    Zn3   2.000774 S    
C122  H74   1.083015 S    
O41   C53   1.282261 A    
C54   C153  1.464700 S    
C79   C179  1.486246 S    
C86   C94   1.397613 A    
C22   C50   1.442164 S    
O17   Zn5   2.011932 S    
O24   Zn12  2.011932 S    
C127  H79   1.083016 S    
C4    C33   1.457043 S    
C183  O87   1.221459 D    
C126  C132  1.403953 A    
C64   C70   1.409435 A    
Zn7   O43   2.011968 S    
O34   C46   1.272105 A    
C17   C45   1.442161 S    
C13   C21   1.336491 D    
C111  O63   1.350035 S    
C175  H55   1.085697 S    
O15   Zn4   2.000772 S    
O29   C49   1.277489 A    
C42   C130  1.464578 S    
C170  O74   1.221709 D    
C100  C112  1.401949 A    
O2    Zn1   2.000861 S    
O23   C43   1.282478 A    
C62   N4    1.365181 A    
C91   H7    1.084088 S    
C127  C131  1.403952 A    
O5    Zn2   2.000862 S    
C120  C136  1.400339 A    
C19   H35   1.087658 S    
O20   Zn8   2.011932 S    
C20   H36   1.087660 S    
C143  C159  1.400761 A    
O35   Zn5   2.001906 S    
C9    C17   1.336490 D    
C117  C135  1.400338 A    
C85   C93   1.397615 A    
C81   C85   1.398995 A    
C56   C155  1.464700 S    
C137  C157  1.400762 A    
O16   Zn4   2.000774 S    
C88   C96   1.397613 A    
O2    C2    1.271821 A    
C165  H45   1.083625 S    
O22   Zn10  2.011932 S    
C143  C151  1.391399 A    
C84   C184  1.486247 S    
C169  H49   1.085698 S    
O25   Zn5   2.001580 S    
O42   C54   1.282263 A    
C60   C66   1.409435 A    
C120  H72   1.082918 S    
C151  H31   1.083018 S    
C21   H37   1.087659 S    
C70   C76   1.420931 A    
C36   C172  1.498115 S    
N1    C157  1.433717 S    
C147  H27   1.083020 S    
C139  H11   1.082944 S    
C107  O59   1.350033 S    
O38   C50   1.272105 A    
C59   C65   1.409431 A    
O18   Zn6   2.011932 S    
C115  C133  1.400338 A    
C138  C158  1.400762 A    
C173  O77   1.221707 D    
O19   Zn7   2.011932 S    
C23   C51   1.442164 S    
O20   C42   1.282476 A    
O32   C52   1.277491 A    
C113  H65   1.082919 S    
C152  C156  1.403894 A    
C87   H3    1.084089 S    
C116  C124  1.391437 A    
C119  C135  1.400338 A    
O1    Zn1   2.000862 S    
C66   C78   1.425698 A    
C182  O86   1.221461 D    
C22   H38   1.087661 S    
C18   H34   1.087659 S    
C99   C111  1.401949 A    
C7    C40   1.457048 S    
C14   C30   1.471324 S    
C43   C131  1.464578 S    
C111  N7    1.367430 A    
O21   C43   1.282476 A    
C99   C103  1.406586 A    
C172  H52   1.085698 S    
C78   C178  1.486244 S    
C9    H17   1.086845 S    
C96   C102  1.406584 A    
C62   C72   1.409435 A    
C144  C160  1.400762 A    
C20   C48   1.442163 S    
O28   C48   1.277489 A    
C147  C153  1.403896 A    
C28   C164  1.487836 S    
C141  H13   1.082944 S    
C179  O83   1.221460 D    
C184  O88   1.221459 D    
C32   C168  1.487837 S    
C138  H10   1.082943 S    
C31   C39   1.362484 D    
C106  O58   1.350031 S    
C27   C35   1.362482 D    
O17   C41   1.282476 A    
C28   C36   1.362485 D    
O34   Zn8   2.001906 S    
C14   H22   1.086842 S    
C149  C155  1.403896 A    
C98   C110  1.401949 A    
C125  H77   1.083016 S    
C118  C126  1.391437 A    
C26   C162  1.487835 S    
C162  H42   1.083626 S    
C144  H16   1.082943 S    
C164  O68   1.221186 D    
C175  O79   1.221707 D    
O15   C7    1.291466 A    
C11   C19   1.336489 D    
C57   O49   1.348245 S    
C12   C20   1.336491 D    
C63   O55   1.348244 S    
C124  C130  1.403955 A    
N6    C134  1.431891 S    
O45   C55   1.282261 A    
C61   O53   1.348244 S    
C90   H6    1.084091 S    
C92   C100  1.397613 A    
O16   C8    1.291466 A    
C140  H12   1.082945 S    
O47   C55   1.282263 A    
C58   N2    1.365181 A    
O14   Zn4   2.000772 S    
C181  H61   1.083641 S    
