data_mof_unit_67747.cif
_audit_creation_date              2012-12-10T16:47:18-0500
_audit_creation_method            fapswitch 2.2
_symmetry_space_group_name_H-M    P1
_symmetry_Int_Tables_number       1
_space_group_crystal_system       triclinic
_cell_length_a                    12.154215
_cell_length_b                    12.290729
_cell_length_c                    7.855809
_cell_angle_alpha                 89.558166
_cell_angle_beta                  94.857697
_cell_angle_gamma                 91.272981
_cell_volume                      1169.00961131

loop_
_atom_site_label
_atom_site_type_symbol
_atom_type_description
_atom_site_fract_x
_atom_site_fract_y
_atom_site_fract_z
_atom_type_partial_charge
C1    C     C_R   0.357057 0.849148 0.457235 0.932535
C2    C     C_2   0.722147 0.766680 0.567156 -0.270513
C3    C     C_2   0.707264 0.247206 0.550546 -0.277066
C4    C     C_2   0.292739 0.752791 0.449457 -0.277087
C5    C     C_2   0.777853 0.733320 0.432844 -0.270512
C6    C     C_2   0.222146 0.266679 0.567156 -0.270515
C7    C     C_2   0.207262 0.747208 0.550544 -0.277090
C8    C     C_2   0.792739 0.252791 0.449455 -0.277072
C9    C     C_2   0.763335 0.777360 0.255982 1.016918
C10   C     C_2   0.236663 0.222638 0.744017 1.016918
C11   C     C_2   0.155339 0.843279 0.626324 0.976066
C12   C     C_R   0.642944 0.150850 0.542766 0.932508
C13   C     C_2   0.844661 0.156720 0.373673 0.976071
C14   C     C_2   0.263333 0.277358 0.255981 1.016920
C15   C     C_2   0.736665 0.722640 0.744018 1.016913
C16   C     C_2   0.655343 0.343277 0.626326 0.976078
C17   C     C_2   0.344664 0.656720 0.373679 0.976078
C18   C     C_2   0.637427 0.055268 0.008529 1.127258
C19   C     C_2   0.362573 0.944730 0.991470 1.127259
C20   C     C_2   0.137427 0.555269 0.008530 1.127259
C21   C     C_2   0.862573 0.444731 0.991471 1.127260
C22   C     C_R   0.644178 0.850619 0.544137 0.911295
C23   C     C_R   0.355822 0.149380 0.455863 0.911292
C24   C     C_R   0.857057 0.349149 0.457234 0.932507
C25   C     C_R   0.142943 0.650851 0.542765 0.932534
C26   C     C_R   0.144178 0.350619 0.544137 0.911295
C27   C     C_R   0.855822 0.649380 0.455863 0.911288
C28   C     C_2   0.277852 0.233319 0.432843 -0.270515
H1    H     H_    0.659565 0.793999 0.044152 0.369851
H2    H     H_    0.214331 0.954385 0.087040 0.363125
H3    H     H_    0.285669 0.545612 0.912956 0.363126
H4    H     H_    0.714333 0.454388 0.087051 0.363128
H5    H     H_    0.340432 0.205998 0.955848 0.369850
H6    H     H_    0.066941 0.899896 0.811770 0.377237
H7    H     H_    0.933047 0.100101 0.188222 0.377233
H8    H     H_    0.159563 0.293998 0.044152 0.369851
H9    H     H_    0.840435 0.706001 0.955848 0.369851
H10   H     H_    0.566978 0.399903 0.811800 0.377231
H11   H     H_    0.433070 0.600102 0.188251 0.377240
H12   H     H_    0.785667 0.045611 0.912951 0.363126
N1    N     N_2   0.541470 0.000000 0.055820 -0.219056
N2    N     N_2   0.458530 0.000000 0.944180 -0.219055
N3    N     N_2   0.041470 0.500000 0.055820 -0.219054
N4    N     N_2   0.958530 0.500000 0.944180 -0.219057
O1    O     O_R   0.375700 0.885870 0.609240 -0.616383
O2    O     O_R   0.597720 0.114130 0.675960 -0.589263
O3    O     O_R   0.597720 0.885870 0.675960 -0.612045
O4    O     O_R   0.402280 0.114130 0.324040 -0.612047
O5    O     O_R   0.902280 0.385870 0.324040 -0.589254
O6    O     O_R   0.097720 0.614130 0.675960 -0.589253
O7    O     O_R   0.097720 0.385870 0.675960 -0.612047
O8    O     O_R   0.902280 0.614130 0.324040 -0.612045
O9    O     O_2   0.831630 0.841961 0.205988 -0.567588
O10   O     O_R   0.669033 0.747531 0.151015 -0.722318
O11   O     O_2   0.168368 0.158037 0.794010 -0.567584
O12   O     O_R   0.624300 0.114130 0.390760 -0.616380
O13   O     O_R   0.330964 0.252466 0.848985 -0.722325
O14   O     O_2   0.156810 0.932321 0.555620 -0.600316
O15   O     O_R   0.100143 0.829912 0.774444 -0.710598
O16   O     O_2   0.843198 0.067680 0.444383 -0.600319
O17   O     O_R   0.899843 0.170085 0.225544 -0.710595
O18   O     O_2   0.331629 0.341959 0.205986 -0.567578
O19   O     O_R   0.169031 0.247531 0.151016 -0.722323
O20   O     O_2   0.668370 0.658038 0.794011 -0.567595
O21   O     O_R   0.830967 0.752468 0.848984 -0.722317
O22   O     O_2   0.656786 0.432310 0.555596 -0.600324
O23   O     O_R   0.624300 0.885870 0.390760 -0.607267
O24   O     O_R   0.600184 0.329919 0.774479 -0.710592
O25   O     O_2   0.343188 0.567677 0.444377 -0.600315
O26   O     O_R   0.399865 0.670086 0.225572 -0.710606
O27   O     O_2   0.649615 0.152712 0.035983 -0.557216
O28   O     O_R   0.720421 0.997389 0.939280 -0.779331
O29   O     O_2   0.350389 0.847285 0.964021 -0.557237
O30   O     O_R   0.279576 0.002608 0.060713 -0.779333
O31   O     O_2   0.149612 0.652714 0.035979 -0.557236
O32   O     O_R   0.220423 0.497390 0.939285 -0.779327
O33   O     O_2   0.850387 0.347287 0.964020 -0.557214
O34   O     O_R   0.375700 0.114130 0.609240 -0.607270
O35   O     O_R   0.779578 0.502610 0.060719 -0.779334
O36   O     O_R   0.875700 0.385870 0.609240 -0.616393
O37   O     O_R   0.124300 0.614130 0.390760 -0.616379
O38   O     O_R   0.124300 0.385870 0.390760 -0.607265
O39   O     O_R   0.875700 0.614130 0.609240 -0.607272
O40   O     O_R   0.402280 0.885870 0.324040 -0.589252
Zn1   Zn    Zn3+2 0.482250 0.000000 0.690430 1.054705
Zn2   Zn    Zn3+2 0.517750 0.000000 0.309570 1.054710
Zn3   Zn    Zn3+2 0.982250 0.500000 0.690430 1.054705
Zn4   Zn    Zn3+2 0.017750 0.500000 0.309570 1.054709

loop_
_geom_bond_atom_site_label_1
_geom_bond_atom_site_label_2
_ccdc_geom_bond_type
O39   Zn3   S    
C17   O25   D    
C8    C13   S    
N1    N2    D    
C15   O21   S    
C13   O16   D    
C1    O40   A    
C7    C11   S    
N1    Zn2   S    
N3    Zn4   S    
O3    Zn1   S    
O40   Zn2   S    
O36   Zn3   S    
H2    O30   S    
H1    O10   S    
C14   O18   D    
C24   O5    A    
C20   O32   S    
C25   O6    A    
C3    C12   S    
C5    C27   S    
C24   O36   A    
C6    C28   D    
H9    O21   S    
C2    C22   S    
C15   O20   D    
C16   O24   S    
N4    Zn3   S    
C19   N2    S    
O2    Zn1   S    
C22   O3    A    
C17   O26   S    
C26   O38   A    
C25   O37   A    
O5    Zn4   S    
C4    C7    D    
C11   O15   S    
C18   O28   S    
C19   O29   D    
C10   O13   S    
C12   O2    A    
C3    C8    D    
C18   N1    S    
O7    Zn3   S    
C20   O31   D    
O1    Zn1   S    
N3    N4    D    
C5    C9    S    
C10   O11   D    
C21   N4    S    
O12   Zn2   S    
O8    Zn4   S    
C21   O35   S    
C13   O17   S    
H7    O17   S    
N2    Zn1   S    
C23   C28   S    
C2    C15   S    
C12   O12   A    
O6    Zn3   S    
C4    C17   S    
O34   Zn1   S    
H10   O24   S    
H6    O15   S    
O4    Zn2   S    
C2    C5    D    
C16   O22   D    
H8    O19   S    
C20   N3    S    
C27   O8    A    
C18   O27   D    
O23   Zn2   S    
H5    O13   S    
C23   O4    A    
H12   O28   S    
C19   O30   S    
C6    C10   S    
C7    C25   S    
C1    C4    S    
C27   O39   A    
C26   O7    A    
H4    O35   S    
C1    O1    A    
H3    O32   S    
C6    C26   S    
O38   Zn4   S    
C14   O19   S    
C8    C24   S    
H11   O26   S    
C23   O34   A    
C22   O23   A    
O37   Zn4   S    
C9    O9    D    
C21   O33   D    
C9    O10   S    
C14   C28   S    
C3    C16   S    
C11   O14   D    
