data_mof_unit_22388.cif
_audit_creation_date              2013-03-05T15:43:32-0500
_audit_creation_method            fapswitch 2.2
_symmetry_space_group_name_H-M    P1
_symmetry_Int_Tables_number       1
_space_group_crystal_system       triclinic
_cell_length_a                    10.036361
_cell_length_b                    10.753635
_cell_length_c                    13.117067
_cell_angle_alpha                 89.793217
_cell_angle_beta                  69.859463
_cell_angle_gamma                 89.618514
_cell_volume                      1329.09145272

loop_
_atom_site_label
_atom_site_type_symbol
_atom_site_description
_atom_site_fract_x
_atom_site_fract_y
_atom_site_fract_z
_atom_type_partial_charge
O1    O     O_R   0.386950 0.680940 0.500020 -0.615852
O2    O     O_R   0.613110 0.680900 0.499980 -0.606962
C1    C     C_R   0.499849 0.737290 0.499639 0.949819
O3    O     O_R   0.330780 0.500000 0.653640 -0.617911
O4    O     O_R   0.556930 0.499960 0.653610 -0.609575
C2    C     C_R   0.420799 0.495661 0.704298 0.833996
Zn1   Zn    Zn3+2 0.349000 0.500030 0.500020 1.002999
Zn2   Zn    Zn3+2 0.651000 0.499970 0.499980 1.020877
O5    O     O_R   0.386890 0.319100 0.500020 -0.575854
O6    O     O_R   0.613050 0.319060 0.499980 -0.574572
O7    O     O_R   0.443070 0.500040 0.346390 -0.577177
O8    O     O_R   0.669220 0.500000 0.346360 -0.562374
C3    C     C_R   0.498497 0.262630 0.505684 0.958856
C4    C     C_R   0.579527 0.498110 0.295492 0.903591
C5    C     C_R   0.759562 0.355377 0.021161 -0.251268
H1    H     H_    0.751349 0.265053 0.834770 0.182136
H2    H     H_    0.849744 0.296876 0.978273 0.180769
C6    C     C_R   0.628920 0.478713 0.178293 -0.172598
C7    C     C_R   0.241218 0.553536 0.880169 -0.198170
C8    C     C_R   0.205512 0.574962 0.990733 -0.080514
C9    C     C_R   0.300380 0.542680 0.042966 -0.113135
C10   C     C_R   0.430442 0.481938 0.985627 0.093006
C11   C     C_R   0.454873 0.443438 0.878205 0.061411
C12   C     C_R   0.537637 0.458519 0.030658 0.106205
C13   C     C_R   0.654633 0.380417 0.975770 0.087731
C14   C     C_R   0.665107 0.328014 0.876378 -0.180253
C15   C     C_R   0.566553 0.359341 0.827987 -0.158846
C16   C     C_R   0.533091 0.513056 0.127755 -0.234173
C17   C     C_R   0.747746 0.403498 0.122856 0.306407
C18   C     C_R   0.368316 0.491909 0.822724 -0.108317
H3    H     H_    0.451043 0.579211 0.168955 0.161834
H4    H     H_    0.172147 0.589107 0.838889 0.163349
H5    H     H_    0.267786 0.563574 0.128472 0.164922
H6    H     H_    0.106898 0.621905 0.035118 0.178109
H7    H     H_    0.577602 0.316480 0.751134 0.202439
C19   C     C_2   0.603552 0.062740 0.527669 0.358269
C20   C     C_2   0.491671 0.131603 0.525766 -0.451736
H8    H     H_    0.388329 0.090492 0.540358 0.172045
C21   C     C_2   0.591079 0.929104 0.534447 -0.201773
C22   C     C_2   0.501083 0.869181 0.497438 -0.370267
H9    H     H_    0.663484 0.878902 0.565550 0.196094
H10   H     H_    0.430822 0.915250 0.462143 0.175885
C23   C     C_2   0.097612 0.416010 0.450148 0.315665
N1    N     N_2   0.148270 0.498670 0.498870 -0.248105
H11   H     H_    0.079853 0.562394 0.548350 0.128464
C24   C     C_2   0.944700 0.412310 0.456813 -0.065985
N2    N     N_2   0.852610 0.498640 0.498840 -0.209772
H12   H     H_    0.911406 0.333333 0.420517 0.244339
H13   H     H_    0.884993 0.577357 0.527394 0.157586
N3    N     N_R   0.854119 0.372183 0.169027 0.211646
O9    O     O_R   0.922133 0.460208 0.197768 -0.396608
O10   O     O_R   0.902951 0.258931 0.161650 -0.351196
N4    N     N_R   0.189204 0.320518 0.387875 0.252516
O11   O     O_R   0.267366 0.343221 0.287755 -0.362372
O12   O     O_R   0.165871 0.205587 0.419983 -0.340320
N5    N     N_R   0.737547 0.114760 0.521525 0.225154
O13   O     O_R   0.852961 0.074863 0.447379 -0.333356
O14   O     O_R   0.747630 0.174692 0.604478 -0.427080

loop_
_geom_bond_atom_site_label_1
_geom_bond_atom_site_label_2
_geom_bond_distance
_ccdc_geom_bond_type
O4    Zn2   1.908427 S    
N3    O10   1.301162 A    
C23   N1    1.300362 D    
C5    H2    1.084342 S    
C20   H8    1.084711 S    
C19   N5    1.436328 S    
C11   C15   1.410828 A    
N2    H13   1.025797 S    
C4    C6    1.459008 S    
C3    C20   1.430240 S    
C7    C8    1.388606 A    
Zn2   O8    1.959614 S    
C8    H6    1.082588 S    
C8    C9    1.392686 A    
C22   H10   1.084225 S    
N3    O9    1.300966 A    
Zn2   N2    2.018286 S    
C6    C16   1.390472 A    
C21   H9    1.087807 S    
C6    C17   1.414012 A    
O1    Zn1   1.984861 S    
N4    O11   1.300188 A    
C12   C13   1.418308 A    
Zn1   O7    1.908427 S    
C14   C15   1.386060 A    
C19   C21   1.443101 S    
O3    Zn1   1.959614 S    
C7    H4    1.083306 S    
C9    C10   1.418579 A    
C19   C20   1.348317 D    
C2    C18   1.458940 S    
N5    O14   1.300508 A    
C1    C22   1.418549 S    
C5    C17   1.398731 A    
C24   H12   1.084373 S    
C17   N3    1.434903 S    
N4    O12   1.300734 A    
H1    C14   1.083980 S    
O4    C2    1.298430 A    
O7    C4    1.300706 A    
C10   C12   1.415178 A    
C23   C24   1.507607 S    
O3    C2    1.293289 A    
C5    C13   1.401030 A    
N5    O13   1.300894 A    
C11   C18   1.408033 A    
C9    H5    1.078716 S    
N1    H11   1.025848 S    
Zn2   O6    1.984861 S    
C21   C22   1.333672 D    
Zn1   O5    1.979984 S    
O5    C3    1.294955 A    
C24   N2    1.288945 D    
O2    C1    1.286157 A    
C15   H7    1.080123 S    
C13   C14   1.392277 A    
Zn1   N1    2.019992 S    
C7    C18   1.401626 A    
C23   N4    1.429379 S    
C16   H3    1.079236 S    
O2    Zn2   1.979982 S    
C10   C11   1.407801 A    
C12   C16   1.390389 A    
O8    C4    1.292263 A    
O1    C1    1.286990 A    
O6    C3    1.282714 A    
