data_mof_unit_55660.cif
_audit_creation_date              2012-12-10T20:31:06-0500
_audit_creation_method            fapswitch 2.2
_symmetry_space_group_name_H-M    P1
_symmetry_Int_Tables_number       1
_space_group_crystal_system       triclinic
_cell_length_a                    14.955154
_cell_length_b                    10.678759
_cell_length_c                    9.85343
_cell_angle_alpha                 90.892474
_cell_angle_beta                  90.070279
_cell_angle_gamma                 89.665377
_cell_volume                      1573.39851172

loop_
_atom_site_label
_atom_site_type_symbol
_atom_type_description
_atom_site_fract_x
_atom_site_fract_y
_atom_site_fract_z
_atom_type_partial_charge
C1    C     C_R   0.502322 0.259526 0.498609 0.907440
C2    C     C_R   0.186434 0.413891 0.404566 0.151368
C3    C     C_R   0.231177 0.490813 0.499485 -0.112081
C4    C     C_R   0.326858 0.497266 0.499819 0.910825
C5    C     C_R   0.185233 0.563541 0.595021 -0.272462
C6    C     C_R   0.501286 0.065247 0.618332 0.094699
C7    C     C_R   0.515370 0.127028 0.497087 -0.181927
C8    C     C_R   0.551289 0.060663 0.383329 0.106458
C9    C     C_R   0.561296 0.929959 0.391570 0.130998
C10   C     C_R   0.524204 0.869870 0.504655 -0.173980
C11   C     C_R   0.504338 0.938247 0.621614 0.065721
C12   C     C_R   0.907018 0.566946 0.598447 -0.024191
C13   C     C_3   0.427179 0.930566 0.717280 -0.365769
C14   C     C_3   0.423812 0.072445 0.714217 -0.486278
C15   C     C_R   0.444588 0.577233 0.072510 0.031447
C16   C     C_R   0.505576 0.739518 0.501060 0.903896
C17   C     C_R   0.562313 0.432315 0.070890 0.648357
C18   C     C_R   0.561660 0.431248 0.926752 -0.255467
C19   C     C_R   0.444921 0.577859 0.930005 0.145660
C20   C     C_3   0.345341 0.582161 0.924568 0.429889
C21   C     C_3   0.345105 0.580823 0.078594 -0.517544
C22   C     C_R   0.673088 0.499717 0.500042 0.873972
C23   C     C_R   0.951011 0.345551 0.309019 -0.192590
C24   C     C_R   0.814338 0.567737 0.598059 -0.201774
C25   C     C_R   0.768447 0.497969 0.500054 -0.099977
C26   C     C_R   0.813145 0.425490 0.402663 -0.222421
C27   C     C_R   0.905598 0.421160 0.403247 0.145257
C28   C     C_R   0.953036 0.492895 0.500484 0.004077
C29   C     C_3   0.693540 0.816248 0.320384 -0.707449
C30   C     C_3   0.257040 0.212272 0.368176 -0.776862
C31   C     C_3   0.505528 0.121040 0.158288 -0.691698
C32   C     C_R   0.043732 0.341197 0.309681 -0.215838
C33   C     C_R   0.092578 0.414742 0.403205 0.083399
C34   C     C_R   0.046306 0.490537 0.499842 0.029145
C35   C     C_R   0.093063 0.563771 0.596552 0.014991
C36   C     C_R   0.047211 0.637060 0.693005 -0.274739
C37   C     C_R   0.954414 0.638494 0.694472 0.614626
F1    F     F_    0.625115 0.365098 0.137514 -0.665580
F2    F     F_    0.314955 0.695053 0.874515 -0.678900
F3    F     F_    0.911158 0.709994 0.789144 -0.666490
H1    H     H_    0.777530 0.623799 0.672079 0.205309
H2    H     H_    0.316548 0.493632 0.119978 0.174721
H3    H     H_    0.914748 0.289121 0.235219 0.158449
H4    H     H_    0.075929 0.279759 0.236327 0.156878
H5    H     H_    0.221632 0.622025 0.666752 0.217691
H6    H     H_    0.083275 0.693146 0.767350 0.198455
H7    H     H_    0.600324 0.893342 0.189824 0.230035
H8    H     H_    0.739246 0.897612 0.329733 0.225557
H9    H     H_    0.718733 0.752015 0.239196 0.252507
H10   H     H_    0.693350 0.764639 0.417368 0.228704
H11   H     H_    0.215804 0.332856 0.215257 0.213287
H12   H     H_    0.367556 0.885342 0.670540 0.220970
H13   H     H_    0.298804 0.158637 0.294419 0.233624
H14   H     H_    0.194399 0.159545 0.385862 0.242473
H15   H     H_    0.294819 0.221487 0.464897 0.229141
H16   H     H_    0.636845 0.099129 0.224557 0.242097
H17   H     H_    0.485711 0.023600 0.132054 0.203091
H18   H     H_    0.530483 0.165592 0.064790 0.237431
H19   H     H_    0.445527 0.173452 0.193686 0.246553
H20   H     H_    0.447415 0.893577 0.817680 0.229707
H21   H     H_    0.362042 0.109881 0.666336 0.196199
H22   H     H_    0.442191 0.117400 0.812834 0.208101
H23   H     H_    0.610090 0.374954 0.871297 0.188575
H24   H     H_    0.314589 0.498327 0.875692 0.088354
H25   H     H_    0.319661 0.669057 0.126274 0.236700
H26   H     H_    0.775770 0.370712 0.328498 0.195313
N1    N     N_R   0.499390 0.499140 0.142800 -0.148611
N2    N     N_R   0.499390 0.499180 0.857150 -0.166553
N3    N     N_2   0.604339 0.858510 0.286403 -0.287330
N4    N     N_2   0.236836 0.334646 0.314852 -0.303220
N5    N     N_2   0.574604 0.123320 0.261848 -0.236919
O1    O     O_R   0.500010 0.316790 0.614690 -0.628049
O2    O     O_R   0.500000 0.316760 0.385350 -0.562620
O3    O     O_R   0.367850 0.499990 0.614680 -0.626927
O4    O     O_R   0.367840 0.499950 0.385340 -0.604691
O5    O     O_R   0.500000 0.683240 0.614650 -0.605985
O6    O     O_R   0.499990 0.683210 0.385310 -0.590896
O7    O     O_R   0.632160 0.500050 0.614660 -0.625911
O8    O     O_R   0.632150 0.500010 0.385320 -0.561793
Zn1   Zn    Zn3+2 0.500010 0.500020 0.653130 0.962790
Zn2   Zn    Zn3+2 0.499990 0.499980 0.346870 1.018582

loop_
_geom_bond_atom_site_label_1
_geom_bond_atom_site_label_2
_ccdc_geom_bond_type
N2    Zn1   S    
C35   C36   A    
C7    C8    A    
C13   H20   S    
C29   H9    S    
C15   C19   A    
C30   H14   S    
C26   C27   A    
C12   C28   A    
C31   H18   S    
C36   C37   A    
C9    N3    S    
C22   O8    A    
C16   O6    A    
C37   F3    S    
O7    Zn1   S    
C18   H23   S    
C18   N2    A    
C14   H22   S    
C23   H3    S    
C34   C35   A    
C31   H19   S    
C12   C37   A    
H7    N3    S    
C4    O4    A    
C1    C7    S    
C19   C20   S    
C8    C9    A    
C22   C25   S    
C36   H6    S    
H11   N4    S    
C23   C27   A    
C9    C10   A    
C4    O3    A    
C31   N5    S    
C28   C34   A    
O3    Zn1   S    
C13   C14   S    
C24   H1    S    
O2    Zn2   S    
C30   N4    S    
C33   C34   A    
C29   N3    S    
C29   H10   S    
C30   H13   S    
C17   N1    A    
C1    O1    A    
C29   H8    S    
C26   H26   S    
C24   C25   A    
C22   O7    A    
C6    C11   A    
O8    Zn2   S    
C20   F2    S    
O4    Zn2   S    
C25   C26   A    
C14   H21   S    
C5    H5    S    
C20   H24   S    
C6    C14   S    
C13   H12   S    
O6    Zn2   S    
H16   N5    S    
C15   N1    A    
C17   C18   A    
C32   H4    S    
C19   N2    A    
C2    C33   A    
N1    Zn2   S    
C3    C4    S    
C8    N5    S    
C21   H25   S    
C16   O5    A    
O5    Zn1   S    
C3    C5    A    
C6    C7    A    
C30   H15   S    
C12   C24   A    
C1    O2    A    
C23   C32   A    
C31   H17   S    
C2    C3    A    
O1    Zn1   S    
C10   C16   S    
C32   C33   A    
C11   C13   S    
C5    C35   A    
C17   F1    S    
C10   C11   A    
C21   H2    S    
C15   C21   S    
C20   C21   S    
C27   C28   A    
C2    N4    S    
