data_mof_unit_63330.cif
_audit_creation_date              2012-12-10T17:56:23-0500
_audit_creation_method            fapswitch 2.2
_symmetry_space_group_name_H-M    P1
_symmetry_Int_Tables_number       1
_space_group_crystal_system       triclinic
_cell_length_a                    21.655145
_cell_length_b                    21.655145
_cell_length_c                    29.150498
_cell_angle_alpha                 90.00004
_cell_angle_beta                  90.00004
_cell_angle_gamma                 90.000107
_cell_volume                      13669.9891746

loop_
_atom_site_label
_atom_site_type_symbol
_atom_type_description
_atom_site_fract_x
_atom_site_fract_y
_atom_site_fract_z
_atom_type_partial_charge
C1    C     C_R   0.379975 1.000000 0.000000 0.885608
C2    C     C_R   0.121483 1.000000 1.000000 0.910917
C3    C     C_R   0.000000 0.121483 0.000000 0.910922
C4    C     C_R   0.878517 1.000000 1.000000 0.910922
C5    C     C_R   0.500000 0.378517 0.500000 0.910917
C6    C     C_R   0.621483 0.500000 0.500000 0.910917
C7    C     C_R   0.500000 0.621483 0.500000 0.910922
C8    C     C_R   0.378517 0.500000 0.500000 0.910922
C9    C     C_R   0.500000 0.000000 0.085768 0.880068
C10   C     C_R   0.000000 0.500000 0.085768 0.880068
C11   C     C_R   0.500000 1.000000 0.914232 0.880066
C12   C     C_R   1.000000 0.379975 0.000000 0.885608
C13   C     C_R   1.000000 0.500000 0.914232 0.880066
C14   C     C_R   1.000000 0.500000 0.585768 0.880068
C15   C     C_R   0.500000 1.000000 0.585768 0.880068
C16   C     C_R   0.000000 0.500000 0.414232 0.880066
C17   C     C_R   0.500000 0.000000 0.414232 0.880066
C18   C     C_1   0.500000 1.000000 0.136585 -0.202979
C19   C     C_1   0.000000 0.500000 0.136585 -0.202979
C20   C     C_1   0.500000 1.000000 0.863415 -0.202980
C21   C     C_1   1.000000 0.500000 0.863415 -0.202980
C22   C     C_1   1.000000 0.500000 0.636585 -0.202979
C23   C     C_R   0.620025 0.000000 1.000000 0.885607
C24   C     C_1   0.500000 1.000000 0.636585 -0.202979
C25   C     C_1   0.000000 0.500000 0.363415 -0.202980
C26   C     C_1   0.500000 0.000000 0.363415 -0.202980
C27   C     C_1   0.500000 0.000000 0.178886 0.001691
C28   C     C_1   0.000000 0.500000 0.178886 0.001691
C29   C     C_1   0.500000 1.000000 0.821114 0.001691
C30   C     C_1   1.000000 0.500000 0.821114 0.001691
C31   C     C_1   1.000000 0.500000 0.678886 0.001691
C32   C     C_1   0.500000 1.000000 0.678886 0.001691
C33   C     C_1   0.000000 0.500000 0.321114 0.001691
C34   C     C_R   0.000000 0.620025 1.000000 0.885607
C35   C     C_1   0.500000 0.000000 0.321114 0.001691
C36   C     C_1   0.500000 0.000000 0.228849 0.005910
C37   C     C_1   0.000000 0.500000 0.228849 0.005909
C38   C     C_1   0.500000 1.000000 0.771150 0.005909
C39   C     C_1   1.000000 0.500000 0.771150 0.005910
C40   C     C_1   1.000000 0.500000 0.728849 0.005910
C41   C     C_1   0.500000 1.000000 0.728849 0.005909
C42   C     C_1   0.000000 0.500000 0.271150 0.005909
C43   C     C_1   0.500000 0.000000 0.271150 0.005910
C44   C     C_R   0.282965 0.042449 0.972625 -0.219065
C45   C     C_R   0.879975 0.500000 0.500000 0.885608
C46   C     C_R   0.957550 0.282965 0.972625 -0.219066
C47   C     C_R   0.717034 0.957551 0.972624 -0.219069
C48   C     C_R   0.042449 0.717035 0.972625 -0.219064
C49   C     C_R   0.717035 0.042450 0.027375 -0.219066
C50   C     C_R   0.042449 0.282965 0.027375 -0.219068
C51   C     C_R   0.282965 0.957551 0.027375 -0.219064
C52   C     C_R   0.957551 0.717034 0.027375 -0.219065
C53   C     C_R   0.782965 0.542449 0.472625 -0.219065
C54   C     C_R   0.457550 0.782965 0.472625 -0.219066
C55   C     C_R   0.217034 0.457551 0.472624 -0.219069
C56   C     C_R   0.500000 0.879975 0.500000 0.885608
C57   C     C_R   0.542449 0.217035 0.472625 -0.219064
C58   C     C_R   0.217035 0.542450 0.527375 -0.219066
C59   C     C_R   0.542449 0.782965 0.527375 -0.219068
C60   C     C_R   0.782965 0.457551 0.527375 -0.219064
C61   C     C_R   0.457551 0.217034 0.527375 -0.219065
C62   C     C_R   0.218977 0.042493 0.971998 0.075618
C63   C     C_R   0.957506 0.218977 0.971999 0.075616
C64   C     C_R   0.781023 0.957507 0.971998 0.075615
C65   C     C_R   0.042493 0.781023 0.971998 0.075617
C66   C     C_R   0.781023 0.042494 0.028001 0.075616
C67   C     C_R   0.120025 0.500000 0.500000 0.885607
C68   C     C_R   0.042493 0.218977 0.028002 0.075614
C69   C     C_R   0.218977 0.957506 0.028002 0.075617
C70   C     C_R   0.957507 0.781023 0.028002 0.075617
C71   C     C_R   0.718977 0.542493 0.471998 0.075618
C72   C     C_R   0.457506 0.718977 0.471999 0.075616
C73   C     C_R   0.281023 0.457507 0.471998 0.075615
C74   C     C_R   0.542493 0.281023 0.471998 0.075617
C75   C     C_R   0.281023 0.542494 0.528001 0.075616
C76   C     C_R   0.542493 0.718977 0.528002 0.075614
C77   C     C_R   0.718977 0.457506 0.528002 0.075617
C78   C     C_R   0.500000 0.120025 0.500000 0.885607
C79   C     C_R   0.457507 0.281023 0.528002 0.075617
C80   C     C_R   0.187408 1.000000 1.000000 -0.061590
C81   C     C_R   1.000000 0.187408 0.000000 -0.061588
C82   C     C_R   0.812592 0.000000 1.000000 -0.061588
C83   C     C_R   0.000000 0.812592 0.000000 -0.061590
C84   C     C_R   0.687408 0.500000 0.500000 -0.061591
C85   C     C_R   0.500000 0.687408 0.500000 -0.061588
C86   C     C_R   0.312592 0.500000 0.500000 -0.061588
C87   C     C_R   0.500000 0.312592 0.500000 -0.061590
C88   C     C_R   0.314225 1.000000 1.000000 -0.064027
C89   C     C_R   0.000000 0.878517 0.000000 0.910917
C90   C     C_R   1.000000 0.314225 0.000000 -0.064025
C91   C     C_R   0.685775 0.000000 1.000000 -0.064025
C92   C     C_R   0.000000 0.685775 0.000000 -0.064027
C93   C     C_R   0.814225 0.500000 0.500000 -0.064027
C94   C     C_R   0.500000 0.814225 0.500000 -0.064025
C95   C     C_R   0.185775 0.500000 0.500000 -0.064025
C96   C     C_R   0.500000 0.185775 0.500000 -0.064027
H1    H     H_    0.308460 0.074833 0.951502 0.147420
H2    H     H_    0.425165 0.808459 0.451503 0.147420
H3    H     H_    0.191540 0.425166 0.451502 0.147420
H4    H     H_    0.574833 0.191540 0.451502 0.147419
H5    H     H_    0.191541 0.574834 0.548497 0.147420
H6    H     H_    0.574833 0.808460 0.548497 0.147420
H7    H     H_    0.808459 0.425166 0.548497 0.147420
H8    H     H_    0.425167 0.191540 0.548498 0.147420
H9    H     H_    0.216342 0.111378 0.923501 0.184016
H10   H     H_    0.163862 0.117130 0.965532 0.163691
H11   H     H_    0.888620 0.216341 0.923504 0.184017
H12   H     H_    0.925165 0.308459 0.951503 0.147420
H13   H     H_    0.882866 0.163864 0.965536 0.163689
H14   H     H_    0.783658 0.888626 0.923499 0.184018
H15   H     H_    0.836131 0.882865 0.965534 0.163690
H16   H     H_    0.111379 0.783659 0.923502 0.184017
H17   H     H_    0.117132 0.836136 0.965534 0.163691
H18   H     H_    0.783659 0.111380 0.076496 0.184017
H19   H     H_    0.836136 0.117134 0.034464 0.163689
H20   H     H_    0.111374 0.216341 0.076501 0.184018
H21   H     H_    0.117135 0.163869 0.034466 0.163690
H22   H     H_    0.216341 0.888621 0.076497 0.184017
H23   H     H_    0.691540 0.925166 0.951502 0.147420
H24   H     H_    0.163864 0.882868 0.034466 0.163691
H25   H     H_    0.888622 0.783658 0.076498 0.184016
H26   H     H_    0.882870 0.836138 0.034467 0.163691
H27   H     H_    0.716342 0.611378 0.423501 0.184016
H28   H     H_    0.663862 0.617130 0.465532 0.163691
H29   H     H_    0.388620 0.716341 0.423504 0.184017
H30   H     H_    0.382866 0.663864 0.465536 0.163689
H31   H     H_    0.283658 0.388626 0.423499 0.184018
H32   H     H_    0.336131 0.382865 0.465534 0.163690
H33   H     H_    0.611379 0.283659 0.423502 0.184017
H34   H     H_    0.074833 0.691541 0.951502 0.147419
H35   H     H_    0.617132 0.336136 0.465534 0.163691
H36   H     H_    0.283659 0.611380 0.576496 0.184017
H37   H     H_    0.336136 0.617134 0.534464 0.163689
H38   H     H_    0.611374 0.716341 0.576501 0.184018
H39   H     H_    0.617135 0.663869 0.534466 0.163690
H40   H     H_    0.716341 0.388621 0.576497 0.184017
H41   H     H_    0.663864 0.382868 0.534466 0.163691
H42   H     H_    0.388622 0.283658 0.576498 0.184016
H43   H     H_    0.382870 0.336138 0.534467 0.163691
H44   H     H_    0.691541 0.074835 0.048497 0.147420
H45   H     H_    0.074833 0.308460 0.048497 0.147420
H46   H     H_    0.308459 0.925166 0.048497 0.147420
H47   H     H_    0.925167 0.691540 0.048498 0.147420
H48   H     H_    0.808460 0.574833 0.451502 0.147420
N1    N     N_3   0.185809 0.085727 0.943735 -0.431778
N2    N     N_3   0.414269 0.685809 0.443737 -0.431780
N3    N     N_3   0.314190 0.414271 0.443736 -0.431781
N4    N     N_3   0.585729 0.314191 0.443736 -0.431781
N5    N     N_3   0.314191 0.585731 0.556262 -0.431780
N6    N     N_3   0.585728 0.685809 0.556264 -0.431781
N7    N     N_3   0.685809 0.414271 0.556264 -0.431781
N8    N     N_3   0.414273 0.314190 0.556265 -0.431778
N9    N     N_3   0.914269 0.185809 0.943738 -0.431780
N10   N     N_3   0.814190 0.914271 0.943736 -0.431781
N11   N     N_3   0.085729 0.814191 0.943736 -0.431781
N12   N     N_3   0.814191 0.085731 0.056262 -0.431780
N13   N     N_3   0.085728 0.185810 0.056264 -0.431781
N14   N     N_3   0.185809 0.914271 0.056264 -0.431781
N15   N     N_3   0.914273 0.814190 0.056265 -0.431778
N16   N     N_3   0.685809 0.585727 0.443735 -0.431778
O1    O     O_R   0.408380 0.948270 0.000000 -0.618298
O2    O     O_R   0.551730 0.908380 0.500000 -0.618298
O3    O     O_R   0.091620 0.551730 0.500000 -0.618299
O4    O     O_R   0.448270 0.091620 0.500000 -0.618299
O5    O     O_R   0.091620 0.448270 0.500000 -0.618299
O6    O     O_R   0.448270 0.908380 0.500000 -0.618299
O7    O     O_R   0.908380 0.551730 0.500000 -0.618298
O8    O     O_R   0.551730 0.091620 0.500000 -0.618299
O9    O     O_R   0.499990 0.948270 0.063150 -0.599935
O10   O     O_R   0.051730 0.499990 0.063150 -0.599935
O11   O     O_R   0.500010 0.051730 0.063150 -0.599935
O12   O     O_R   0.051730 0.408380 0.000000 -0.618298
O13   O     O_R   0.948270 0.500010 0.063150 -0.599935
O14   O     O_R   0.500010 0.948270 0.936850 -0.599934
O15   O     O_R   0.948270 0.499990 0.936850 -0.599934
O16   O     O_R   0.499990 0.051730 0.936850 -0.599934
O17   O     O_R   0.051730 0.500010 0.936850 -0.599934
O18   O     O_R   0.999990 0.448270 0.563150 -0.599935
O19   O     O_R   0.551730 0.999990 0.563150 -0.599935
O20   O     O_R   0.000010 0.551730 0.563150 -0.599935
O21   O     O_R   0.448270 0.000010 0.563150 -0.599935
O22   O     O_R   0.000010 0.448270 0.436850 -0.599934
O23   O     O_R   0.591620 0.051730 0.000000 -0.618299
O24   O     O_R   0.448270 0.999990 0.436850 -0.599934
O25   O     O_R   0.999990 0.551730 0.436850 -0.599934
O26   O     O_R   0.551730 0.000010 0.436850 -0.599934
O27   O     O_R   0.000010 0.908280 0.964370 -0.609698
O28   O     O_R   0.091720 0.000010 0.964370 -0.609700
O29   O     O_R   0.999990 0.091720 0.964370 -0.609700
O30   O     O_R   0.908280 0.999990 0.964370 -0.609698
O31   O     O_R   0.999990 0.908280 0.035630 -0.609700
O32   O     O_R   0.908280 0.000010 0.035630 -0.609700
O33   O     O_R   0.000010 0.091720 0.035630 -0.609698
O34   O     O_R   0.948270 0.591620 0.000000 -0.618299
O35   O     O_R   0.091720 0.999990 0.035630 -0.609699
O36   O     O_R   0.500010 0.408280 0.464370 -0.609698
O37   O     O_R   0.591720 0.500010 0.464370 -0.609700
O38   O     O_R   0.499990 0.591720 0.464370 -0.609701
O39   O     O_R   0.408280 0.499990 0.464370 -0.609698
O40   O     O_R   0.499990 0.408280 0.535630 -0.609700
O41   O     O_R   0.408280 0.500010 0.535630 -0.609700
O42   O     O_R   0.500010 0.591720 0.535630 -0.609698
O43   O     O_R   0.591720 0.499990 0.535630 -0.609699
O44   O     O_R   0.591620 0.948270 0.000000 -0.618299
O45   O     O_R   0.948270 0.408380 0.000000 -0.618299
O46   O     O_R   0.408380 0.051730 0.000000 -0.618298
O47   O     O_R   0.051730 0.591620 0.000000 -0.618299
O48   O     O_R   0.908380 0.448270 0.500000 -0.618298
Zn1   Zn    Zn3+2 0.500000 0.930930 0.000000 0.959794
Zn2   Zn    Zn3+2 0.000000 0.000000 0.047590 1.001350
Zn3   Zn    Zn3+2 0.500000 0.500000 0.452410 1.001350
Zn4   Zn    Zn3+2 0.500000 0.500000 0.547590 1.001350
Zn5   Zn    Zn3+2 0.069070 0.500000 0.000000 0.959794
Zn6   Zn    Zn3+2 0.500000 0.069070 0.000000 0.959794
Zn7   Zn    Zn3+2 0.930930 0.500000 0.000000 0.959794
Zn8   Zn    Zn3+2 0.000000 0.430930 0.500000 0.959794
Zn9   Zn    Zn3+2 0.569070 0.000000 0.500000 0.959794
Zn10  Zn    Zn3+2 0.000000 0.569070 0.500000 0.959794
Zn11  Zn    Zn3+2 0.430930 0.000000 0.500000 0.959794
Zn12  Zn    Zn3+2 0.000000 0.000000 0.952410 1.001350

loop_
_geom_bond_atom_site_label_1
_geom_bond_atom_site_label_2
_ccdc_geom_bond_type
C47   C64   A    
H24   N14   S    
C52   C70   A    
C78   O4    A    
C15   O19   A    
H19   N12   S    
O14   Zn1   S    
C4    O32   A    
O20   Zn10  S    
C9    O11   A    
C45   C93   S    
C77   N7    S    
C79   C87   A    
C72   C85   A    
H30   N2    S    
C61   C96   A    
C12   O12   A    
O10   Zn5   S    
C7    C85   S    
C56   C94   S    
C71   N16   S    
C11   O16   A    
C3    O33   A    
H10   N1    S    
C63   C81   A    
O37   Zn3   S    
C33   C42   S    
C12   C90   S    
C8    O41   A    
O13   Zn7   S    
H17   N11   S    
C70   N15   S    
C7    O42   A    
H29   N2    S    
C3    O29   A    
C34   O34   A    
C16   O22   A    
C65   C83   A    
H27   N16   S    
H38   N6    S    
C64   N10   S    
H43   N8    S    
O47   Zn5   S    
C31   C40   S    
H11   N9    S    
C2    O35   A    
C37   C42   T    
H33   N4    S    
C75   C86   A    
O36   Zn3   S    
C9    O9    A    
C50   C90   A    
O24   Zn11  S    
C78   C96   S    
H16   N11   S    
C46   H12   S    
C29   C38   S    
O21   Zn11  S    
H26   N15   S    
C59   C94   A    
O8    Zn9   S    
C60   H7    S    
C35   C43   S    
C17   O26   A    
O41   Zn4   S    
C8    C86   S    
C50   H45   S    
C20   C29   T    
C60   C93   A    
C67   O5    A    
C10   O13   A    
C47   H23   S    
O2    Zn9   S    
C1    O1    A    
C67   C95   S    
O19   Zn9   S    
O22   Zn8   S    
H36   N5    S    
C89   O27   A    
C48   H34   S    
C49   C91   A    
H18   N12   S    
O23   Zn6   S    
C48   C65   A    
C58   C75   A    
C5    O40   A    
C34   C92   S    
O27   Zn12  S    
O28   Zn12  S    
C83   C89   S    
O26   Zn9   S    
C11   C20   S    
C52   H47   S    
C6    C84   S    
C49   C66   A    
C53   C93   A    
C4    O30   A    
C61   H8    S    
H37   N5    S    
C63   N9    S    
O35   Zn2   S    
C55   C95   A    
C54   C72   A    
O25   Zn10  S    
H25   N15   S    
O34   Zn7   S    
C1    C88   S    
H42   N8    S    
C76   C85   A    
C57   H4    S    
O1    Zn1   S    
C62   N1    S    
C56   O2    A    
O15   Zn7   S    
C57   C74   A    
O44   Zn1   S    
C58   C95   A    
C24   C32   T    
C3    C81   S    
H14   N10   S    
O17   Zn5   S    
C66   C82   A    
C44   H1    S    
C26   C35   T    
O5    Zn8   S    
C61   C79   A    
C76   N6    S    
C10   C19   S    
C32   C41   S    
H9    N1    S    
C22   C31   T    
C69   C80   A    
C25   C33   T    
C69   N14   S    
C89   O31   A    
C13   C21   S    
H35   N4    S    
C58   H5    S    
O40   Zn4   S    
C1    O46   A    
C45   O7    A    
C64   C82   A    
C23   O23   A    
C14   O18   A    
C38   C41   T    
C5    O36   A    
O4    Zn11  S    
C15   C24   S    
C5    C87   S    
C73   N3    S    
H28   N16   S    
C45   O48   A    
C19   C28   T    
C74   C87   A    
C23   C91   S    
O43   Zn4   S    
H22   N14   S    
O32   Zn2   S    
C56   O6    A    
C68   N13   S    
C53   C71   A    
C39   C40   T    
H40   N7    S    
H13   N9    S    
C15   O21   A    
C71   C84   A    
C51   H46   S    
C62   C80   A    
C16   C25   S    
C13   O15   A    
C11   O14   A    
O7    Zn10  S    
C59   H6    S    
C47   C91   A    
H21   N13   S    
H41   N7    S    
C18   C27   T    
C34   O47   A    
O42   Zn4   S    
C8    O39   A    
O30   Zn12  S    
C51   C88   A    
C6    O37   A    
O29   Zn12  S    
H32   N3    S    
C46   C90   A    
O18   Zn8   S    
C27   C36   S    
C10   O10   A    
H39   N6    S    
C51   C69   A    
C21   C30   T    
C74   N4    S    
C78   O8    A    
C77   C84   A    
C68   C81   A    
C23   O44   A    
C16   O25   A    
C53   H48   S    
C44   C62   A    
C60   C77   A    
C14   C22   S    
C7    O38   A    
H20   N13   S    
C65   N11   S    
O38   Zn3   S    
C12   O45   A    
C66   N12   S    
O11   Zn6   S    
C17   O24   A    
O46   Zn6   S    
O33   Zn2   S    
C70   C83   A    
C46   C63   A    
C28   C37   S    
C75   N5    S    
C13   O17   A    
C59   C76   A    
O16   Zn6   S    
C17   C26   S    
C30   C39   S    
O39   Zn3   S    
H15   N10   S    
C2    O28   A    
C73   C86   A    
C54   C94   A    
C2    C80   S    
O31   Zn2   S    
C55   C73   A    
O3    Zn10  S    
C67   O3    A    
C9    C18   S    
C6    O43   A    
C4    C82   S    
O45   Zn7   S    
O48   Zn8   S    
C48   C92   A    
C49   H44   S    
C55   H3    S    
C72   N2    S    
O9    Zn1   S    
C54   H2    S    
C36   C43   T    
C57   C96   A    
C44   C88   A    
C50   C68   A    
O6    Zn11  S    
C52   C92   A    
C14   O20   A    
O12   Zn5   S    
H31   N3    S    
C79   N8    S    
