data_mof_unit_55184.cif
_audit_creation_date              2012-12-10T16:42:55-0500
_audit_creation_method            fapswitch 2.2
_symmetry_space_group_name_H-M    P1
_symmetry_Int_Tables_number       1
_space_group_crystal_system       triclinic
_cell_length_a                    7.465894
_cell_length_b                    8.679922
_cell_length_c                    12.970937
_cell_angle_alpha                 88.028691
_cell_angle_beta                  79.443018
_cell_angle_gamma                 102.768214
_cell_volume                      803.43673194

loop_
_atom_site_label
_atom_site_type_symbol
_atom_type_description
_atom_site_fract_x
_atom_site_fract_y
_atom_site_fract_z
_atom_type_partial_charge
C1    C     C_R   0.452838 0.199750 0.503192 0.873922
C2    C     C_R   0.547162 0.800250 0.496808 0.873922
C3    C     C_R   0.467418 0.498779 0.700725 0.802761
C4    C     C_R   0.532582 0.501220 0.299275 0.802763
C5    C     C_R   0.550704 0.508687 0.186294 -0.037219
C6    C     C_R   0.449302 0.491302 0.813705 -0.037219
C7    C     C_R   0.297899 0.343743 0.978860 -0.207336
C8    C     C_R   0.702123 0.656231 0.021137 -0.207337
C9    C     C_R   0.309059 0.370204 0.872238 -0.253537
C10   C     C_R   0.690953 0.629780 0.127760 -0.253532
C11   C     C_R   0.575340 0.595357 0.862516 0.113802
C12   C     C_R   0.424673 0.404626 0.137484 0.113788
C13   C     C_R   0.569974 0.563769 0.970602 0.121707
C14   C     C_R   0.430049 0.436203 0.029395 0.121712
C15   C     C_2   0.426313 0.031896 0.504612 -0.371634
C16   C     C_2   0.573687 0.968104 0.495387 -0.371633
Cu1   Cu    Cu3+1 0.686350 0.517570 0.488220 0.948907
Cu2   Cu    Cu3+1 0.313650 0.482430 0.511780 0.948908
H1    H     H_    0.789635 0.707826 0.165524 0.160388
H2    H     H_    0.210371 0.292165 0.834475 0.160390
H3    H     H_    0.186031 0.248551 0.020330 0.160588
H4    H     H_    0.813989 0.751424 0.979667 0.160588
H5    H     H_    0.934239 0.376536 0.583033 0.226345
H6    H     H_    0.065761 0.623463 0.416966 0.226344
H7    H     H_    0.284226 0.960453 0.513254 0.180342
H8    H     H_    0.715774 0.039547 0.486746 0.180342
N1    N     N_2   0.033570 0.455950 0.529530 -0.215177
N2    N     N_2   0.966430 0.544050 0.470470 -0.215179
O1    O     O_R   0.621060 0.286250 0.492350 -0.581374
O2    O     O_R   0.378940 0.713750 0.507650 -0.581374
O3    O     O_R   0.306310 0.256580 0.512240 -0.591182
O4    O     O_R   0.693690 0.743420 0.487760 -0.591183
O5    O     O_R   0.631800 0.512400 0.642670 -0.581862
O6    O     O_R   0.368200 0.487600 0.357330 -0.581862
O7    O     O_R   0.317060 0.482730 0.662570 -0.585421
O8    O     O_R   0.682940 0.517270 0.337430 -0.585424
C17   C     C_3   0.291522 0.258135 0.198356 -0.862622
H9    H     H_    0.322378 0.232272 0.276607 0.238361
H10   H     H_    0.145133 0.272112 0.208940 0.240921
H11   H     H_    0.304765 0.151788 0.155046 0.219325
C18   C     C_3   0.708466 0.741867 0.801654 -0.862624
H12   H     H_    0.677636 0.767716 0.723392 0.238366
H13   H     H_    0.695157 0.848203 0.844965 0.219332
H14   H     H_    0.854873 0.727936 0.791087 0.240904

loop_
_geom_bond_atom_site_label_1
_geom_bond_atom_site_label_2
_ccdc_geom_bond_type
C8    H4    S    
C4    O8    A    
C17   H9    S    
C1    C15   S    
Cu1   O8    S    
H5    N1    S    
Cu1   O1    S    
Cu2   O7    S    
C9    H2    S    
C3    O7    A    
C10   H1    S    
C2    O2    A    
C3    C6    S    
C6    C9    A    
C1    O1    A    
Cu1   Cu2   S    
C5    C10   A    
C17   H10   S    
C13   C14   A    
C18   H13   S    
C6    C11   A    
C8    C13   A    
Cu1   O5    S    
Cu2   O2    S    
C8    C10   A    
C12   C14   A    
C11   C18   S    
C17   H11   S    
Cu2   O6    S    
C1    O3    A    
C16   H8    S    
C18   H14   S    
C4    O6    A    
C15   H7    S    
C3    O5    A    
C15   C16   D    
C11   C13   A    
C2    C16   S    
C5    C12   A    
C2    O4    A    
C18   H12   S    
C12   C17   S    
C7    C9    A    
Cu1   O4    S    
Cu2   O3    S    
C7    H3    S    
Cu1   N2    S    
C7    C14   A    
Cu2   N1    S    
H6    N2    S    
C4    C5    S    
N1    N2    D    
