data_mof_unit_66638.cif
_audit_creation_date              2012-12-11T14:36:10-0500
_audit_creation_method            fapswitch 2.2
_symmetry_space_group_name_H-M    P1
_symmetry_Int_Tables_number       1
_space_group_crystal_system       triclinic
_cell_length_a                    14.771483
_cell_length_b                    15.943475
_cell_length_c                    7.047992
_cell_angle_alpha                 89.532644
_cell_angle_beta                  81.382942
_cell_angle_gamma                 89.865547
_cell_volume                      1641.07142255

loop_
_atom_site_label
_atom_site_type_symbol
_atom_type_description
_atom_site_fract_x
_atom_site_fract_y
_atom_site_fract_z
_atom_type_partial_charge
O1    O     O_R   0.337460 0.413110 0.524760 -0.520693
O2    O     O_R   0.662540 0.913110 0.475240 -0.520506
O3    O     O_R   0.348690 0.587910 0.191230 -0.554148
O4    O     O_R   0.651310 0.087910 0.808770 -0.553208
O5    O     O_R   0.166530 0.586890 0.082470 -0.543445
O6    O     O_R   0.833470 0.086890 0.917530 -0.540547
C1    C     C_R   0.373750 0.612882 0.353487 0.730734
C2    C     C_R   0.622304 0.108301 0.646579 0.737135
O7    O     O_R   0.348700 0.413830 0.191250 -0.524212
O8    O     O_R   0.651300 0.913830 0.808750 -0.524719
O9    O     O_R   0.166530 0.411570 0.082490 -0.503051
O10   O     O_R   0.833470 0.911570 0.917510 -0.502356
C3    C     C_R   0.371110 0.385951 0.355150 0.824567
C4    C     C_R   0.627804 0.886821 0.645651 0.819429
O11   O     O_R   0.337460 0.588430 0.524740 -0.544881
O12   O     O_R   0.662540 0.088430 0.475260 -0.544762
O13   O     O_3   0.192230 0.499460 0.407330 -0.347011
O14   O     O_3   0.807770 0.999460 0.592670 -0.344169
V1    V     V_3+5 0.263080 0.500100 0.108540 1.496576
V2    V     V_3+5 0.736920 0.000100 0.891460 1.501125
O15   O     O_R   0.155290 0.412090 0.756570 -0.529860
O16   O     O_R   0.844710 0.912090 0.243430 -0.529222
C5    C     C_R   0.136224 0.380641 0.932924 0.739530
C6    C     C_R   0.865416 0.881851 0.067058 0.745454
O17   O     O_R   0.155290 0.586170 0.756550 -0.543703
O18   O     O_R   0.844710 0.086170 0.243450 -0.542006
C7    C     C_R   0.136673 0.618049 0.930589 0.657972
C8    C     C_R   0.860612 0.120229 0.069501 0.654672
V3    V     V_3+5 0.240910 0.499900 0.616030 1.490075
V4    V     V_3+5 0.759090 0.999900 0.383970 1.495106
O19   O     O_3   0.311760 0.500540 0.867100 -0.359786
O20   O     O_3   0.688240 0.000540 0.132900 -0.359428
C9    C     C_3   0.111140 0.773783 0.051725 0.187151
C10   C     C_3   0.890539 0.278311 0.938337 0.175778
C11   C     C_3   0.024564 0.831945 0.121054 -0.318378
C12   C     C_3   0.979495 0.332993 0.870213 -0.304967
H1    H     H_    0.041352 0.899154 0.100267 0.144780
H2    H     H_    0.966275 0.401055 0.884593 0.142775
H3    H     H_    0.004202 0.824063 0.278232 0.196386
H4    H     H_    0.001171 0.323317 0.714384 0.201559
H5    H     H_    0.992791 0.661422 0.259503 0.181041
H6    H     H_    0.005678 0.162251 0.742067 0.183869
C13   C     C_3   0.980963 0.661888 0.108215 -0.354125
C14   C     C_3   0.016606 0.162581 0.893999 -0.348113
C15   C     C_3   0.034258 0.720188 0.773363 -0.406298
C16   C     C_3   0.961898 0.221982 0.226119 -0.405368
C17   C     C_3   0.068925 0.692125 0.965471 -0.017560
C18   C     C_3   0.928622 0.194852 0.032860 -0.020518
H7    H     H_    0.994313 0.666521 0.729386 0.171064
H8    H     H_    0.996887 0.166767 0.279950 0.176181
H9    H     H_    0.088624 0.724857 0.649444 0.146527
H10   H     H_    0.905684 0.233473 0.342664 0.159272
C19   C     C_3   0.936963 0.810854 0.024571 -0.014367
C20   C     C_3   0.064171 0.310120 0.975001 -0.019622
C21   C     C_3   0.898413 0.720359 0.086688 -0.093296
C22   C     C_3   0.100321 0.218954 0.915705 -0.097996
C23   C     C_3   0.971985 0.801670 0.803886 0.256238
C24   C     C_3   0.029060 0.299209 0.195868 0.261451
H11   H     H_    0.963616 0.596280 0.074142 0.142830
H12   H     H_    0.031837 0.096489 0.931287 0.150533
H13   H     H_    0.873919 0.690328 0.962888 0.169048
H14   H     H_    0.122647 0.186417 0.039571 0.175343
H15   H     H_    0.439310 0.690380 0.644883 0.150695
H16   H     H_    0.552348 0.183502 0.355252 0.157550
C25   C     C_2   0.444893 0.678386 0.344225 -0.322593
C26   C     C_2   0.545737 0.168616 0.655837 -0.334410
C27   C     C_2   0.466531 0.715389 0.504005 -0.171775
C28   C     C_2   0.524223 0.206858 0.496328 -0.174933
H17   H     H_    0.551123 0.777734 0.778990 0.131086
H18   H     H_    0.441639 0.274408 0.223785 0.130456
C29   C     C_2   0.561810 0.816363 0.649820 -0.369426
C30   C     C_2   0.433570 0.312846 0.351917 -0.354792
C31   C     C_2   0.521525 0.793607 0.496096 0.188291
C32   C     C_2   0.472814 0.287142 0.505166 0.186802
H19   H     H_    0.474692 0.700599 0.202814 0.160134
H20   H     H_    0.515049 0.189512 0.797095 0.162759
C33   C     C_3   0.162597 0.749397 0.223061 -0.311194
C34   C     C_3   0.188653 0.822945 0.341768 -0.353041
C35   C     C_3   0.277786 0.808208 0.418725 -0.777034
H21   H     H_    0.271978 0.752284 0.514251 0.224118
H22   H     H_    0.332703 0.798075 0.297104 0.256236
H23   H     H_    0.295563 0.863905 0.498658 0.244662
H24   H     H_    0.192123 0.883861 0.269029 0.237297
H25   H     H_    0.134626 0.828531 0.461149 0.220885
H26   H     H_    0.122394 0.704599 0.322500 0.157253
H27   H     H_    0.226702 0.715750 0.166635 0.186592
C36   C     C_3   0.838981 0.253919 0.766150 -0.324902
C37   C     C_3   0.790328 0.324474 0.670379 -0.358097
C38   C     C_3   0.728198 0.290938 0.537214 -0.795231
H28   H     H_    0.757385 0.236812 0.451469 0.227821
H29   H     H_    0.665860 0.271327 0.629124 0.255702
H30   H     H_    0.707623 0.341728 0.445293 0.244593
H31   H     H_    0.741347 0.357862 0.775645 0.242888
H32   H     H_    0.839094 0.369953 0.597666 0.238039
H33   H     H_    0.884979 0.219690 0.655377 0.173235
H34   H     H_    0.781936 0.211575 0.821886 0.189026
I1    I     I_    0.864218 0.779726 0.640535 -0.507451
I2    I     I_    0.138770 0.270539 0.353129 -0.515075
I3    I     I_    0.518392 0.873095 0.248856 -0.471382
I4    I     I_    0.483356 0.365809 0.747858 -0.467718
C39   C     C_3   0.188139 0.814742 0.895041 -0.279703
C40   C     C_3   0.219101 0.907579 0.905095 -0.314435
C41   C     C_3   0.320433 0.916765 0.922878 -0.737428
H35   H     H_    0.334927 0.891083 0.060617 0.259978
H36   H     H_    0.363762 0.883881 0.803780 0.233209
H37   H     H_    0.339368 0.984209 0.915904 0.223493
H38   H     H_    0.211941 0.938353 0.766395 0.207280
H39   H     H_    0.176616 0.946013 0.013495 0.186042
H40   H     H_    0.249443 0.773265 0.875540 0.143642
H41   H     H_    0.167451 0.812170 0.755139 0.173937
C42   C     C_3   0.817572 0.328075 0.083688 -0.316908
C43   C     C_3   0.802124 0.423120 0.044182 -0.323754
C44   C     C_3   0.702496 0.450640 0.104737 -0.767989
H42   H     H_    0.653808 0.407156 0.050676 0.246088
H43   H     H_    0.686124 0.453858 0.263077 0.238242
H44   H     H_    0.692195 0.514141 0.045559 0.225263
H45   H     H_    0.845789 0.460531 0.123943 0.204938
H46   H     H_    0.824511 0.443256 0.894151 0.193523
H47   H     H_    0.751352 0.293718 0.099872 0.157348
H48   H     H_    0.835778 0.327692 0.226594 0.204192
C45   C     C_3   0.806430 0.713914 0.225676 -0.333315
C46   C     C_3   0.793622 0.630892 0.337435 -0.296835
C47   C     C_3   0.699512 0.625040 0.460253 -0.721476
H49   H     H_    0.690103 0.676391 0.566663 0.247509
H50   H     H_    0.644880 0.628800 0.368099 0.236372
H51   H     H_    0.693233 0.564139 0.538697 0.224464
H52   H     H_    0.799805 0.579939 0.232848 0.204762
H53   H     H_    0.847347 0.622008 0.430107 0.230868
H54   H     H_    0.794036 0.767975 0.319774 0.224738
H55   H     H_    0.749098 0.719506 0.139605 0.169558
C48   C     C_3   0.192843 0.210649 0.781624 -0.330447
C49   C     C_3   0.206616 0.123857 0.689540 -0.298729
C50   C     C_3   0.302171 0.113750 0.575698 -0.715828
H56   H     H_    0.314129 0.161351 0.458882 0.249720
H57   H     H_    0.354578 0.120576 0.672035 0.233837
H58   H     H_    0.309031 0.050325 0.511055 0.225205
H59   H     H_    0.197342 0.076354 0.805971 0.193427
H60   H     H_    0.155026 0.112427 0.593290 0.237105
H61   H     H_    0.204757 0.262024 0.677943 0.223216
H62   H     H_    0.249028 0.220240 0.868892 0.172875
I5    I     I_    0.022037 0.923614 0.686296 -0.541063
I6    I     I_    0.983047 0.415876 0.334120 -0.531870

loop_
_geom_bond_atom_site_label_1
_geom_bond_atom_site_label_2
_ccdc_geom_bond_type
C26   C28   D    
C36   C37   S    
C21   C45   S    
C2    C26   S    
C39   C40   S    
C11   C19   S    
O13   V3    S    
C4    C29   S    
C42   C43   S    
C24   I2    S    
C45   H55   S    
O4    C2    A    
V1    O19   S    
C47   H49   S    
C33   C34   S    
C15   C23   S    
C9    C39   S    
H16   C28   S    
O16   C6    A    
C11   H1    S    
O3    C1    A    
V2    O20   S    
C43   H45   S    
C47   H50   S    
C15   H9    S    
C39   H40   S    
C16   H10   S    
C42   H47   S    
C15   C17   S    
C46   H52   S    
H17   C29   S    
O7    C3    A    
O9    V1    S    
C48   H62   S    
C9    C11   S    
O5    C7    A    
C34   H24   S    
O7    V1    S    
O6    C8    A    
O8    V2    S    
C49   C50   S    
C25   C27   D    
C36   H33   S    
C50   H58   S    
O3    V1    S    
C27   C31   S    
C38   H29   S    
C10   C12   S    
C13   H11   S    
C44   H44   S    
C1    O11   A    
C26   H20   S    
C2    O12   A    
C16   C24   S    
C10   C42   S    
H5    C13   S    
H6    C14   S    
C43   C44   S    
O11   V3    S    
C16   C18   S    
C19   C21   S    
O17   V3    S    
H15   C27   S    
V4    O20   S    
C12   H4    S    
C12   C20   S    
C30   C32   D    
O8    C4    A    
C29   C31   D    
C19   C23   S    
C34   C35   S    
C47   H51   S    
C32   I4    S    
C49   H59   S    
O15   V3    S    
C42   H48   S    
C11   H3    S    
C1    C25   S    
C14   C22   S    
C15   H7    S    
C23   I1    S    
C36   H34   S    
O10   V2    S    
O1    V3    S    
C40   H38   S    
C41   H36   S    
C38   H30   S    
C40   H39   S    
C39   H41   S    
C45   C46   S    
O14   V4    S    
C13   C21   S    
C33   H27   S    
O18   V4    S    
O15   C5    A    
C50   H56   S    
C9    C17   S    
C22   H14   S    
O1    C3    A    
O12   V4    S    
C48   C49   S    
C38   H28   S    
C5    C20   S    
C35   H22   S    
C44   H42   S    
C20   C24   S    
C49   H60   S    
C7    C17   S    
C31   I3    S    
C16   H8    S    
C37   H31   S    
C8    C18   S    
C24   I6    S    
O16   V4    S    
C45   H54   S    
C35   H23   S    
C20   C22   S    
O5    V1    S    
C3    C30   S    
O17   C7    A    
O6    V2    S    
O10   C6    A    
O18   C8    A    
C25   H19   S    
C23   I5    S    
O2    V4    S    
C12   H2    S    
C6    C19   S    
V3    O19   S    
C43   H46   S    
C9    C33   S    
C13   C17   S    
C14   H12   S    
C21   H13   S    
O9    C5    A    
O13   V1    S    
C41   H37   S    
O14   V2    S    
C10   C36   S    
C46   H53   S    
C40   C41   S    
O2    C4    A    
C22   C48   S    
C48   H61   S    
C33   H26   S    
C35   H21   S    
O4    V2    S    
C34   H25   S    
C10   C18   S    
C37   C38   S    
C41   H35   S    
C50   H57   S    
C37   H32   S    
H18   C30   S    
C46   C47   S    
C28   C32   S    
C14   C18   S    
C44   H43   S    
