data_mof_unit_67661.cif
_audit_creation_date              2013-03-05T16:47:32-0500
_audit_creation_method            fapswitch 2.2
_symmetry_space_group_name_H-M    P1
_symmetry_Int_Tables_number       1
_space_group_crystal_system       triclinic
_cell_length_a                    10.957248
_cell_length_b                    10.930709
_cell_length_c                    10.154438
_cell_angle_alpha                 99.959733
_cell_angle_beta                  100.543019
_cell_angle_gamma                 90.339328
_cell_volume                      1176.76385101

loop_
_atom_site_label
_atom_site_type_symbol
_atom_site_description
_atom_site_fract_x
_atom_site_fract_y
_atom_site_fract_z
_atom_type_partial_charge
O1    O     O_R   0.517830 0.337490 0.617920 -0.540613
O2    O     O_R   0.482170 0.662510 0.382080 -0.540512
O3    O     O_R   0.482150 0.301790 0.382070 -0.566825
O4    O     O_R   0.517850 0.698210 0.617930 -0.566916
C1    C     C_R   0.503849 0.262863 0.499183 0.830101
C2    C     C_R   0.496087 0.737128 0.500819 0.828822
O5    O     O_R   0.337480 0.517860 0.617920 -0.554489
O6    O     O_R   0.662520 0.482140 0.382080 -0.554459
O7    O     O_R   0.301810 0.482160 0.382070 -0.573001
O8    O     O_R   0.698190 0.517840 0.617930 -0.572631
C3    C     C_R   0.262540 0.498646 0.498614 0.844225
C4    C     C_R   0.737457 0.501386 0.501383 0.845653
Cu1   Cu    Cu3+1 0.521120 0.521140 0.639640 1.044045
Cu2   Cu    Cu3+1 0.478880 0.478860 0.360360 1.044171
H1    H     H_    0.188535 0.417635 0.900271 0.202299
H2    H     H_    0.811042 0.581148 0.099446 0.201801
C5    C     C_R   0.164692 0.553455 0.073199 -0.019071
C6    C     C_R   0.835241 0.445802 0.926302 -0.018296
C7    C     C_R   0.116883 0.574259 0.194659 0.409344
C8    C     C_R   0.883117 0.425484 0.804910 0.409780
C9    C     C_R   0.073265 0.471026 0.241216 -0.051749
C10   C     C_R   0.926718 0.528898 0.758757 -0.052709
C11   C     C_R   0.072794 0.351252 0.165753 -0.190952
C12   C     C_R   0.927020 0.648526 0.834505 -0.189587
H3    H     H_    0.041658 0.272524 0.203390 0.140616
H4    H     H_    0.958096 0.727429 0.797136 0.140924
C13   C     C_R   0.114877 0.332585 0.043356 -0.041148
C14   C     C_R   0.884755 0.666791 0.956812 -0.041274
H5    H     H_    0.116904 0.239424 0.986841 0.206337
H6    H     H_    0.882550 0.759827 0.013572 0.206651
C15   C     C_R   0.157411 0.433650 0.995667 -0.306714
C16   C     C_R   0.842286 0.565464 0.004121 -0.307870
C17   C     C_R   0.912863 0.485471 0.379300 -0.186763
C18   C     C_R   0.087124 0.514539 0.620688 -0.186667
H7    H     H_    0.846808 0.473404 0.284491 0.160667
H8    H     H_    0.153172 0.526430 0.715484 0.160625
C19   C     C_R   0.872245 0.501554 0.503306 -0.019669
C20   C     C_R   0.127747 0.498470 0.496687 -0.018955
C21   C     C_R   0.961413 0.515112 0.624991 0.047405
C22   C     C_R   0.038577 0.485011 0.375002 0.048843
H9    H     H_    0.825673 0.106573 0.032999 0.197246
H10   H     H_    0.175159 0.893079 0.967811 0.197814
C23   C     C_R   0.644507 0.118370 0.086454 -0.098249
C24   C     C_R   0.356148 0.881471 0.913919 -0.097766
H11   H     H_    0.600056 0.131016 0.986271 0.217917
H12   H     H_    0.400788 0.868863 0.014059 0.217587
C25   C     C_R   0.571387 0.105364 0.183172 0.354871
C26   C     C_R   0.429025 0.894620 0.817005 0.355507
C27   C     C_R   0.632180 0.083691 0.312128 -0.081170
C28   C     C_R   0.367963 0.916277 0.688137 -0.081594
C29   C     C_R   0.761764 0.073190 0.339421 -0.078723
C30   C     C_R   0.238363 0.926656 0.661126 -0.079203
H13   H     H_    0.806210 0.050906 0.436360 0.250455
H14   H     H_    0.193711 0.948917 0.564251 0.250457
C31   C     C_R   0.832468 0.081081 0.239517 -0.036993
C32   C     C_R   0.167907 0.918689 0.761238 -0.036696
C33   C     C_R   0.772898 0.103417 0.112756 -0.213084
C34   C     C_R   0.227737 0.896325 0.887900 -0.212808
C35   C     C_R   0.557802 0.918180 0.412446 -0.157227
C36   C     C_R   0.442023 0.081796 0.587532 -0.157240
H15   H     H_    0.605093 0.855852 0.345502 0.179788
H16   H     H_    0.394736 0.144122 0.654477 0.179882
C37   C     C_R   0.495588 0.871473 0.502012 -0.005752
C38   C     C_R   0.504278 0.128509 0.497990 -0.005218
C39   C     C_R   0.436914 0.954841 0.590561 0.086948
C40   C     C_R   0.562974 0.045134 0.409475 0.087345
N1    N     N_2   0.447120 0.447110 0.150550 -0.302371
N2    N     N_2   0.552880 0.552890 0.849450 -0.302609
C41   C     C_2   0.502550 0.515478 0.078461 -0.041852
C42   C     C_2   0.497576 0.484463 0.921571 -0.043068
H17   H     H_    0.601293 0.632143 0.901929 0.237815
H18   H     H_    0.398645 0.367894 0.098040 0.237881
C43   C     C_2   0.967065 0.059476 0.263614 0.468848
H19   H     H_    0.017236 0.050735 0.179807 0.068312
O9    O     O_2   0.023770 0.051536 0.376891 -0.464591
C44   C     C_2   0.033303 0.940272 0.737470 0.469388
H20   H     H_    0.983367 0.949164 0.821478 0.067626
O10   O     O_2   0.976327 0.948030 0.624248 -0.464004
C45   C     C_2   0.436421 0.363626 0.855527 0.480084
H21   H     H_    0.473491 0.279946 0.887682 0.095176
O11   O     O_2   0.341870 0.355830 0.769952 -0.572047
C46   C     C_2   0.563852 0.636286 0.144493 0.480501
H22   H     H_    0.527110 0.719967 0.112049 0.095271
O12   O     O_2   0.658266 0.644055 0.230257 -0.572081
C47   C     C_2   0.235433 0.651106 0.033536 0.329989
H23   H     H_    0.251267 0.642134 0.930069 0.056379
O13   O     O_2   0.284122 0.738646 0.118772 -0.516136
C48   C     C_2   0.764894 0.347741 0.965753 0.328559
H24   H     H_    0.748513 0.356792 0.069029 0.056026
O14   O     O_2   0.717256 0.259678 0.880596 -0.514501
N3    N     N_R   0.113161 0.698147 0.270161 0.154067
O15   O     O_R   0.167561 0.726105 0.396991 -0.389855
O16   O     O_R   0.065104 0.786478 0.208990 -0.358543
N4    N     N_R   0.886640 0.301904 0.728758 0.154168
O17   O     O_R   0.828962 0.273718 0.603174 -0.390149
O18   O     O_R   0.937009 0.213829 0.788732 -0.357668
N5    N     N_R   0.437417 0.108110 0.145666 0.104159
O19   O     O_R   0.363876 0.063811 0.214577 -0.343663
O20   O     O_R   0.387164 0.144882 0.033635 -0.458930
N6    N     N_R   0.563029 0.892043 0.854219 0.104212
O21   O     O_R   0.636301 0.936849 0.785354 -0.342865
O22   O     O_R   0.613569 0.855060 0.966042 -0.459061

loop_
_geom_bond_atom_site_label_1
_geom_bond_atom_site_label_2
_geom_bond_distance
_ccdc_geom_bond_type
C37   C39   1.409720 A    
C32   C44   1.477422 S    
C13   H5    1.081476 S    
C43   H19   1.085937 S    
H10   C34   1.082775 S    
N5    O19   1.300915 A    
C25   C27   1.415810 A    
C47   H23   1.083907 S    
O5    C3    1.316045 A    
O1    C1    1.316554 A    
C7    C9    1.409280 A    
C44   O10   1.220838 D    
C35   C40   1.394278 A    
O4    Cu1   1.985338 S    
C36   H16   1.080541 S    
N1    H18   1.023424 S    
C4    C19   1.473443 S    
C41   C46   1.470692 S    
C17   H7    1.080773 S    
C24   H12   1.076808 S    
C27   C29   1.405335 A    
C28   C30   1.405277 A    
Cu2   N1    2.062056 S    
C11   C13   1.386405 A    
C6    C8    1.409711 A    
C26   C28   1.415886 A    
Cu1   Cu2   2.744827 S    
C43   O9    1.220786 D    
O2    C2    1.316564 A    
C5    C47   1.468159 S    
N5    O20   1.300180 A    
C30   H14   1.083669 S    
C47   O13   1.219779 D    
C26   N6    1.449363 S    
C35   H15   1.080574 S    
C17   C22   1.386133 A    
C27   C40   1.464389 S    
C13   C15   1.390555 A    
C18   C21   1.386113 A    
C14   C16   1.390621 A    
C44   H20   1.085951 S    
O4    C2    1.313183 A    
C24   C34   1.399082 A    
N3    O15   1.299284 A    
C45   O11   1.216384 D    
C29   C31   1.397806 A    
C6    C48   1.468096 S    
C1    C38   1.466584 S    
C29   H13   1.083693 S    
C38   C40   1.409688 A    
C2    C37   1.466483 S    
C3    C20   1.473487 S    
O7    Cu2   1.992206 S    
N3    O16   1.299663 A    
O7    C3    1.315920 A    
O6    C4    1.316006 A    
N6    O22   1.300293 A    
N4    O17   1.299004 A    
N4    O18   1.299390 A    
C23   H11   1.076736 S    
O3    Cu2   1.985338 S    
O8    C4    1.315936 A    
C48   O14   1.219730 D    
C36   C39   1.394386 A    
C46   O12   1.216369 D    
C31   C33   1.394862 A    
C5    C15   1.400101 A    
C10   C12   1.397354 A    
C6    C16   1.400065 A    
C8    N4    1.440268 S    
O6    Cu2   1.983137 S    
C42   C45   1.470391 S    
C18   C20   1.394276 A    
C12   C14   1.386583 A    
C8    C10   1.408712 A    
O3    C1    1.313229 A    
O8    Cu1   1.992206 S    
H1    C15   1.071564 S    
H2    C16   1.071502 S    
C35   C37   1.391372 A    
C25   N5    1.449379 S    
C36   C38   1.391483 A    
C9    C11   1.397396 A    
H9    C33   1.082727 S    
C19   C21   1.412987 A    
C20   C22   1.413054 A    
C12   H4    1.077400 S    
C9    C22   1.459872 S    
N2    H17   1.023355 S    
C10   C21   1.459838 S    
C14   H6    1.081478 S    
N6    O21   1.301049 A    
C5    C7    1.410012 A    
C32   C34   1.394950 A    
C18   H8    1.080702 S    
C11   H3    1.077495 S    
C41   C42   1.561135 S    
O2    Cu2   1.980602 S    
C28   C39   1.464533 S    
C17   C19   1.394286 A    
C7    N3    1.440915 S    
C23   C33   1.399103 A    
C45   H21   1.080473 S    
C31   C43   1.477420 S    
C24   C26   1.400678 A    
O5    Cu1   1.983138 S    
O1    Cu1   1.980602 S    
C48   H24   1.083976 S    
N2    C42   1.345170 D    
C46   H22   1.080445 S    
N1    C41   1.345284 D    
C23   C25   1.400569 A    
C30   C32   1.397874 A    
Cu1   N2    2.062056 S    
