data_mof_unit_43086.cif
_audit_creation_date              2013-03-05T16:00:47-0500
_audit_creation_method            fapswitch 2.2
_symmetry_space_group_name_H-M    P1
_symmetry_Int_Tables_number       1
_space_group_crystal_system       triclinic
_cell_length_a                    21.244133
_cell_length_b                    21.249394
_cell_length_c                    13.981517
_cell_angle_alpha                 90.010668
_cell_angle_beta                  89.803752
_cell_angle_gamma                 89.977074
_cell_volume                      6311.56800534

loop_
_atom_site_label
_atom_site_type_symbol
_atom_site_description
_atom_site_fract_x
_atom_site_fract_y
_atom_site_fract_z
_atom_type_partial_charge
O1    O     O_R   0.066090 0.433930 0.580280 -0.632208
O2    O     O_R   0.933910 0.566070 0.419720 -0.632224
O3    O     O_R   0.933910 0.566070 0.580280 -0.628971
O4    O     O_R   0.066090 0.433930 0.419720 -0.628980
O5    O     O_R   0.933910 0.433930 0.419720 -0.626428
O6    O     O_R   0.066090 0.566070 0.580280 -0.626393
O7    O     O_R   0.066090 0.566070 0.419720 -0.628553
O8    O     O_R   0.933910 0.433930 0.580280 -0.628519
O9    O     O_R   0.566090 0.933930 0.580280 -0.632225
O10   O     O_R   0.433910 0.066070 0.419720 -0.632212
O11   O     O_R   0.433910 0.066070 0.580280 -0.628984
O12   O     O_R   0.566090 0.933930 0.419720 -0.628973
O13   O     O_R   0.433910 0.933930 0.419720 -0.626390
O14   O     O_R   0.566090 0.066070 0.580280 -0.626425
O15   O     O_R   0.566090 0.066070 0.419720 -0.628517
O16   O     O_R   0.433910 0.933930 0.580280 -0.628550
C1    C     C_R   0.086721 0.413174 0.499935 0.897620
C2    C     C_R   0.913280 0.586826 0.500065 0.897604
C3    C     C_R   0.913137 0.413293 0.500136 0.894363
C4    C     C_R   0.086862 0.586710 0.499863 0.894353
C5    C     C_R   0.586720 0.913174 0.499935 0.897605
C6    C     C_R   0.413280 0.086826 0.500065 0.897618
C7    C     C_R   0.413136 0.913292 0.500136 0.894356
C8    C     C_R   0.586864 0.086707 0.499864 0.894362
Zn1   Zn    Zn3+2 0.000000 0.500000 0.607200 0.943741
Zn2   Zn    Zn3+2 1.000000 0.500000 0.392800 0.943683
Zn3   Zn    Zn3+2 0.500000 0.000000 0.607200 0.943683
Zn4   Zn    Zn3+2 0.500000 0.000000 0.392800 0.943742
C9    C     C_R   0.157841 0.657278 0.412454 -0.270332
C10   C     C_R   0.841634 0.343251 0.587525 -0.270330
C11   C     C_R   0.846901 0.661489 0.413293 -0.264393
C12   C     C_R   0.153114 0.338527 0.586710 -0.264372
C13   C     C_R   0.658369 0.156746 0.412475 -0.270330
C14   C     C_R   0.342142 0.842738 0.587544 -0.270333
C15   C     C_R   0.346889 0.161476 0.413290 -0.264371
C16   C     C_R   0.653100 0.838512 0.586707 -0.264394
C17   C     C_R   0.134886 0.634540 0.499456 -0.063310
C18   C     C_R   0.865109 0.365467 0.500539 -0.063312
C19   C     C_R   0.865480 0.634835 0.499935 -0.080764
C20   C     C_R   0.134522 0.365167 0.500065 -0.080777
C21   C     C_R   0.634893 0.134530 0.499461 -0.063312
C22   C     C_R   0.365103 0.865471 0.500542 -0.063312
C23   C     C_R   0.365480 0.134835 0.499935 -0.080775
C24   C     C_R   0.634520 0.865166 0.500065 -0.080763
C25   C     C_R   0.157581 0.657358 0.586014 -0.243527
C26   C     C_R   0.842930 0.342135 0.413995 -0.243607
C27   C     C_R   0.838537 0.653811 0.586131 -0.239654
C28   C     C_R   0.161453 0.346179 0.413866 -0.239654
C29   C     C_R   0.657074 0.157861 0.586005 -0.243607
C30   C     C_R   0.342402 0.842659 0.413984 -0.243526
C31   C     C_R   0.338550 0.153825 0.586134 -0.239655
C32   C     C_R   0.661464 0.846190 0.413869 -0.239653
C33   C     C_R   0.203445 0.703402 0.586604 0.075300
C34   C     C_R   0.797059 0.296097 0.413409 0.075276
C35   C     C_R   0.792562 0.699780 0.586542 0.098090
C36   C     C_R   0.207429 0.300211 0.413455 0.098088
C37   C     C_R   0.702947 0.203897 0.586590 0.075276
C38   C     C_R   0.296529 0.796624 0.413393 0.075299
C39   C     C_R   0.292576 0.199794 0.586545 0.098089
C40   C     C_R   0.707440 0.800222 0.413457 0.098090
C41   C     C_R   0.226926 0.726822 0.499166 0.037815
C42   C     C_R   0.773060 0.273192 0.500830 0.037806
C43   C     C_R   0.773175 0.726826 0.499343 0.019394
C44   C     C_R   0.226829 0.273178 0.500657 0.019396
C45   C     C_R   0.726946 0.226802 0.499169 0.037806
C46   C     C_R   0.273047 0.773205 0.500831 0.037813
C47   C     C_R   0.273176 0.226827 0.499343 0.019396
C48   C     C_R   0.726827 0.773176 0.500657 0.019394
C49   C     C_R   0.204144 0.703713 0.410377 0.050851
C50   C     C_R   0.795325 0.296820 0.589598 0.050908
C51   C     C_R   0.800282 0.707466 0.411118 0.093138
C52   C     C_R   0.199735 0.292550 0.588885 0.093133
C53   C     C_R   0.704681 0.203175 0.410401 0.050907
C54   C     C_R   0.295830 0.796313 0.589620 0.050853
C55   C     C_R   0.300270 0.207455 0.411115 0.093131
C56   C     C_R   0.699719 0.792535 0.588882 0.093139
C57   C     C_R   0.225618 0.725913 0.674061 -0.218265
C58   C     C_R   0.775391 0.273081 0.325973 -0.218313
C59   C     C_R   0.766094 0.718746 0.673388 -0.267518
C60   C     C_R   0.233884 0.281233 0.326606 -0.267513
C61   C     C_R   0.724616 0.226912 0.674026 -0.218314
C62   C     C_R   0.274351 0.774118 0.325935 -0.218263
C63   C     C_R   0.266121 0.218773 0.673394 -0.267514
C64   C     C_R   0.733908 0.781256 0.326611 -0.267517
C65   C     C_R   0.771004 0.273634 0.677610 0.153865
C66   C     C_R   0.227954 0.727406 0.322343 0.153753
C67   C     C_R   0.219746 0.265194 0.676217 0.168141
C68   C     C_R   0.780284 0.734836 0.323789 0.168142
C69   C     C_R   0.272012 0.772627 0.677653 0.153765
C70   C     C_R   0.729002 0.226360 0.322389 0.153861
C71   C     C_R   0.719717 0.765166 0.676211 0.168142
C72   C     C_R   0.280260 0.234812 0.323784 0.168142
H1    H     H_    0.139079 0.638318 0.346740 0.158544
H2    H     H_    0.859978 0.362630 0.653219 0.158452
H3    H     H_    0.869362 0.645968 0.348046 0.176421
H4    H     H_    0.130664 0.354058 0.651960 0.176435
H5    H     H_    0.640024 0.137368 0.346781 0.158454
H6    H     H_    0.360908 0.861695 0.653258 0.158544
H7    H     H_    0.369339 0.145945 0.348040 0.176433
H8    H     H_    0.630639 0.854033 0.651954 0.176419
H9    H     H_    0.139493 0.639331 0.653311 0.158801
H10   H     H_    0.861439 0.359740 0.346716 0.158939
H11   H     H_    0.853250 0.632753 0.653124 0.156228
H12   H     H_    0.146730 0.367226 0.346871 0.156235
H13   H     H_    0.638565 0.140256 0.653284 0.158940
H14   H     H_    0.360492 0.860683 0.346688 0.158802
H15   H     H_    0.353273 0.132776 0.653130 0.156233
H16   H     H_    0.646751 0.867248 0.346876 0.156225
C73   C     C_R   0.944388 0.506281 0.798316 -0.070363
C74   C     C_R   0.055611 0.493717 0.201684 -0.070430
C75   C     C_R   0.055599 0.493571 0.797728 -0.066413
C76   C     C_R   0.944401 0.506431 0.202272 -0.066449
C77   C     C_R   0.444389 0.006293 0.798316 -0.070430
C78   C     C_R   0.555611 0.993710 0.201684 -0.070363
C79   C     C_R   0.555598 0.993560 0.797728 -0.066450
C80   C     C_R   0.444402 0.006439 0.202272 -0.066415
N1    N     N_R   1.000000 0.500000 0.750030 -0.103569
N2    N     N_R   1.000000 0.500000 0.249970 -0.103617
N3    N     N_R   0.500000 0.000000 0.750030 -0.103617
N4    N     N_R   0.500000 0.000000 0.249970 -0.103569
C81   C     C_R   0.056946 0.493349 0.898437 0.018942
C82   C     C_R   0.943053 0.506650 0.101563 0.018922
C83   C     C_R   0.943040 0.506515 0.899047 0.018061
C84   C     C_R   0.056959 0.493483 0.100953 0.018036
C85   C     C_R   0.556945 0.993340 0.898437 0.018923
C86   C     C_R   0.443055 0.006660 0.101563 0.018943
C87   C     C_R   0.443042 0.006527 0.899047 0.018037
C88   C     C_R   0.556958 0.993476 0.100953 0.018062
C89   C     C_R   0.999997 0.499968 0.949358 0.085011
C90   C     C_R   0.000002 0.500031 0.050641 0.085009
C91   C     C_R   0.499997 0.999969 0.949359 0.085008
C92   C     C_R   0.500003 0.000032 0.050642 0.085011
C93   C     C_R   0.113566 0.486757 0.949160 -0.213675
C94   C     C_R   0.886433 0.513241 0.050840 -0.213648
C95   C     C_R   0.886424 0.513140 0.950386 -0.213089
C96   C     C_R   0.113575 0.486856 0.049613 -0.213062
C97   C     C_R   0.613564 0.986739 0.949160 -0.213647
C98   C     C_R   0.386436 0.013262 0.050840 -0.213676
C99   C     C_R   0.386427 0.013163 0.950387 -0.213062
C100  C     C_R   0.613574 0.986840 0.049614 -0.213089
H17   H     H_    0.901178 0.511114 0.758128 0.129200
H18   H     H_    0.098821 0.488882 0.241871 0.129331
H19   H     H_    0.098807 0.488644 0.757101 0.132543
H20   H     H_    0.901193 0.511358 0.242899 0.132658
H21   H     H_    0.401180 0.011135 0.758129 0.129331
H22   H     H_    0.598820 0.988870 0.241871 0.129200
H23   H     H_    0.598805 0.988625 0.757101 0.132659
H24   H     H_    0.401195 0.011372 0.242899 0.132544
H25   H     H_    0.157801 0.481558 0.911176 0.141610
H26   H     H_    0.842198 0.518441 0.088823 0.141651
H27   H     H_    0.842177 0.518260 0.912884 0.138221
H28   H     H_    0.157822 0.481735 0.087116 0.138251
H29   H     H_    0.657799 0.981532 0.911176 0.141651
H30   H     H_    0.342202 0.018469 0.088824 0.141610
H31   H     H_    0.342181 0.018292 0.912884 0.138251
H32   H     H_    0.657820 0.981713 0.087116 0.138220
H33   H     H_    0.206035 0.706368 0.739073 0.160558
H34   H     H_    0.795358 0.292243 0.260978 0.160599
H35   H     H_    0.782052 0.697433 0.739523 0.143187
H36   H     H_    0.217917 0.302536 0.260470 0.143188
H37   H     H_    0.704649 0.207751 0.739021 0.160599
H38   H     H_    0.293933 0.793663 0.260923 0.160559
H39   H     H_    0.282089 0.197470 0.739530 0.143186
H40   H     H_    0.717950 0.802569 0.260477 0.143186
C101  C     C_3   0.794905 0.299055 0.773221 -0.397595
C102  C     C_3   0.765477 0.270808 0.863639 -0.895552
H41   H     H_    0.714001 0.279922 0.865621 0.260243
H42   H     H_    0.774853 0.219438 0.867377 0.259633
H43   H     H_    0.786761 0.293168 0.927636 0.257088
H44   H     H_    0.846499 0.290803 0.777242 0.208265
H45   H     H_    0.786351 0.350646 0.775549 0.204206
C103  C     C_3   0.203526 0.702520 0.226702 -0.397346
C104  C     C_3   0.232482 0.731233 0.136264 -0.895611
H46   H     H_    0.223100 0.782624 0.133255 0.259597
H47   H     H_    0.283947 0.722117 0.133530 0.260211
H48   H     H_    0.210857 0.709218 0.072244 0.257129
H49   H     H_    0.212040 0.650937 0.223612 0.204326
H50   H     H_    0.151912 0.710817 0.223421 0.208135
C105  C     C_3   0.193225 0.283764 0.773211 -0.410468
C106  C     C_3   0.220870 0.346084 0.807819 -0.872117
H51   H     H_    0.272737 0.341823 0.815326 0.263856
H52   H     H_    0.210298 0.384933 0.757372 0.254536
H53   H     H_    0.200446 0.358196 0.878688 0.247679
H54   H     H_    0.141049 0.286127 0.771155 0.198376
H55   H     H_    0.204451 0.247305 0.827614 0.203140
C107  C     C_3   0.806820 0.716281 0.226798 -0.410506
C108  C     C_3   0.779180 0.653966 0.192158 -0.872050
H56   H     H_    0.789744 0.615110 0.242596 0.254550
H57   H     H_    0.727315 0.658229 0.184633 0.263858
H58   H     H_    0.799616 0.641865 0.121293 0.247678
H59   H     H_    0.795602 0.752748 0.172404 0.203142
H60   H     H_    0.858996 0.713917 0.228872 0.198347
C109  C     C_3   0.296431 0.797523 0.773292 -0.397363
C110  C     C_3   0.267451 0.768834 0.863728 -0.895642
H61   H     H_    0.215986 0.777953 0.866425 0.260223
H62   H     H_    0.276828 0.717443 0.866770 0.259598
H63   H     H_    0.289062 0.790863 0.927745 0.257138
H64   H     H_    0.348043 0.789216 0.776597 0.208136
H65   H     H_    0.287928 0.849109 0.776359 0.204333
C111  C     C_3   0.705102 0.200939 0.226777 -0.397589
C112  C     C_3   0.734533 0.229182 0.136359 -0.895544
H66   H     H_    0.725160 0.280551 0.132615 0.259629
H67   H     H_    0.786009 0.220066 0.134381 0.260243
H68   H     H_    0.713251 0.206820 0.072360 0.257086
H69   H     H_    0.713653 0.149347 0.224451 0.204207
H70   H     H_    0.653508 0.209193 0.222753 0.208263
C113  C     C_3   0.693182 0.783721 0.773202 -0.410503
C114  C     C_3   0.720821 0.846036 0.807842 -0.872056
H71   H     H_    0.772687 0.841774 0.815365 0.263860
H72   H     H_    0.710257 0.884892 0.757404 0.254549
H73   H     H_    0.700386 0.858137 0.878707 0.247676
H74   H     H_    0.641006 0.786084 0.771128 0.198346
H75   H     H_    0.704400 0.747254 0.827596 0.203142
C115  C     C_3   0.306782 0.216244 0.226789 -0.410465
C116  C     C_3   0.279136 0.153926 0.192176 -0.872122
H76   H     H_    0.289706 0.115075 0.242621 0.254534
H77   H     H_    0.227270 0.158189 0.184667 0.263857
H78   H     H_    0.299561 0.141816 0.121307 0.247678
H79   H     H_    0.295559 0.252705 0.172388 0.203139
H80   H     H_    0.358959 0.213879 0.228849 0.198375

loop_
_geom_bond_atom_site_label_1
_geom_bond_atom_site_label_2
_geom_bond_distance
_ccdc_geom_bond_type
C103  H49   1.111680 S    
C101  H45   1.111623 S    
C110  H62   1.110813 S    
C101  C102  1.531153 S    
O8    Zn1   2.022134 S    
O10   Zn4   2.019560 S    
O5    Zn2   2.020440 S    
O2    C2    1.282500 A    
C112  H66   1.110787 S    
C63   C67   1.394335 A    
C14   C22   1.395451 A    
C2    C19   1.439125 S    
C23   C31   1.391947 A    
C74   N2    1.365185 A    
C29   C37   1.381141 A    
C12   C52   1.391313 A    
C104  H46   1.110824 S    
O10   C6    1.282500 A    
C26   H10   1.084950 S    
O13   C7    1.283814 A    
C111  H69   1.111627 S    
C7    C22   1.440375 S    
O12   Zn4   2.021449 S    
C66   C103  1.530290 S    
C54   C69   1.421422 A    
C27   C35   1.381058 A    
C39   C63   1.395680 A    
C53   C70   1.421273 A    
C105  H54   1.110037 S    
C115  H79   1.112187 S    
C38   C62   1.396360 A    
C59   H35   1.084985 S    
C108  H57   1.110866 S    
C95   H27   1.083367 S    
C60   H36   1.084989 S    
C110  H63   1.110801 S    
C70   C111  1.530101 S    
O14   C8    1.283800 A    
C109  H64   1.111608 S    
C28   H12   1.085050 S    
C77   C87   1.408573 A    
C79   H23   1.082823 S    
C113  H75   1.112184 S    
C45   C53   1.421313 A    
C42   C50   1.421309 A    
O3    C2    1.283676 A    
C20   C28   1.391947 A    
C77   H21   1.082763 S    
C107  H59   1.112185 S    
C74   H18   1.082763 S    
C82   C94   1.405396 A    
C108  H58   1.110478 S    
C32   C40   1.381057 A    
C39   C47   1.410622 A    
C77   N3    1.365188 A    
C33   C41   1.409712 A    
C41   C46   1.390301 A    
C38   C46   1.409709 A    
C111  C112  1.531158 S    
C35   C43   1.410618 A    
C93   C96   1.404493 A    
C36   C44   1.410619 A    
O13   Zn4   2.020440 S    
C72   C115  1.518753 S    
C86   C92   1.408651 A    
O14   Zn3   2.020437 S    
C15   C23   1.395486 A    
C59   C71   1.394338 A    
C64   H40   1.084985 S    
C106  H53   1.110479 S    
C75   H19   1.082824 S    
C74   C84   1.408571 A    
C98   H30   1.083436 S    
O16   Zn3   2.022134 S    
C68   C107  1.518748 S    
C110  H61   1.110795 S    
C25   C33   1.381121 A    
C80   C86   1.408452 A    
C83   C89   1.408541 A    
C102  H42   1.110785 S    
C8    C21   1.440354 S    
C112  H67   1.110758 S    
C87   C99   1.405568 A    
C31   H15   1.085051 S    
C15   H7    1.079555 S    
C88   C92   1.408539 A    
C21   C29   1.391333 A    
C10   C50   1.393822 A    
C106  H52   1.109304 S    
O11   Zn3   2.021449 S    
C9    C49   1.393774 A    
C104  H47   1.110801 S    
C100  H32   1.083366 S    
C97   C100  1.404494 A    
O8    C3    1.282978 A    
C27   H11   1.085048 S    
C78   C88   1.408571 A    
C84   C96   1.405569 A    
C73   N1    1.365188 A    
C113  C114  1.528091 S    
C30   C38   1.381121 A    
C44   C47   1.392473 A    
C64   C68   1.394338 A    
O3    Zn1   2.021449 S    
C93   H25   1.083436 S    
C78   H22   1.082765 S    
O2    Zn2   2.019560 S    
Zn4   N4    1.996981 S    
C116  H78   1.110480 S    
C37   C45   1.409588 A    
C80   H24   1.082825 S    
C115  C116  1.528094 S    
C114  H71   1.110865 S    
C29   H13   1.084952 S    
C62   H38   1.081430 S    
C85   C97   1.405396 A    
C109  H65   1.111674 S    
O12   C5    1.283677 A    
C58   C70   1.400164 A    
C80   N4    1.365230 A    
C83   C95   1.405567 A    
C1    C20   1.439126 S    
C60   C72   1.394335 A    
C33   C57   1.396350 A    
C116  H76   1.109305 S    
C76   C82   1.408456 A    
C3    C18   1.440354 S    
C76   N2    1.365232 A    
C5    C24   1.439125 S    
C35   C59   1.395678 A    
C85   C91   1.408650 A    
C71   C113  1.518748 S    
C6    C23   1.439126 S    
C99   H31   1.083366 S    
C69   C109  1.530277 S    
C26   C34   1.381141 A    
C97   H29   1.083436 S    
C16   H8    1.079553 S    
C78   N4    1.365188 A    
C115  H80   1.110036 S    
O7    Zn2   2.022130 S    
C40   C48   1.410619 A    
C25   H9    1.085121 S    
C75   C81   1.408454 A    
C22   C30   1.391446 A    
C105  H55   1.112184 S    
O4    C1    1.283677 A    
C55   C72   1.418860 A    
C13   C53   1.393821 A    
O15   C8    1.282979 A    
C12   H4    1.079554 S    
C43   C51   1.420273 A    
C109  C110  1.531255 S    
O16   C7    1.282981 A    
C79   N3    1.365230 A    
C12   C20   1.395484 A    
C102  H41   1.110756 S    
C112  H68   1.110696 S    
C37   C61   1.396202 A    
C15   C55   1.391312 A    
C31   C39   1.381057 A    
C17   C25   1.391438 A    
C91   C92   1.416091 A    
C52   C67   1.418859 A    
O6    C4    1.283819 A    
C103  C104  1.531273 S    
O9    Zn3   2.019560 S    
C19   C27   1.391945 A    
C89   C90   1.416091 A    
C104  H48   1.110822 S    
C41   C49   1.421459 A    
C101  H44   1.111563 S    
C28   C36   1.381057 A    
C63   H39   1.084990 S    
C43   C48   1.392473 A    
C86   C98   1.405396 A    
C111  H70   1.111565 S    
C42   C45   1.390305 A    
C73   H17   1.082765 S    
C57   C69   1.400146 A    
C61   H37   1.081261 S    
C58   H34   1.081263 S    
C103  H50   1.111611 S    
C73   C83   1.408571 A    
Zn2   N2    1.996981 S    
C81   C89   1.408651 A    
Zn1   N1    1.996980 S    
C24   C32   1.391945 A    
O4    Zn2   2.021449 S    
O1    Zn1   2.019560 S    
C94   C95   1.404494 A    
O5    C3    1.283799 A    
Zn3   N3    1.996980 S    
C105  C106  1.528093 S    
C48   C56   1.420274 A    
C34   C42   1.409588 A    
O11   C6    1.283677 A    
O1    C1    1.282500 A    
C36   C60   1.395683 A    
C75   N1    1.365227 A    
C65   C101  1.530096 S    
C76   H20   1.082822 S    
C116  H77   1.110866 S    
C88   C100  1.405569 A    
C13   C21   1.395334 A    
C108  H56   1.109305 S    
C10   H2    1.080518 S    
C62   C66   1.400146 A    
C84   C90   1.408540 A    
C9    H1    1.080667 S    
C4    C17   1.440375 S    
C40   C64   1.395679 A    
O9    C5    1.282500 A    
O15   Zn4   2.022130 S    
C113  H74   1.110038 S    
C46   C54   1.421458 A    
C114  H73   1.110478 S    
C11   H3    1.079553 S    
C79   C85   1.408455 A    
C11   C51   1.391314 A    
C14   H6    1.080675 S    
C11   C19   1.395484 A    
C13   H5    1.080516 S    
C44   C52   1.420274 A    
C107  H60   1.110036 S    
C87   C91   1.408539 A    
C18   C26   1.391336 A    
C16   C24   1.395481 A    
C98   C99   1.404493 A    
C49   C66   1.421436 A    
C56   C71   1.418856 A    
C67   C105  1.518750 S    
C51   C68   1.418857 A    
O6    Zn1   2.020437 S    
C16   C56   1.391314 A    
C47   C55   1.420275 A    
C32   H16   1.085049 S    
C102  H43   1.110691 S    
C114  H72   1.109306 S    
O7    C4    1.282978 A    
C9    C17   1.395459 A    
C30   H14   1.085116 S    
C14   C54   1.393776 A    
C10   C18   1.395331 A    
C81   C93   1.405396 A    
C107  C108  1.528093 S    
C96   H28   1.083366 S    
C50   C65   1.421268 A    
C82   C90   1.408651 A    
C61   C65   1.400165 A    
C106  H51   1.110866 S    
C57   H33   1.081428 S    
C34   C58   1.396206 A    
C94   H26   1.083436 S    
