data_mof_unit_66117.cif
_audit_creation_date              2013-03-05T16:00:39-0500
_audit_creation_method            fapswitch 2.2
_symmetry_space_group_name_H-M    P1
_symmetry_Int_Tables_number       1
_space_group_crystal_system       triclinic
_cell_length_a                    29.405759
_cell_length_b                    29.405635
_cell_length_c                    47.34229
_cell_angle_alpha                 90.000132
_cell_angle_beta                  90.000035
_cell_angle_gamma                 89.999965
_cell_volume                      40936.6422114

loop_
_atom_site_label
_atom_site_type_symbol
_atom_site_description
_atom_site_fract_x
_atom_site_fract_y
_atom_site_fract_z
_atom_type_partial_charge
O1    O     O_R   0.061940 0.535840 0.000010 -0.553592
O2    O     O_R   0.464160 0.061940 0.000010 -0.553617
O3    O     O_R   0.938060 0.464160 0.000010 -0.553591
O4    O     O_R   0.535840 0.938060 0.000010 -0.553617
O5    O     O_R   0.061940 0.464160 0.999990 -0.553588
O6    O     O_R   0.464160 0.938060 0.999990 -0.553633
O7    O     O_R   0.938060 0.535840 0.999990 -0.553588
O8    O     O_R   0.535840 0.061940 0.999990 -0.553634
O9    O     O_R   0.561940 0.035840 0.500010 -0.553534
O10   O     O_R   0.964160 0.561940 0.500010 -0.553605
O11   O     O_R   0.438060 0.964160 0.500010 -0.553534
O12   O     O_R   0.035840 0.438060 0.500010 -0.553604
O13   O     O_R   0.561940 0.964160 0.499990 -0.553564
O14   O     O_R   0.964160 0.438060 0.499990 -0.553601
O15   O     O_R   0.438060 0.035840 0.499990 -0.553561
O16   O     O_R   0.035840 0.561940 0.499990 -0.553600
O17   O     O_R   0.499970 0.438000 0.023810 -0.549862
O18   O     O_R   0.562000 0.499970 0.023810 -0.549860
O19   O     O_R   0.500030 0.562000 0.023810 -0.549864
O20   O     O_R   0.438000 0.500030 0.023810 -0.549859
O21   O     O_R   0.499970 0.562000 0.976190 -0.549832
O22   O     O_R   0.562000 0.500030 0.976190 -0.549833
O23   O     O_R   0.500030 0.438000 0.976190 -0.549832
O24   O     O_R   0.438000 0.499970 0.976190 -0.549832
O25   O     O_R   0.999970 0.938000 0.523810 -0.549848
O26   O     O_R   0.062000 0.999970 0.523810 -0.549850
O27   O     O_R   0.000030 0.062000 0.523810 -0.549850
O28   O     O_R   0.938000 0.000030 0.523810 -0.549849
O29   O     O_R   0.999970 0.062000 0.476190 -0.549825
O30   O     O_R   0.062000 0.000030 0.476190 -0.549822
O31   O     O_R   0.000030 0.938000 0.476190 -0.549825
O32   O     O_R   0.938000 0.999970 0.476190 -0.549821
C1    C     C_R   0.085520 0.500000 0.000000 0.859961
C2    C     C_R   0.500000 0.085520 0.999999 0.860329
C3    C     C_R   0.914480 0.500000 0.000000 0.859970
C4    C     C_R   0.500000 0.914480 0.999999 0.860338
C5    C     C_R   0.585520 1.000000 0.499999 0.859519
C6    C     C_R   1.000000 0.585520 0.500000 0.860088
C7    C     C_R   0.414480 0.000000 0.499999 0.859536
C8    C     C_R   0.000000 0.414480 0.500000 0.860089
O33   O     O_R   0.999950 0.535840 0.041070 -0.547618
O34   O     O_R   0.464160 0.999950 0.041070 -0.547825
O35   O     O_R   0.000050 0.464160 0.041070 -0.547628
O36   O     O_R   0.535840 0.000050 0.041070 -0.547826
O37   O     O_R   0.999950 0.464160 0.958930 -0.547662
O38   O     O_R   0.464160 0.000050 0.958930 -0.547671
O39   O     O_R   0.000050 0.535840 0.958930 -0.547660
O40   O     O_R   0.535840 0.999950 0.958930 -0.547664
O41   O     O_R   0.499950 0.035840 0.541070 -0.547639
O42   O     O_R   0.964160 0.499950 0.541070 -0.547669
O43   O     O_R   0.500050 0.964160 0.541070 -0.547638
O44   O     O_R   0.035840 0.500050 0.541070 -0.547670
O45   O     O_R   0.499950 0.964160 0.458930 -0.547388
O46   O     O_R   0.964160 0.500050 0.458930 -0.547687
O47   O     O_R   0.500050 0.035840 0.458930 -0.547400
O48   O     O_R   0.035840 0.499950 0.458930 -0.547685
C9    C     C_R   0.999999 0.500000 0.055060 0.936508
C10   C     C_R   0.500000 1.000000 0.055058 0.937298
C11   C     C_R   1.000000 0.500000 0.944940 0.936681
C12   C     C_R   0.500000 0.999999 0.944940 0.936549
C13   C     C_R   0.500000 0.000000 0.555060 0.936769
C14   C     C_R   0.000000 0.500000 0.555060 0.936670
C15   C     C_R   0.499999 1.000000 0.444937 0.935619
C16   C     C_R   1.000000 0.500000 0.444940 0.936743
Cu1   Cu    Cu3+1 0.000000 0.542440 0.000000 1.142351
Cu2   Cu    Cu3+1 0.457560 0.000000 0.000000 1.142213
Cu3   Cu    Cu3+1 0.000000 0.457560 0.000000 1.142342
Cu4   Cu    Cu3+1 0.542440 0.000000 0.000000 1.142219
Cu5   Cu    Cu3+1 0.500000 0.042440 0.500000 1.142489
Cu6   Cu    Cu3+1 0.957560 0.500000 0.500000 1.142287
Cu7   Cu    Cu3+1 0.500000 0.957560 0.500000 1.142500
Cu8   Cu    Cu3+1 0.042440 0.500000 0.500000 1.142288
C17   C     C_R   0.500000 0.415316 1.000000 0.793530
C18   C     C_R   0.584684 0.500000 0.000000 0.793528
C19   C     C_R   0.500000 0.584684 0.000000 0.793530
C20   C     C_R   0.415316 0.500000 0.000000 0.793528
C21   C     C_R   0.000000 0.915316 0.500000 0.793516
C22   C     C_R   0.084684 0.000000 0.500000 0.793513
C23   C     C_R   0.000000 0.084683 0.500000 0.793517
C24   C     C_R   0.915316 0.000000 0.500000 0.793512
C25   C     C_R   0.027904 0.470596 0.309836 0.596911
C26   C     C_R   0.529768 0.027513 0.309825 0.596888
C27   C     C_R   0.972095 0.529407 0.309836 0.596910
C28   C     C_R   0.470224 0.972484 0.309825 0.596876
C29   C     C_R   0.027868 0.529440 0.690165 0.596907
C30   C     C_R   0.529418 0.972109 0.690164 0.596908
C31   C     C_R   0.972132 0.470559 0.690165 0.596905
C32   C     C_R   0.470583 0.027892 0.690164 0.596908
C33   C     C_R   0.527843 0.970534 0.809834 0.596901
C34   C     C_R   0.029441 0.527868 0.809835 0.596905
C35   C     C_R   0.472160 0.029465 0.809834 0.596909
C36   C     C_R   0.970560 0.472132 0.809835 0.596906
C37   C     C_R   0.528193 0.029126 0.190157 0.596950
C38   C     C_R   0.029478 0.472176 0.190166 0.596909
C39   C     C_R   0.471804 0.970872 0.190156 0.596948
C40   C     C_R   0.970518 0.527828 0.190167 0.596900
N1    N     N_R   1.000000 0.500001 0.323816 -0.467168
N2    N     N_R   0.499996 0.999999 0.323804 -0.467158
N3    N     N_R   1.000000 0.499999 0.676185 -0.467165
N4    N     N_R   0.500001 0.000001 0.676184 -0.467168
N5    N     N_R   0.500001 0.999999 0.823814 -0.467164
N6    N     N_R   0.000000 0.500000 0.823815 -0.467166
N7    N     N_R   0.499999 0.999999 0.176176 -0.467177
N8    N     N_R   0.999998 0.500002 0.176186 -0.467164
C41   C     C_R   0.970374 0.529444 0.279994 -0.156686
C42   C     C_R   0.470147 0.970783 0.279982 -0.156703
C43   C     C_R   0.029625 0.470560 0.279994 -0.156686
C44   C     C_R   0.529846 0.029215 0.279983 -0.156703
C45   C     C_R   0.970415 0.470517 0.720007 -0.156688
C46   C     C_R   0.470545 0.029611 0.720007 -0.156686
C47   C     C_R   0.029585 0.529482 0.720007 -0.156687
C48   C     C_R   0.529457 0.970389 0.720006 -0.156686
C49   C     C_R   0.470443 0.029509 0.779992 -0.156690
C50   C     C_R   0.970518 0.470414 0.779993 -0.156688
C51   C     C_R   0.529560 0.970491 0.779992 -0.156688
C52   C     C_R   0.029482 0.529585 0.779993 -0.156688
C53   C     C_R   0.470057 0.970879 0.219997 -0.156668
C54   C     C_R   0.970474 0.529545 0.220009 -0.156690
C55   C     C_R   0.529938 0.029119 0.219998 -0.156669
C56   C     C_R   0.029523 0.470459 0.220008 -0.156690
C57   C     C_R   0.999999 0.500002 0.264994 -0.076320
C58   C     C_R   0.499997 0.999999 0.264983 -0.076307
C59   C     C_R   0.000000 0.499999 0.735007 -0.076319
C60   C     C_R   0.500001 0.000000 0.735007 -0.076319
C61   C     C_R   0.500001 0.000000 0.764992 -0.076318
C62   C     C_R   0.000000 0.500000 0.764993 -0.076319
C63   C     C_R   0.499997 0.999999 0.234998 -0.076334
C64   C     C_R   0.999999 0.500002 0.235009 -0.076318
C65   C     C_R   0.940708 0.558493 0.264812 0.248419
C66   C     C_R   0.440671 0.941542 0.264799 0.248435
C67   C     C_R   0.059291 0.441511 0.264811 0.248420
C68   C     C_R   0.559322 0.058457 0.264800 0.248436
C69   C     C_R   0.940791 0.441425 0.735190 0.248420
C70   C     C_R   0.441480 0.059263 0.735189 0.248418
C71   C     C_R   0.059209 0.558574 0.735190 0.248419
C72   C     C_R   0.558522 0.940738 0.735188 0.248416
C73   C     C_R   0.440846 0.058629 0.764810 0.248421
C74   C     C_R   0.941426 0.440790 0.764810 0.248420
C75   C     C_R   0.559156 0.941370 0.764809 0.248420
C76   C     C_R   0.058575 0.559209 0.764810 0.248420
C77   C     C_R   0.440052 0.942178 0.235178 0.248391
C78   C     C_R   0.941339 0.559127 0.235191 0.248419
C79   C     C_R   0.559943 0.057820 0.235179 0.248393
C80   C     C_R   0.058659 0.440877 0.235191 0.248418
O49   O     O_2   0.053427 0.441399 0.325039 -0.441194
O50   O     O_2   0.559280 0.052668 0.325030 -0.441216
O51   O     O_2   0.946572 0.558604 0.325039 -0.441195
O52   O     O_2   0.440712 0.947329 0.325029 -0.441212
O53   O     O_2   0.053357 0.558666 0.674962 -0.441198
O54   O     O_2   0.558626 0.946598 0.674961 -0.441194
O55   O     O_2   0.946643 0.441333 0.674962 -0.441198
O56   O     O_2   0.441375 0.053403 0.674962 -0.441194
O57   O     O_2   0.553307 0.941286 0.825037 -0.441198
O58   O     O_2   0.058667 0.553356 0.825038 -0.441196
O59   O     O_2   0.446696 0.058713 0.825038 -0.441202
O60   O     O_2   0.941334 0.446643 0.825038 -0.441197
O61   O     O_2   0.553976 0.058098 0.174956 -0.441185
O62   O     O_2   0.058741 0.446729 0.174963 -0.441203
O63   O     O_2   0.446022 0.941900 0.174955 -0.441184
O64   O     O_2   0.941256 0.553276 0.174964 -0.441200
Cu9   Cu    Cu3+1 0.500000 0.500000 0.028170 1.032987
Cu10  Cu    Cu3+1 0.500000 0.500000 0.971830 1.033099
Cu11  Cu    Cu3+1 0.000000 0.000000 0.528170 1.033085
Cu12  Cu    Cu3+1 1.000000 0.000000 0.471830 1.033188
C81   C     C_R   0.973329 0.467932 0.130952 0.045324
C82   C     C_R   0.531872 0.973094 0.130941 0.045399
C83   C     C_R   0.026666 0.532072 0.130952 0.045328
C84   C     C_R   0.468127 0.026905 0.130941 0.045398
C85   C     C_R   0.973289 0.532034 0.869050 0.045341
C86   C     C_R   0.532056 0.026686 0.869049 0.045330
C87   C     C_R   0.026712 0.467965 0.869050 0.045340
C88   C     C_R   0.467946 0.973311 0.869049 0.045327
C89   C     C_R   0.473274 0.967978 0.630950 0.045350
C90   C     C_R   0.032034 0.473287 0.630950 0.045339
C91   C     C_R   0.526726 0.032023 0.630949 0.045351
C92   C     C_R   0.967966 0.526711 0.630950 0.045340
C93   C     C_R   0.473577 0.032274 0.369038 0.045253
C94   C     C_R   0.032017 0.526734 0.369051 0.045348
C95   C     C_R   0.526413 0.967722 0.369038 0.045258
C96   C     C_R   0.967983 0.473267 0.369051 0.045348
C97   C     C_R   0.973431 0.467976 0.101176 0.268700
C98   C     C_R   0.531845 0.973217 0.101165 0.268638
C99   C     C_R   0.026564 0.532026 0.101176 0.268701
C100  C     C_R   0.468155 0.026782 0.101165 0.268640
C101  C     C_R   0.973392 0.531990 0.898826 0.268688
C102  C     C_R   0.532010 0.026583 0.898825 0.268699
C103  C     C_R   0.026609 0.468010 0.898826 0.268689
C104  C     C_R   0.467991 0.973413 0.898825 0.268698
C105  C     C_R   0.473379 0.968021 0.601173 0.268680
C106  C     C_R   0.031990 0.473391 0.601174 0.268690
C107  C     C_R   0.526621 0.031980 0.601173 0.268681
C108  C     C_R   0.968010 0.526608 0.601174 0.268689
C109  C     C_R   0.473666 0.032218 0.398814 0.268765
C110  C     C_R   0.031974 0.526628 0.398827 0.268685
C111  C     C_R   0.526326 0.967779 0.398813 0.268767
C112  C     C_R   0.968026 0.473373 0.398827 0.268684
C113  C     C_R   0.999998 0.500001 0.086272 -0.324167
C114  C     C_R   0.500000 1.000000 0.086265 -0.324056
C115  C     C_R   0.000000 0.500000 0.913729 -0.324148
C116  C     C_R   0.500000 0.999999 0.913728 -0.324139
C117  C     C_R   0.500000 0.000000 0.586271 -0.324165
C118  C     C_R   0.000000 0.500000 0.586271 -0.324142
C119  C     C_R   0.499997 0.999999 0.413721 -0.324305
C120  C     C_R   1.000000 0.500000 0.413729 -0.324136
C121  C     C_R   0.999998 0.500002 0.145773 0.260843
C122  C     C_R   0.499999 0.999999 0.145763 0.260714
C123  C     C_R   0.000000 0.500000 0.854228 0.260829
C124  C     C_R   0.500001 0.999999 0.854227 0.260837
C125  C     C_R   0.500000 0.000001 0.645771 0.260823
C126  C     C_R   1.000000 0.499999 0.645772 0.260829
C127  C     C_R   0.499995 0.999998 0.354217 0.260935
C128  C     C_R   1.000000 0.500001 0.354229 0.260815
C129  C     C_1   0.136627 0.500000 0.000000 -0.098734
C130  C     C_1   0.500000 0.136627 0.999999 -0.098466
C131  C     C_1   0.863373 0.500000 0.000000 -0.098728
C132  C     C_1   0.500000 0.863373 1.000000 -0.098462
C133  C     C_1   0.636627 1.000000 0.499999 -0.099053
C134  C     C_1   1.000000 0.636627 0.500000 -0.098643
C135  C     C_1   0.363373 0.000000 0.499999 -0.099043
C136  C     C_1   0.000000 0.363373 0.500000 -0.098643
C137  C     C_1   0.178995 0.500000 0.000000 0.057358
C138  C     C_1   0.500000 0.178995 1.000000 0.057394
C139  C     C_1   0.821005 0.500000 0.000000 0.057358
C140  C     C_1   0.500000 0.821005 1.000000 0.057394
C141  C     C_1   0.678995 1.000000 0.500000 0.057310
C142  C     C_1   1.000000 0.678995 0.500000 0.057375
C143  C     C_1   0.321005 0.000000 0.500000 0.057311
C144  C     C_1   0.000000 0.321005 0.500000 0.057375
C145  C     C_1   0.229225 0.500000 0.000000 0.050692
C146  C     C_1   0.500000 0.229225 1.000000 0.050689
C147  C     C_1   0.770775 0.500000 0.000000 0.050692
C148  C     C_1   0.500000 0.770775 1.000000 0.050689
C149  C     C_1   0.729225 1.000000 0.500000 0.050695
C150  C     C_1   1.000000 0.729225 0.500000 0.050703
C151  C     C_1   0.270774 0.000000 0.500000 0.050696
C152  C     C_1   0.000000 0.270775 0.500000 0.050703
C153  C     C_1   0.271595 0.500000 1.000000 0.045396
C154  C     C_1   0.500000 0.271595 1.000000 0.045392
C155  C     C_1   0.728404 0.500000 0.000000 0.045396
C156  C     C_1   0.500000 0.728404 0.000000 0.045393
C157  C     C_1   0.771596 1.000000 0.500000 0.045408
C158  C     C_1   1.000000 0.771595 0.500000 0.045411
C159  C     C_1   0.228404 0.000000 0.500000 0.045408
C160  C     C_1   0.000000 0.228404 0.500000 0.045411
C161  C     C_1   0.321828 0.500000 1.000000 0.037663
C162  C     C_1   0.500000 0.321828 1.000000 0.037653
C163  C     C_1   0.678172 0.500000 0.000000 0.037663
C164  C     C_1   0.500000 0.678172 0.000000 0.037653
C165  C     C_1   0.821828 1.000000 0.500000 0.037688
C166  C     C_1   1.000000 0.821828 0.500000 0.037680
C167  C     C_1   0.178172 0.000000 0.500000 0.037688
C168  C     C_1   0.000000 0.178172 0.500000 0.037680
C169  C     C_1   0.364199 0.500000 1.000000 -0.155244
C170  C     C_1   0.500000 0.364199 1.000000 -0.155250
C171  C     C_1   0.635801 0.500000 0.000000 -0.155243
C172  C     C_1   0.500000 0.635801 0.000000 -0.155249
C173  C     C_1   0.864199 1.000000 0.500000 -0.155211
C174  C     C_1   1.000000 0.864199 0.500000 -0.155216
C175  C     C_1   0.135801 0.000000 0.500000 -0.155211
C176  C     C_1   0.000000 0.135801 0.500000 -0.155216
N9    N     N_R   0.909142 0.587647 0.279122 0.194014
O65   O     O_R   0.914436 0.631543 0.278210 -0.242070
O66   O     O_R   0.871914 0.570714 0.289607 -0.245463
N10   N     N_R   0.411025 0.910438 0.279108 0.194029
O67   O     O_R   0.367221 0.916463 0.278230 -0.242258
O68   O     O_R   0.427357 0.872913 0.289552 -0.245289
N11   N     N_R   0.090857 0.412358 0.279121 0.194013
O69   O     O_R   0.085564 0.368461 0.278208 -0.242070
O70   O     O_R   0.128085 0.429291 0.289606 -0.245463
N12   N     N_R   0.588967 0.089560 0.279110 0.194028
O71   O     O_R   0.632771 0.083538 0.278232 -0.242257
O72   O     O_R   0.572634 0.127085 0.289554 -0.245292
N13   N     N_R   0.909270 0.412223 0.720880 0.194013
O73   O     O_R   0.914636 0.368335 0.721787 -0.242116
O74   O     O_R   0.872011 0.429098 0.710401 -0.245412
N14   N     N_R   0.412311 0.090814 0.720880 0.194014
O75   O     O_R   0.368417 0.085495 0.721790 -0.242100
O76   O     O_R   0.429223 0.128052 0.710396 -0.245425
N15   N     N_R   0.090731 0.587776 0.720880 0.194014
O77   O     O_R   0.085364 0.631664 0.721787 -0.242115
O78   O     O_R   0.127989 0.570901 0.710401 -0.245412
N16   N     N_R   0.587692 0.909187 0.720879 0.194014
O79   O     O_R   0.631585 0.914506 0.721789 -0.242100
O80   O     O_R   0.570779 0.871949 0.710395 -0.245425
N17   N     N_R   0.409354 0.087862 0.779119 0.194015
O81   O     O_R   0.414767 0.131745 0.778214 -0.242122
O82   O     O_R   0.372077 0.071026 0.789597 -0.245409
N18   N     N_R   0.912224 0.409269 0.779120 0.194013
O83   O     O_R   0.868336 0.414636 0.778213 -0.242112
O84   O     O_R   0.929098 0.372010 0.789599 -0.245415
N19   N     N_R   0.590648 0.912137 0.779118 0.194015
O85   O     O_R   0.585236 0.868255 0.778212 -0.242121
O86   O     O_R   0.627925 0.928974 0.789596 -0.245408
N20   N     N_R   0.087776 0.590730 0.779120 0.194014
O87   O     O_R   0.131664 0.585363 0.778213 -0.242112
O88   O     O_R   0.070902 0.627989 0.789599 -0.245414
N21   N     N_R   0.408121 0.913426 0.220867 0.194002
O89   O     O_R   0.412802 0.869462 0.221826 -0.241916
O90   O     O_R   0.371159 0.930847 0.210325 -0.245620
N22   N     N_R   0.912090 0.590604 0.220882 0.194015
O91   O     O_R   0.868210 0.585170 0.221789 -0.242148
O92   O     O_R   0.928907 0.627889 0.210403 -0.245382
N23   N     N_R   0.591874 0.086573 0.220869 0.194003
O93   O     O_R   0.587190 0.130537 0.221827 -0.241918
O94   O     O_R   0.628836 0.069154 0.210328 -0.245618
N24   N     N_R   0.087909 0.409401 0.220881 0.194015
O95   O     O_R   0.131788 0.414836 0.221787 -0.242149
O96   O     O_R   0.071092 0.372115 0.210402 -0.245382
C177  C     C_3   0.943555 0.434321 0.146581 -0.612312
H1    H     H_    0.907927 0.437229 0.139021 0.248881
H2    H     H_    0.956016 0.399236 0.142785 0.264747
H3    H     H_    0.943013 0.439773 0.169730 0.211384
C178  C     C_3   0.565236 0.943044 0.146571 -0.612191
H4    H     H_    0.562101 0.907458 0.138970 0.248718
H5    H     H_    0.600416 0.955273 0.142823 0.264947
H6    H     H_    0.559712 0.942469 0.169713 0.211351
C179  C     C_3   0.056438 0.565685 0.146580 -0.612325
H7    H     H_    0.092067 0.562773 0.139022 0.248875
H8    H     H_    0.043980 0.600770 0.142780 0.264747
H9    H     H_    0.056976 0.560238 0.169729 0.211390
C180  C     C_3   0.434762 0.056954 0.146570 -0.612193
H10   H     H_    0.437898 0.092541 0.138970 0.248718
H11   H     H_    0.399583 0.044726 0.142822 0.264946
H12   H     H_    0.440285 0.057529 0.169712 0.211351
C181  C     C_3   0.943469 0.565604 0.853421 -0.612302
H13   H     H_    0.907846 0.562651 0.860983 0.248881
H14   H     H_    0.955885 0.600706 0.857214 0.264746
H15   H     H_    0.942930 0.560148 0.830272 0.211381
C182  C     C_3   0.565650 0.056479 0.853421 -0.612319
H16   H     H_    0.562719 0.092106 0.860980 0.248882
H17   H     H_    0.600742 0.044040 0.857219 0.264739
H18   H     H_    0.560201 0.057015 0.830272 0.211387
C183  C     C_3   0.056532 0.434396 0.853421 -0.612302
H19   H     H_    0.092155 0.437348 0.860983 0.248882
H20   H     H_    0.044116 0.399294 0.857214 0.264746
H21   H     H_    0.057072 0.439852 0.830272 0.211380
C184  C     C_3   0.434354 0.943517 0.853419 -0.612309
H22   H     H_    0.437282 0.907891 0.860980 0.248887
H23   H     H_    0.399262 0.955958 0.857215 0.264739
H24   H     H_    0.439807 0.942977 0.830271 0.211383
C185  C     C_3   0.443437 0.934423 0.646579 -0.612296
H25   H     H_    0.407817 0.937390 0.639014 0.248870
H26   H     H_    0.455839 0.899316 0.642789 0.264761
H27   H     H_    0.442896 0.939884 0.669727 0.211379
C186  C     C_3   0.065604 0.443467 0.646579 -0.612304
H28   H     H_    0.062651 0.407844 0.639016 0.248880
H29   H     H_    0.100705 0.455883 0.642786 0.264746
H30   H     H_    0.060147 0.442928 0.669727 0.211381
C187  C     C_3   0.556563 0.065578 0.646578 -0.612295
H31   H     H_    0.592184 0.062611 0.639013 0.248870
H32   H     H_    0.544161 0.100685 0.642788 0.264761
H33   H     H_    0.557105 0.060117 0.669726 0.211379
C188  C     C_3   0.934396 0.556531 0.646579 -0.612305
H34   H     H_    0.937349 0.592155 0.639017 0.248879
H35   H     H_    0.899294 0.544116 0.642786 0.264746
H36   H     H_    0.939852 0.557070 0.669728 0.211381
C189  C     C_3   0.444086 0.066134 0.353411 -0.612419
H37   H     H_    0.408422 0.063474 0.360941 0.248990
H38   H     H_    0.456796 0.101119 0.357245 0.264612
H39   H     H_    0.443556 0.060737 0.330257 0.211419
C190  C     C_3   0.065563 0.556580 0.353422 -0.612296
H40   H     H_    0.062590 0.592199 0.360989 0.248868
H41   H     H_    0.100674 0.544184 0.357210 0.264761
H42   H     H_    0.060100 0.557123 0.330275 0.211379
C191  C     C_3   0.555902 0.933860 0.353411 -0.612439
H43   H     H_    0.591568 0.936523 0.360938 0.248982
H44   H     H_    0.543195 0.898876 0.357250 0.264613
H45   H     H_    0.556426 0.939250 0.330257 0.211426
C192  C     C_3   0.934436 0.443422 0.353421 -0.612295
H46   H     H_    0.937409 0.407803 0.360988 0.248869
H47   H     H_    0.899326 0.455818 0.357210 0.264760
H48   H     H_    0.939900 0.442879 0.330274 0.211378
N25   N     N_R   0.944636 0.436910 0.086061 0.141549
O97   O     O_R   0.912487 0.452297 0.069774 -0.356646
O98   O     O_R   0.950902 0.393256 0.088209 -0.304086
N26   N     N_R   0.562730 0.944233 0.086045 0.141416
O99   O     O_R   0.547142 0.912250 0.069705 -0.357235
O100  O     O_R   0.606424 0.950156 0.088245 -0.303989
N27   N     N_R   0.055356 0.563095 0.086061 0.141542
O101  O     O_R   0.087514 0.547712 0.069780 -0.356635
O102  O     O_R   0.049075 0.606747 0.088201 -0.304078
N28   N     N_R   0.437270 0.055766 0.086045 0.141416
O103  O     O_R   0.452858 0.087751 0.069706 -0.357233
O104  O     O_R   0.393576 0.049842 0.088244 -0.303989
N29   N     N_R   0.944559 0.563020 0.913942 0.141527
O105  O     O_R   0.912440 0.547592 0.930237 -0.356734
O106  O     O_R   0.950760 0.606681 0.911787 -0.304094
N30   N     N_R   0.563062 0.055393 0.913940 0.141538
O107  O     O_R   0.547659 0.087535 0.930227 -0.356712
O108  O     O_R   0.606718 0.049146 0.911795 -0.304101
N31   N     N_R   0.055442 0.436980 0.913942 0.141528
O109  O     O_R   0.087560 0.452408 0.930238 -0.356734
O110  O     O_R   0.049243 0.393318 0.911786 -0.304095
N32   N     N_R   0.436942 0.944601 0.913940 0.141543
O111  O     O_R   0.452347 0.912466 0.930231 -0.356719
O112  O     O_R   0.393285 0.950836 0.911788 -0.304107
N33   N     N_R   0.444534 0.937002 0.586057 0.141517
O113  O     O_R   0.412426 0.952442 0.569758 -0.356724
O114  O     O_R   0.450714 0.893338 0.588216 -0.304079
N34   N     N_R   0.063019 0.444558 0.586058 0.141527
O115  O     O_R   0.047591 0.412439 0.569762 -0.356750
O116  O     O_R   0.106681 0.450758 0.588213 -0.304102
N35   N     N_R   0.555466 0.062998 0.586057 0.141517
O117  O     O_R   0.587575 0.047558 0.569759 -0.356722
O118  O     O_R   0.549285 0.106663 0.588215 -0.304080
N36   N     N_R   0.936980 0.555441 0.586058 0.141527
O119  O     O_R   0.952408 0.587561 0.569763 -0.356749
O120  O     O_R   0.893319 0.549241 0.588213 -0.304102
N37   N     N_R   0.445087 0.063489 0.413922 0.141675
O121  O     O_R   0.412750 0.048334 0.430149 -0.356008
O122  O     O_R   0.451742 0.107092 0.411832 -0.304144
N38   N     N_R   0.062988 0.555477 0.413944 0.141516
O123  O     O_R   0.047543 0.587581 0.430244 -0.356794
O124  O     O_R   0.106653 0.549307 0.411784 -0.304099
N39   N     N_R   0.554900 0.936504 0.413921 0.141667
O125  O     O_R   0.587250 0.951654 0.430140 -0.355992
O126  O     O_R   0.548224 0.892903 0.411841 -0.304133
N40   N     N_R   0.937012 0.444523 0.413943 0.141517
O127  O     O_R   0.952458 0.412419 0.430243 -0.356793
O128  O     O_R   0.893347 0.450692 0.411783 -0.304101

loop_
_geom_bond_atom_site_label_1
_geom_bond_atom_site_label_2
_geom_bond_distance
_ccdc_geom_bond_type
O4    C4    1.261543 A    
C189  H37   1.110417 S    
N1    C128  1.439816 S    
C87   C183  1.513547 S    
C55   C79   1.416790 A    
C6    C134  1.502843 S    
N19   O85   1.300882 A    
C56   C80   1.416803 A    
N7    C122  1.439816 S    
O30   Cu12  1.834805 S    
O5    Cu3   1.831704 S    
O34   C10   1.244682 A    
C75   N19   1.433673 S    
C184  H22   1.110422 S    
N23   O94   1.301075 A    
C95   C111  1.409634 A    
C183  H19   1.110420 S    
N16   O79   1.300883 A    
C99   C113  1.412413 A    
C93   C109  1.409648 A    
C83   C121  1.413042 A    
N35   O118  1.300788 A    
C35   N5    1.363474 A    
C48   C60   1.418709 A    
N33   O114  1.300787 A    
C68   N12   1.433649 S    
C67   N11   1.433673 S    
O26   Cu11  1.834805 S    
N21   O90   1.301073 A    
C66   C77   1.402555 A    
C130  C138  1.245840 T    
N26   O100  1.300792 A    
O48   Cu8   1.954015 S    
C22   C175  1.503137 S    
C34   C52   1.413701 A    
C112  C120  1.412393 A    
C72   N16   1.433676 S    
C96   C112  1.409682 A    
C36   N6    1.363471 A    
C192  H48   1.107687 S    
O38   C12   1.244741 A    
O2    C2    1.261543 A    
C177  H2    1.109486 S    
C16   C120  1.477600 S    
C38   N8    1.363473 A    
C90   C186  1.513547 S    
O41   Cu5   1.954011 S    
C8    C136  1.502843 S    
C26   N2    1.363469 A    
O43   Cu7   1.954010 S    
C188  H35   1.109486 S    
O31   C21   1.309785 A    
C190  H42   1.107686 S    
C45   C69   1.416802 A    
C159  C167  1.477134 S    
C57   C64   1.419563 A    
C104  N32   1.436492 S    
C1    C129  1.502852 S    
O24   C20   1.309791 A    
C59   C62   1.419568 A    
C65   C78   1.402564 A    
C161  C169  1.245948 T    
C27   C41   1.413704 A    
O12   C8    1.261540 A    
C179  H9    1.107685 S    
C132  C140  1.245840 T    
O44   Cu8   1.954011 S    
C100  N28   1.436522 S    
O32   C24   1.309791 A    
C94   C110  1.409678 A    
N23   O93   1.300885 A    
O46   Cu6   1.954016 S    
C81   C177  1.513547 S    
N24   O95   1.300884 A    
C153  C161  1.477134 S    
C95   C191  1.513547 S    
N8    C121  1.439812 S    
C186  H30   1.107686 S    
C110  N38   1.436494 S    
O15   C7    1.261538 A    
N34   O116  1.300789 A    
C51   C75   1.416803 A    
C189  H39   1.107686 S    
C100  C114  1.412344 A    
C40   N8    1.363472 A    
C83   C179  1.513544 S    
N36   O120  1.300787 A    
C140  C148  1.477066 S    
C145  C153  1.245928 T    
O45   Cu7   1.954016 S    
C184  H24   1.107682 S    
N22   O91   1.300882 A    
C168  C176  1.245949 T    
C183  H21   1.107686 S    
C42   C66   1.416811 A    
O37   C11   1.244730 A    
C33   N5    1.363470 A    
C45   C59   1.418708 A    
C85   C123  1.413054 A    
C41   C65   1.416799 A    
O38   Cu2   1.954016 S    
N2    C127  1.439783 S    
C109  C119  1.412497 A    
O10   C6    1.261540 A    
C105  C117  1.412395 A    
C91   C187  1.513544 S    
N17   O82   1.301052 A    
C191  H43   1.110422 S    
C84   C180  1.513543 S    
N15   O78   1.301056 A    
O42   Cu6   1.954011 S    
N32   O111  1.301154 A    
C12   C116  1.477643 S    
O39   C11   1.244730 A    
C17   C170  1.503134 S    
N21   O89   1.300886 A    
C111  C119  1.412490 A    
C85   C181  1.513546 S    
C180  H10   1.110421 S    
C86   C182  1.513543 S    
C24   C173  1.503137 S    
C107  C117  1.412394 A    
N37   O121  1.301164 A    
C81   C121  1.413045 A    
C134  C142  1.245840 T    
N29   O106  1.300787 A    
C33   C51   1.413700 A    
C187  H31   1.110421 S    
C80   N24   1.433671 S    
C82   C98   1.409678 A    
C97   C113  1.412417 A    
C37   N7    1.363474 A    
C39   C53   1.413685 A    
O26   C22   1.309786 A    
C15   C119  1.477861 S    
C39   O63   1.348500 S    
C7    C135  1.502852 S    
N38   O123  1.301154 A    
N19   O86   1.301056 A    
C30   O54   1.348493 S    
N9    O65   1.300883 A    
C50   C62   1.418710 A    
O18   Cu9   1.834805 S    
C178  H5    1.109487 S    
C104  C116  1.412408 A    
N4    C125  1.439816 S    
C58   C63   1.419549 A    
C96   C128  1.413052 A    
C34   N6    1.363472 A    
O27   Cu11  1.834798 S    
C38   C56   1.413701 A    
N10   O67   1.300884 A    
O5    C1    1.261538 A    
O1    Cu1   1.831704 S    
O48   C16   1.244727 A    
C26   C44   1.413705 A    
C46   C60   1.418708 A    
C77   N21   1.433699 S    
O17   C17   1.309788 A    
C182  H17   1.109486 S    
C48   C72   1.416802 A    
O9    C5    1.261540 A    
C39   N7    1.363471 A    
N40   O128  1.300789 A    
C185  H26   1.109488 S    
C69   N13   1.433671 S    
C191  H45   1.107682 S    
C108  N36   1.436494 S    
O4    Cu4   1.831699 S    
C106  C118  1.412401 A    
Cu6   Cu8   2.495964 S    
C106  N34   1.436491 S    
N18   O84   1.301055 A    
C94   C190  1.513547 S    
O11   C7    1.261540 A    
C86   C124  1.413050 A    
C29   N3    1.363473 A    
C112  N40   1.436498 S    
N24   O96   1.301056 A    
O3    C3    1.261540 A    
C180  H12   1.107697 S    
C110  C120  1.412396 A    
C42   C58   1.418720 A    
O8    C2    1.261539 A    
C101  C115  1.412400 A    
O47   Cu5   1.954015 S    
O17   Cu9   1.834797 S    
C150  C158  1.245923 T    
N30   O108  1.300789 A    
C187  H33   1.107686 S    
C46   C70   1.416802 A    
C34   O58   1.348492 S    
C26   O50   1.348491 S    
C87   C123  1.413050 A    
N31   O110  1.300788 A    
O31   Cu12  1.834798 S    
O21   Cu10  1.834797 S    
N12   O71   1.300883 A    
C89   C125  1.413052 A    
N34   O115  1.301154 A    
O2    Cu2   1.831696 S    
N11   O69   1.300881 A    
O21   C19   1.309787 A    
N16   O80   1.301055 A    
C142  C150  1.477066 S    
O44   C14   1.244733 A    
N33   O113  1.301154 A    
C4    C132  1.502843 S    
O45   C15   1.244808 A    
O46   C16   1.244726 A    
O25   Cu11  1.834797 S    
O32   Cu12  1.834805 S    
C101  N29   1.436495 S    
N13   O74   1.301055 A    
O6    C4    1.261539 A    
C99   N27   1.436479 S    
C91   C125  1.413053 A    
C44   C68   1.416809 A    
C146  C154  1.245923 T    
O35   C9    1.244743 A    
N14   O75   1.300883 A    
C138  C146  1.477066 S    
O35   Cu3   1.954010 S    
O22   C18   1.309789 A    
C37   C55   1.413688 A    
C3    C131  1.502852 S    
C66   N10   1.433650 S    
O28   Cu11  1.834805 S    
C133  C141  1.245846 T    
C192  H47   1.109487 S    
C55   C63   1.418695 A    
C25   C43   1.413704 A    
N28   O103  1.301160 A    
O16   Cu8   1.831696 S    
C5    C133  1.502852 S    
C70   C73   1.402564 A    
Cu9   Cu10  2.667260 S    
N27   O101  1.301157 A    
C188  H34   1.110423 S    
C190  H41   1.109486 S    
C71   N15   1.433673 S    
C107  N35   1.436498 S    
O9    Cu5   1.831704 S    
C88   C184  1.513549 S    
N25   O98   1.300788 A    
N20   O87   1.300882 A    
O22   Cu10  1.834805 S    
O11   Cu7   1.831707 S    
C177  H3    1.107686 S    
C136  C144  1.245840 T    
C155  C163  1.477134 S    
O19   Cu9   1.834798 S    
C179  H8    1.109487 S    
C14   C118  1.477619 S    
C28   N2    1.363469 A    
C167  C175  1.245951 T    
C129  C137  1.245843 T    
N35   O117  1.301153 A    
O36   C10   1.244680 A    
Cu1   Cu3   2.495953 S    
C98   C114  1.412342 A    
O37   Cu3   1.954016 S    
C28   C42   1.413699 A    
N15   O77   1.300881 A    
C98   N26   1.436522 S    
C186  H29   1.109486 S    
C30   N4    1.363473 A    
C18   C171  1.503140 S    
O23   Cu10  1.834798 S    
C32   C46   1.413703 A    
C68   C79   1.402560 A    
C183  H20   1.109485 S    
O12   Cu8   1.831699 S    
C69   C74   1.402565 A    
C38   O62   1.348493 S    
C92   C188  1.513547 S    
O14   Cu6   1.831699 S    
O29   Cu12  1.834797 S    
C102  C116  1.412406 A    
C72   C75   1.402559 A    
C65   N9    1.433675 S    
C184  H23   1.109486 S    
C139  C147  1.477072 S    
C28   O52   1.348490 S    
C93   C189  1.513547 S    
C71   C76   1.402560 A    
C97   N25   1.436488 S    
O41   C13   1.244728 A    
C47   C59   1.418712 A    
C158  C166  1.477124 S    
C2    C130  1.502843 S    
O13   Cu7   1.831704 S    
C185  H25   1.110422 S    
C103  C115  1.412399 A    
C53   C77   1.416790 A    
N17   O81   1.300883 A    
N5    C124  1.439812 S    
O7    Cu1   1.831707 S    
O29   C23   1.309785 A    
N10   O68   1.301064 A    
C86   C102  1.409673 A    
C157  C165  1.477134 S    
O40   Cu4   1.954015 S    
C53   C63   1.418698 A    
C32   N4    1.363471 A    
N32   O112  1.300788 A    
C90   C106  1.409682 A    
O10   Cu6   1.831696 S    
C166  C174  1.245949 T    
C43   C57   1.418708 A    
C188  H36   1.107683 S    
N29   O105  1.301153 A    
C111  N39   1.436436 S    
C165  C173  1.245951 T    
C29   C47   1.413701 A    
C89   C185  1.513545 S    
C56   C64   1.418708 A    
C31   C45   1.413705 A    
C162  C170  1.245946 T    
O24   Cu10  1.834805 S    
C49   C73   1.416802 A    
C141  C149  1.477072 S    
N38   O124  1.300790 A    
O33   C9    1.244743 A    
C91   C107  1.409682 A    
N11   O70   1.301057 A    
C47   C71   1.416802 A    
C178  H4    1.110426 S    
C93   C127  1.413017 A    
C181  H13   1.110422 S    
N27   O102  1.300791 A    
C78   N22   1.433669 S    
C27   N1    1.363471 A    
C137  C145  1.477072 S    
C156  C164  1.477124 S    
N36   O119  1.301155 A    
C82   C122  1.413070 A    
C135  C143  1.245846 T    
C67   C80   1.402564 A    
C163  C171  1.245948 T    
Cu2   Cu4   2.495964 S    
C74   N18   1.433668 S    
C70   N14   1.433674 S    
C182  H16   1.110424 S    
Cu11  Cu12  2.667260 S    
O43   C13   1.244728 A    
O1    C1    1.261540 A    
N31   O109  1.301156 A    
C177  H1    1.110421 S    
O25   C21   1.309787 A    
C23   C176  1.503134 S    
C40   C54   1.413701 A    
C192  H46   1.110423 S    
O27   C23   1.309784 A    
C191  H44   1.109485 S    
C76   N20   1.433670 S    
C92   C108  1.409677 A    
C49   C61   1.418707 A    
C95   C127  1.413012 A    
C147  C155  1.245928 T    
O20   C20   1.309787 A    
C181  H14   1.109486 S    
Cu5   Cu7   2.495953 S    
C13   C117  1.477605 S    
C83   C99   1.409673 A    
C11   C115  1.477624 S    
C84   C100  1.409674 A    
N22   O92   1.301056 A    
N6    C123  1.439816 S    
O13   C5    1.261538 A    
C79   N23   1.433697 S    
C50   C74   1.416801 A    
C187  H32   1.109488 S    
C31   O55   1.348491 S    
C96   C192  1.513543 S    
C32   O56   1.348491 S    
C154  C162  1.477124 S    
C54   C64   1.418709 A    
O23   C17   1.309787 A    
C105  N33   1.436496 S    
O40   C12   1.244737 A    
C31   N3    1.363471 A    
O15   Cu5   1.831707 S    
C94   C128  1.413053 A    
C88   C124  1.413049 A    
C43   C67   1.416800 A    
C19   C172  1.503134 S    
N9    O66   1.301056 A    
N30   O107  1.301155 A    
C178  H6    1.107694 S    
O33   Cu1   1.954011 S    
C180  H11   1.109487 S    
O14   C8    1.261542 A    
C35   C49   1.413705 A    
O47   C15   1.244808 A    
C189  H38   1.109487 S    
C181  H15   1.107688 S    
C30   C48   1.413698 A    
C35   O59   1.348490 S    
C33   O57   1.348495 S    
N39   O125  1.301167 A    
C73   N17   1.433673 S    
C151  C159  1.245925 T    
N39   O126  1.300795 A    
N13   O73   1.300884 A    
C41   C57   1.418709 A    
C36   O60   1.348492 S    
C37   O61   1.348497 S    
C20   C169  1.503140 S    
C27   O51   1.348493 S    
C149  C157  1.245925 T    
C40   O64   1.348493 S    
N14   O76   1.301054 A    
O8    Cu4   1.831696 S    
C25   O49   1.348492 S    
C21   C174  1.503134 S    
O42   C14   1.244735 A    
C182  H18   1.107686 S    
C84   C122  1.413067 A    
O36   Cu4   1.954011 S    
N37   O122  1.300794 A    
N26   O99   1.301162 A    
O34   Cu2   1.954011 S    
N40   O127  1.301153 A    
C185  H27   1.107683 S    
C103  N31   1.436494 S    
C10   C114  1.477439 S    
N28   O104  1.300791 A    
C160  C168  1.477124 S    
C90   C126  1.413052 A    
O7    C3    1.261538 A    
O3    Cu3   1.831707 S    
C44   C58   1.418719 A    
C54   C78   1.416802 A    
C131  C139  1.245843 T    
C109  N37   1.436448 S    
C164  C172  1.245946 T    
C82   C178  1.513543 S    
C143  C151  1.477072 S    
C190  H40   1.110421 S    
C51   C61   1.418712 A    
C87   C103  1.409682 A    
C81   C97   1.409677 A    
N18   O83   1.300884 A    
C152  C160  1.245923 T    
O19   C19   1.309785 A    
C85   C101  1.409677 A    
N25   O97   1.301152 A    
N20   O88   1.301055 A    
C25   N1    1.363469 A    
C88   C104  1.409677 A    
O20   Cu9   1.834805 S    
C89   C105  1.409682 A    
C92   C126  1.413049 A    
N12   O72   1.301063 A    
C179  H7    1.110424 S    
O28   C24   1.309787 A    
C29   O53   1.348490 S    
C144  C152  1.477066 S    
C9    C113  1.477652 S    
O30   C22   1.309789 A    
O6    Cu2   1.831699 S    
O18   C18   1.309786 A    
O16   C6    1.261542 A    
C148  C156  1.245923 T    
C108  C118  1.412401 A    
C52   C62   1.418712 A    
C186  H28   1.110423 S    
C36   C50   1.413705 A    
O39   Cu1   1.954015 S    
C102  N30   1.436486 S    
C60   C61   1.419568 A    
C52   C76   1.416804 A    
N3    C126  1.439816 S    
