data_mof_unit_67726.cif
_audit_creation_date              2012-10-26T19:56:19-0400
_audit_creation_method            fapswitch 2.2
_symmetry_space_group_name_H-M    P1
_symmetry_Int_Tables_number       1
_space_group_crystal_system       triclinic
_cell_length_a                    11.635466
_cell_length_b                    11.214031
_cell_length_c                    9.763069
_cell_angle_alpha                 89.379378
_cell_angle_beta                  92.44538
_cell_angle_gamma                 88.837962
_cell_volume                      1272.3808299

loop_
_atom_site_label
_atom_site_type_symbol
_atom_type_description
_atom_site_fract_x
_atom_site_fract_y
_atom_site_fract_z
_atom_type_partial_charge
Br1   Br    Br    0.148008 0.977140 0.121239 -0.241907
Br2   Br    Br    0.296268 0.979136 0.713197 -0.265296
Br3   Br    Br    0.852068 0.022819 0.878705 -0.241920
Br4   Br    Br    0.122706 0.398713 0.208825 -0.356914
Br5   Br    Br    0.877277 0.601256 0.791198 -0.356914
Br6   Br    Br    0.131606 0.514374 0.903342 -0.401865
Br7   Br    Br    0.868412 0.485575 0.096648 -0.401846
Br8   Br    Br    0.433642 0.918989 0.187141 -0.322751
Br9   Br    Br    0.566389 0.081014 0.812852 -0.322779
Br10  Br    Br    0.703770 0.020843 0.286792 -0.265286
C1    C     C_R   0.507866 0.259730 0.500351 0.573418
C2    C     C_3   0.527704 0.037877 0.625659 0.145364
C3    C     C_3   0.486946 0.879055 0.501490 -0.052753
C4    C     C_3   0.513079 0.120942 0.498509 -0.052762
C5    C     C_3   0.597173 0.945724 0.543737 0.080393
C6    C     C_3   0.402853 0.054273 0.456261 0.080384
C7    C     C_3   0.491507 0.603594 0.049292 -0.035536
C8    C     C_3   0.508495 0.396408 0.950709 -0.035529
C9    C     C_3   0.407107 0.548211 0.940673 0.180150
C10   C     C_3   0.592895 0.451792 0.059328 0.180173
C11   C     C_3   0.586616 0.558069 0.955088 0.198138
C12   C     C_R   0.492140 0.740268 0.499648 0.573426
C13   C     C_3   0.413383 0.441933 0.044910 0.198120
C14   C     C_R   0.262606 0.500584 0.498406 0.563445
C15   C     C_R   0.737394 0.499415 0.501593 0.563442
C16   C     C_R   0.119585 0.813389 0.151555 0.179177
C17   C     C_R   0.880435 0.186576 0.848410 0.179183
C18   C     C_R   0.114205 0.763022 0.283736 0.082328
C19   C     C_R   0.885802 0.236961 0.716234 0.082328
C20   C     C_R   0.106432 0.639092 0.298118 -0.029316
C21   C     C_R   0.893568 0.360890 0.701870 -0.029315
C22   C     C_R   0.122478 0.567261 0.184971 0.185710
C23   C     C_R   0.872255 0.499326 0.501072 0.037156
C24   C     C_R   0.877525 0.432702 0.815026 0.185698
C25   C     C_R   0.120460 0.617414 0.054189 0.183282
C26   C     C_R   0.879557 0.382535 0.945798 0.183292
C27   C     C_R   0.108227 0.740984 0.036762 0.166102
C28   C     C_R   0.891790 0.258966 0.963210 0.166108
C29   C     C_R   0.932194 0.582495 0.420700 0.139162
C30   C     C_R   0.067809 0.417498 0.579289 0.139167
C31   C     C_R   0.127747 0.500674 0.498928 0.037152
C32   C     C_R   0.943500 0.418491 0.582556 0.010616
C33   C     C_R   0.056502 0.581507 0.417441 0.010607
C34   C     C_3   0.583244 0.027527 0.415390 0.143144
C35   C     C_3   0.416780 0.972470 0.584607 0.143144
C36   C     C_3   0.472320 0.962121 0.374342 0.145354
Cu1   Cu    Cu3+1 0.500030 0.499990 0.643150 1.100402
Cu2   Cu    Cu3+1 0.499970 0.500010 0.356850 1.100392
H1    H     H_    0.478427 0.690892 0.099007 0.195396
H2    H     H_    0.521563 0.309107 0.900995 0.195399
I1    I     I_    0.064155 0.820072 0.841660 0.053482
I2    I     I_    0.166397 0.283686 0.695825 -0.084211
I3    I     I_    0.750111 0.853692 0.610380 -0.026637
I4    I     I_    0.249914 0.146288 0.389585 -0.026614
I5    I     I_    0.935871 0.179861 0.158307 0.053523
I6    I     I_    0.339635 0.705719 0.850913 -0.110738
I7    I     I_    0.660347 0.294271 0.149077 -0.110734
I8    I     I_    0.660933 0.730415 0.933841 0.014831
I9    I     I_    0.339037 0.269601 0.066128 0.014823
I10   I     I_    0.099437 0.868774 0.458197 -0.081777
I11   I     I_    0.900532 0.131245 0.541740 -0.081811
I12   I     I_    0.833605 0.716282 0.304121 -0.084216
N1    N     N_3   0.500090 0.499970 0.858290 -0.304120
N2    N     N_3   0.499910 0.500030 0.141710 -0.304126
O1    O     O_R   0.500060 0.316850 0.620870 -0.494295
O2    O     O_R   0.499940 0.683150 0.379130 -0.494304
O3    O     O_R   0.500000 0.316860 0.379090 -0.466525
O4    O     O_R   0.500000 0.683140 0.620910 -0.466526
O5    O     O_R   0.319670 0.500010 0.620890 -0.461914
O6    O     O_R   0.680330 0.499990 0.379110 -0.461921
O7    O     O_R   0.319620 0.500010 0.379110 -0.495132
O8    O     O_R   0.680380 0.499990 0.620890 -0.495122

loop_
_geom_bond_atom_site_label_1
_geom_bond_atom_site_label_2
_ccdc_geom_bond_type
C9    I6    S    
C3    C35   S    
C21   C32   S    
C17   C19   A    
Br7   C26   S    
C13   I9    S    
C23   C29   A    
C23   C32   A    
C5    I3    S    
C25   C27   A    
C5    C34   S    
C7    N2    S    
Cu1   N1    S    
C3    C36   S    
C27   I1    S    
C1    C4    S    
C8    N1    S    
Cu2   N2    S    
C17   C28   A    
Br6   C25   S    
C1    O3    A    
Cu1   O5    S    
C12   O2    A    
C28   I5    S    
C9    N1    S    
C8    C10   S    
C30   C32   A    
C14   C31   S    
C31   C33   A    
C34   C36   S    
C14   O5    A    
Br8   C36   S    
Br3   C17   S    
C18   I10   S    
Br2   C35   S    
C19   I11   S    
Br10  C34   S    
C8    C13   S    
C22   C25   A    
C7    H1    S    
C29   C33   A    
C30   I2    S    
C7    C11   S    
C10   N2    S    
C9    C13   S    
Cu1   Cu2   S    
C2    C5    S    
Br5   C24   S    
C21   C24   A    
C15   O8    A    
C12   O4    A    
Br4   C22   S    
C30   C31   A    
C2    C4    S    
C3    C5    S    
Br1   C16   S    
C4    C6    S    
C20   C33   S    
Cu2   O7    S    
C6    C36   S    
Cu1   O4    S    
C8    H2    S    
C4    C34   S    
C29   I12   S    
C13   N2    S    
Cu2   O6    S    
C2    C35   S    
C6    C35   S    
C16   C27   A    
C16   C18   A    
C18   C20   A    
C11   I8    S    
C19   C21   A    
C20   C22   A    
C26   C28   A    
C7    C9    S    
C3    C12   S    
C24   C26   A    
Cu2   O3    S    
Br9   C2    S    
C6    I4    S    
Cu1   O8    S    
C11   N1    S    
C10   C11   S    
C15   O6    A    
Cu2   O2    S    
C10   I7    S    
Cu1   O1    S    
C1    O1    A    
C14   O7    A    
C15   C23   S    
