data_mof_unit_53371.cif
_audit_creation_date              2012-12-11T16:58:24-0500
_audit_creation_method            fapswitch 2.2
_symmetry_space_group_name_H-M    P1
_symmetry_Int_Tables_number       1
_space_group_crystal_system       triclinic
_cell_length_a                    16.896699
_cell_length_b                    7.256533
_cell_length_c                    16.86848
_cell_angle_alpha                 89.99854
_cell_angle_beta                  100.41833
_cell_angle_gamma                 90.001113
_cell_volume                      2034.17069175

loop_
_atom_site_label
_atom_site_type_symbol
_atom_type_description
_atom_site_fract_x
_atom_site_fract_y
_atom_site_fract_z
_atom_type_partial_charge
O1    O     O_R   0.413450 0.494370 0.415710 -0.521907
O2    O     O_R   0.586550 0.994370 0.584290 -0.521914
O3    O     O_R   0.578420 0.819350 0.429360 -0.544404
O4    O     O_R   0.421580 0.319350 0.570640 -0.544393
C1    C     C_R   0.604593 0.656430 0.413549 0.757933
C2    C     C_R   0.395410 0.156423 0.586453 0.758062
O5    O     O_R   0.413570 0.823780 0.406240 -0.553638
O6    O     O_R   0.586430 0.323780 0.593760 -0.553634
O7    O     O_R   0.420530 0.998740 0.561000 -0.525825
O8    O     O_R   0.579470 0.498740 0.439000 -0.525815
C3    C     C_R   0.386167 0.655300 0.383631 0.755398
C4    C     C_R   0.613831 0.155299 0.616371 0.755559
O9    O     O_3   0.502480 0.662320 0.550800 -0.379928
O10   O     O_3   0.497520 0.162320 0.449200 -0.379916
V1    V     V_3+5 0.499540 0.935370 0.490580 1.480178
V2    V     V_3+5 0.500460 0.435370 0.509420 1.480206
C5    C     C_R   0.737353 0.996599 0.692455 0.138057
C6    C     C_R   0.262660 0.496560 0.307534 0.138054
C7    C     C_R   0.684406 0.147028 0.683098 -0.081082
C8    C     C_R   0.315588 0.647029 0.316907 -0.080986
C9    C     C_R   0.704401 0.295833 0.736814 -0.192301
C10   C     C_R   0.295577 0.795858 0.263206 -0.192472
H1    H     H_    0.667283 0.418263 0.731169 0.142472
H2    H     H_    0.332682 0.918311 0.268862 0.142504
C11   C     C_R   0.770010 0.283950 0.801609 -0.206014
C12   C     C_R   0.229969 0.783972 0.198410 -0.205916
H3    H     H_    0.780810 0.397833 0.843593 0.130209
H4    H     H_    0.219158 0.897879 0.156438 0.130240
C13   C     C_R   0.818454 0.123930 0.814166 -0.129697
C14   C     C_R   0.181546 0.623921 0.185836 -0.129574
C15   C     C_R   0.802750 0.986010 0.755379 0.171698
C16   C     C_R   0.197268 0.485956 0.244604 0.171267
C17   C     C_3   0.795115 0.781454 0.762067 -0.220645
C18   C     C_3   0.204955 0.281422 0.237873 -0.220510
C19   C     C_3   0.722754 0.793788 0.693191 -0.475359
C20   C     C_3   0.277300 0.293774 0.306765 -0.475718
H5    H     H_    0.779095 0.736575 0.820167 0.110031
H6    H     H_    0.221002 0.236642 0.179772 0.110223
H7    H     H_    0.664796 0.759903 0.712227 0.188255
H8    H     H_    0.335272 0.259991 0.287738 0.188395
H9    H     H_    0.731594 0.726922 0.636086 0.176732
H10   H     H_    0.268462 0.226826 0.363855 0.176671
C21   C     C_R   0.332869 0.156898 0.638991 -0.133912
C22   C     C_R   0.667138 0.656927 0.361014 -0.133960
C23   C     C_R   0.168664 0.111600 0.865375 -0.052819
C24   C     C_R   0.831341 0.611568 0.134633 -0.052857
C25   C     C_R   0.288310 0.961958 0.833694 -0.172242
C26   C     C_R   0.711766 0.461741 0.166393 -0.172250
C27   C     C_R   0.231470 0.983434 0.883701 -0.145213
C28   C     C_R   0.768587 0.483248 0.116368 -0.145165
C29   C     C_R   0.163809 0.219692 0.795889 -0.193256
C30   C     C_R   0.836156 0.719793 0.204074 -0.193365
C31   C     C_R   0.219879 0.196055 0.743934 0.137639
C32   C     C_R   0.780103 0.696133 0.256046 0.137622
C33   C     C_R   0.283085 0.065404 0.762050 0.078199
C34   C     C_R   0.716954 0.565325 0.237990 0.078249
C35   C     C_R   0.340180 0.045640 0.709568 -0.074969
C36   C     C_R   0.659873 0.545537 0.290485 -0.074976
C37   C     C_R   0.267685 0.282723 0.621750 -0.072012
C38   C     C_R   0.732276 0.782895 0.378204 -0.071986
C39   C     C_R   0.212617 0.301060 0.673770 -0.200114
C40   C     C_R   0.787328 0.801262 0.326169 -0.200195
H11   H     H_    0.335742 0.862610 0.851935 0.110862
H12   H     H_    0.664377 0.362257 0.148206 0.110886
H13   H     H_    0.163662 0.399308 0.659471 0.137457
H14   H     H_    0.836245 0.899622 0.340426 0.137437
H15   H     H_    0.236263 0.897984 0.937054 0.114124
H16   H     H_    0.763823 0.397695 0.063052 0.114162
H17   H     H_    0.114683 0.316988 0.780720 0.128193
H18   H     H_    0.885241 0.817211 0.219197 0.128293
O11   O     O_R   0.920630 0.775410 0.061150 -0.539280
O12   O     O_R   0.079370 0.275410 0.938850 -0.539314
O13   O     O_R   0.086500 0.441450 0.093690 -0.527116
O14   O     O_R   0.913500 0.941450 0.906310 -0.527373
C41   C     C_R   0.114137 0.610244 0.116047 0.702454
C42   C     C_R   0.885864 0.110246 0.883953 0.702263
O15   O     O_R   0.921670 0.445960 0.070740 -0.529868
O16   O     O_R   0.078330 0.945960 0.929260 -0.529953
O17   O     O_R   0.913380 0.271130 0.915780 -0.546230
O18   O     O_R   0.086620 0.771130 0.084220 -0.546177
C43   C     C_R   0.895725 0.613178 0.085584 0.687798
C44   C     C_R   0.104274 0.113184 0.914416 0.687732
O19   O     O_3   0.997500 0.603030 0.949220 -0.371404
O20   O     O_3   0.002500 0.103030 0.050780 -0.371063
V3    V     V_3+5 0.000470 0.329940 0.009420 1.463540
V4    V     V_3+5 0.999530 0.829940 0.990580 1.463201
C45   C     C_2   0.864919 0.677242 0.739417 0.440251
H19   H     H_    0.856908 0.534885 0.720036 0.056047
O21   O     O_2   0.930767 0.749639 0.743280 -0.519703
C46   C     C_2   0.135157 0.177108 0.260479 0.439994
H20   H     H_    0.143299 0.035112 0.280279 0.056133
O22   O     O_2   0.069131 0.248995 0.256027 -0.519601
C47   C     C_2   0.408235 0.913901 0.730116 0.363691
H21   H     H_    0.397605 0.775605 0.750236 0.043986
O23   O     O_2   0.477018 0.960172 0.726709 -0.537773
C48   C     C_2   0.591881 0.413618 0.269999 0.363827
H22   H     H_    0.602595 0.275245 0.250034 0.043963
O24   O     O_2   0.523065 0.459820 0.273285 -0.537738
C49   C     C_1   0.255030 0.396202 0.550161 0.307732
N1    N     N_1   0.244555 0.487924 0.493133 -0.376152
C50   C     C_1   0.744903 0.896481 0.449759 0.307839
N2    N     N_1   0.755353 0.988287 0.506760 -0.376036

loop_
_geom_bond_atom_site_label_1
_geom_bond_atom_site_label_2
_ccdc_geom_bond_type
C45   H19   S    
C47   H21   S    
C37   C49   S    
C20   H10   S    
C23   C44   S    
O1    C3    A    
C42   O17   A    
O2    C4    A    
C2    O7    A    
O12   V3    S    
C25   C27   A    
C13   C42   S    
O5    C3    A    
C50   N2    T    
O14   C42   A    
C7    C9    A    
C25   H11   S    
C26   H12   S    
C23   C29   A    
C24   C43   S    
C24   C30   A    
C38   C40   A    
C36   C48   S    
O18   V4    S    
C17   C19   S    
C31   C39   A    
C22   C36   A    
C48   O24   D    
C15   C17   S    
O15   C43   A    
C41   O18   A    
C18   C20   S    
C21   C37   A    
O16   V4    S    
C26   C28   A    
O15   V3    S    
O6    V2    S    
C35   C47   S    
O13   C41   A    
C30   C32   A    
C31   C33   A    
C11   C13   A    
C32   C34   A    
C3    C8    S    
C37   C39   A    
C40   H14   S    
C20   H8    S    
O20   V3    S    
O4    C2    A    
C32   C40   A    
C17   H5    S    
C29   C31   A    
C16   C18   S    
O4    V2    S    
C19   H7    S    
C18   C46   S    
O11   V4    S    
O16   C44   A    
C46   O22   D    
C49   N1    T    
C23   C27   A    
O6    C4    A    
C48   H22   S    
O1    V2    S    
O14   V4    S    
O2    V1    S    
O13   V3    S    
C1    C22   S    
C8    C10   A    
C12   C14   A    
C2    C21   S    
C33   C35   A    
C5    C15   A    
C10   H2    S    
C6    C16   A    
C38   C50   S    
O17   V3    S    
O3    V1    S    
C25   C33   A    
C26   C34   A    
C9    C11   A    
C27   H15   S    
C18   H6    S    
O3    C1    A    
C11   H3    S    
C5    C19   S    
C24   C28   A    
C12   H4    S    
C9    H1    S    
C17   C45   S    
C1    O8    A    
C13   C15   A    
O8    V2    S    
C14   C16   A    
C14   C41   S    
C46   H20   S    
C28   H16   S    
C22   C38   A    
C4    C7    S    
O5    V1    S    
C5    C7    A    
C34   C36   A    
C6    C8    A    
O7    V1    S    
C19   H9    S    
C30   H18   S    
C21   C35   A    
C39   H13   S    
O19   V4    S    
C47   O23   D    
C10   C12   A    
O9    V2    S    
C45   O21   D    
O10   V1    S    
C29   H17   S    
C6    C20   S    
O12   C44   A    
O11   C43   A    
