data_mof_unit_53781.cif
_audit_creation_date              2012-12-11T21:06:14-0500
_audit_creation_method            fapswitch 2.2
_symmetry_space_group_name_H-M    P1
_symmetry_Int_Tables_number       1
_space_group_crystal_system       monoclinic
_cell_length_a                    36.468787
_cell_length_b                    39.44584
_cell_length_c                    8.395707
_cell_angle_alpha                 90.0
_cell_angle_beta                  93.782703
_cell_angle_gamma                 90.0
_cell_volume                      12051.2647669

loop_
_atom_site_label
_atom_site_type_symbol
_atom_type_description
_atom_site_fract_x
_atom_site_fract_y
_atom_site_fract_z
_atom_type_partial_charge
Ba1   Ba    Ba6+2 0.000060 0.523150 0.844950 1.708603
Ba2   Ba    Ba6+2 0.000060 0.476850 0.344950 1.708606
Ba3   Ba    Ba6+2 0.500060 0.023150 0.844950 1.708601
Ba4   Ba    Ba6+2 0.500060 0.976850 0.344950 1.708604
C1    C     C_3   0.987129 0.691250 0.643918 -0.312521
C2    C     C_2   0.908959 0.634845 0.293316 -0.082645
C3    C     C_R   0.631461 0.814032 0.696015 0.592020
C4    C     C_2   0.091470 0.634612 0.396195 -0.066809
C5    C     C_2   0.091470 0.365388 0.896196 -0.066815
C6    C     C_2   0.591470 0.134612 0.396195 -0.066809
C7    C     C_2   0.591470 0.865388 0.896197 -0.066815
C8    C     C_3   0.058009 0.612668 0.415994 -0.113989
C9    C     C_3   0.058009 0.387331 0.915994 -0.114010
C10   C     C_3   0.558009 0.112668 0.415994 -0.113989
C11   C     C_3   0.558009 0.887331 0.915994 -0.114011
C12   C     C_1   0.081128 0.575258 0.210650 0.016281
C13   C     C_2   0.408959 0.865155 0.793316 -0.082640
C14   C     C_1   0.081128 0.424742 0.710650 0.016280
C15   C     C_1   0.581128 0.075258 0.210650 0.016280
C16   C     C_1   0.581128 0.924742 0.710650 0.016279
C17   C     C_2   0.107020 0.597304 0.176361 -0.098483
C18   C     C_2   0.107020 0.402696 0.676360 -0.098483
C19   C     C_2   0.607020 0.097304 0.176361 -0.098484
C20   C     C_2   0.607020 0.902696 0.676359 -0.098483
C21   C     C_2   0.113504 0.628601 0.275577 0.224322
C22   C     C_2   0.113504 0.371399 0.775576 0.224324
C23   C     C_2   0.613504 0.128601 0.275577 0.224318
C24   C     C_2   0.408959 0.134846 0.293317 -0.082643
C25   C     C_2   0.613504 0.871399 0.775576 0.224321
C26   C     C_R   0.739730 0.283792 0.053557 0.020186
C27   C     C_R   0.739730 0.716208 0.553560 0.020186
C28   C     C_R   0.239730 0.783792 0.053556 0.020186
C29   C     C_R   0.239730 0.216208 0.553555 0.020186
C30   C     C_R   0.777366 0.274140 0.059132 0.050127
C31   C     C_R   0.777366 0.725860 0.559131 0.050127
C32   C     C_R   0.277366 0.774140 0.059132 0.050127
C33   C     C_R   0.277366 0.225860 0.559131 0.050127
C34   C     C_R   0.787948 0.240324 0.099838 0.020664
C35   C     C_3   0.942391 0.387161 0.773788 -0.106066
C36   C     C_R   0.787948 0.759676 0.599834 0.020664
C37   C     C_R   0.287948 0.740324 0.099839 0.020664
C38   C     C_R   0.287948 0.259676 0.599838 0.020664
C39   C     C_3   0.896040 0.522664 0.142807 0.294907
C40   C     C_3   0.896040 0.477336 0.642807 0.294905
C41   C     C_3   0.396040 0.022664 0.142807 0.294906
C42   C     C_3   0.396040 0.977336 0.642807 0.294905
C43   C     C_R   0.730834 0.317828 0.012851 -0.098573
C44   C     C_R   0.730834 0.682172 0.512855 -0.098573
C45   C     C_R   0.230834 0.817828 0.012850 -0.098573
C46   C     C_3   0.942391 0.612840 0.273788 -0.106079
C47   C     C_R   0.230834 0.182172 0.512848 -0.098573
C48   C     C_R   0.852150 0.256154 0.069394 -0.062193
C49   C     C_R   0.852150 0.743846 0.569389 -0.062192
C50   C     C_R   0.352150 0.756154 0.069394 -0.062193
C51   C     C_R   0.352150 0.243846 0.569397 -0.062192
C52   C     C_R   0.269495 0.681840 0.175499 -0.096429
C53   C     C_R   0.269494 0.318160 0.675489 -0.096429
C54   C     C_R   0.769495 0.181840 0.175492 -0.096429
C55   C     C_R   0.769494 0.818161 0.675477 -0.096429
C56   C     C_R   0.242626 0.658330 0.209777 -0.045684
C57   C     C_3   0.442391 0.887161 0.773788 -0.106063
C58   C     C_R   0.242625 0.341670 0.709767 -0.045683
C59   C     C_R   0.742626 0.158330 0.209769 -0.045684
C60   C     C_R   0.742625 0.841671 0.709754 -0.045683
C61   C     C_R   0.825832 0.232200 0.104141 -0.098231
C62   C     C_R   0.825831 0.767800 0.604136 -0.098231
C63   C     C_R   0.325832 0.732200 0.104142 -0.098231
C64   C     C_R   0.325832 0.267800 0.604144 -0.098231
C65   C     C_3   0.862481 0.545643 0.132370 -0.336814
C66   C     C_3   0.862481 0.454357 0.632369 -0.336814
C67   C     C_3   0.362481 0.045643 0.132370 -0.336813
C68   C     C_3   0.442391 0.112840 0.273789 -0.106075
C69   C     C_3   0.362481 0.954357 0.632370 -0.336814
C70   C     C_3   0.104172 0.477028 0.047329 0.379458
C71   C     C_3   0.104172 0.522972 0.547329 0.379455
C72   C     C_3   0.604172 0.977028 0.047329 0.379459
C73   C     C_3   0.604172 0.022972 0.547329 0.379458
C74   C     C_3   0.137569 0.453817 0.061183 0.538874
C75   C     C_3   0.137569 0.546183 0.561183 0.538874
C76   C     C_3   0.637569 0.953817 0.061183 0.538875
C77   C     C_3   0.637569 0.046183 0.561183 0.538876
C78   C     C_3   0.003559 0.658558 0.584899 0.322039
C79   C     C_1   0.919114 0.424501 0.978915 0.035185
C80   C     C_3   0.003568 0.341436 0.084885 0.321988
C81   C     C_3   0.503558 0.158557 0.584901 0.322045
C82   C     C_3   0.503567 0.841436 0.084887 0.321989
C83   C     C_R   0.822206 0.356031 0.947431 0.592161
C84   C     C_R   0.822206 0.643969 0.447433 0.592163
C85   C     C_R   0.322206 0.856031 0.947431 0.592161
C86   C     C_R   0.322206 0.143969 0.447430 0.592162
C87   C     C_1   0.919114 0.575499 0.478915 0.035182
C88   C     C_1   0.419114 0.924501 0.978915 0.035185
C89   C     C_3   0.987130 0.308749 0.143921 -0.312501
C90   C     C_1   0.419114 0.075499 0.478915 0.035182
C91   C     C_2   0.893235 0.402424 0.012963 -0.088447
C92   C     C_2   0.893235 0.597576 0.512963 -0.088453
C93   C     C_2   0.393235 0.902424 0.012963 -0.088447
C94   C     C_2   0.393235 0.097576 0.512962 -0.088454
C95   C     C_2   0.886844 0.371129 0.913681 0.226749
C96   C     C_2   0.886844 0.628871 0.413681 0.226747
C97   C     C_2   0.386844 0.871129 0.913681 0.226748
C98   C     C_2   0.386844 0.128871 0.413681 0.226746
C99   C     C_R   0.804763 0.298595 0.023572 -0.079624
C100  C     C_3   0.487130 0.191250 0.643919 -0.312523
C101  C     C_R   0.804763 0.701405 0.523571 -0.079624
C102  C     C_R   0.304763 0.798595 0.023572 -0.079624
C103  C     C_R   0.304763 0.201405 0.523572 -0.079624
C104  C     C_R   0.794824 0.332218 0.983174 -0.034367
C105  C     C_R   0.794824 0.667781 0.483175 -0.034368
C106  C     C_R   0.294824 0.832218 0.983174 -0.034367
C107  C     C_R   0.294824 0.167782 0.483172 -0.034368
C108  C     C_R   0.757704 0.341341 0.978625 -0.058354
C109  C     C_R   0.757704 0.658659 0.478628 -0.058355
C110  C     C_R   0.257704 0.841340 0.978625 -0.058354
C111  C     C_3   0.487130 0.808749 0.143922 -0.312502
C112  C     C_R   0.257704 0.158659 0.478621 -0.058354
C113  C     C_R   0.842136 0.289435 0.028550 -0.029274
C114  C     C_R   0.842136 0.710565 0.528547 -0.029273
C115  C     C_R   0.342136 0.789435 0.028550 -0.029274
C116  C     C_R   0.342136 0.210565 0.528551 -0.029273
C117  C     C_3   0.996773 0.658671 0.104377 0.322798
C118  C     C_3   0.996775 0.341330 0.604378 0.322808
C119  C     C_3   0.496776 0.158669 0.104373 0.322813
C120  C     C_3   0.496776 0.841331 0.604375 0.322817
C121  C     C_2   0.941770 0.420067 0.863688 -0.267107
C122  C     C_R   0.868882 0.313734 0.992894 0.590933
C123  C     C_2   0.941770 0.579934 0.363688 -0.267110
C124  C     C_2   0.441770 0.920066 0.863688 -0.267109
C125  C     C_2   0.441770 0.079934 0.363689 -0.267113
C126  C     C_2   0.058507 0.579767 0.326001 -0.276134
C127  C     C_2   0.058507 0.420233 0.826002 -0.276127
C128  C     C_2   0.558508 0.079767 0.326001 -0.276137
C129  C     C_2   0.558508 0.920233 0.826002 -0.276128
C130  C     C_R   0.212387 0.759355 0.088713 0.020818
C131  C     C_R   0.212386 0.240645 0.588714 0.020818
C132  C     C_R   0.712387 0.259355 0.088715 0.020818
C133  C     C_R   0.868882 0.686266 0.492892 0.590932
C134  C     C_R   0.712387 0.740644 0.588720 0.020818
C135  C     C_R   0.260603 0.715883 0.134921 0.019228
C136  C     C_R   0.260603 0.284117 0.634917 0.019228
C137  C     C_R   0.760603 0.215883 0.134918 0.019228
C138  C     C_R   0.760602 0.784117 0.634911 0.019228
C139  C     C_R   0.222968 0.725539 0.129409 0.051018
C140  C     C_R   0.222968 0.274461 0.629408 0.051017
C141  C     C_R   0.722968 0.225539 0.129409 0.051017
C142  C     C_R   0.722968 0.774461 0.629408 0.051017
C143  C     C_R   0.174506 0.767487 0.084538 -0.099273
C144  C     C_R   0.368882 0.813734 0.992894 0.590934
C145  C     C_R   0.174506 0.232512 0.584545 -0.099272
C146  C     C_R   0.674506 0.267487 0.084544 -0.099272
C147  C     C_R   0.674506 0.732511 0.584557 -0.099273
C148  C     C_R   0.148190 0.743539 0.119378 -0.061724
C149  C     C_R   0.148190 0.256460 0.619386 -0.061724
C150  C     C_R   0.648190 0.243540 0.119385 -0.061724
C151  C     C_R   0.648190 0.756459 0.619398 -0.061724
C152  C     C_R   0.158203 0.710257 0.160198 -0.027506
C153  C     C_R   0.158203 0.289742 0.660201 -0.027505
C154  C     C_R   0.658203 0.210258 0.160201 -0.027506
C155  C     C_R   0.368882 0.186265 0.492895 0.590933
C156  C     C_R   0.658203 0.789742 0.660207 -0.027505
C157  C     C_R   0.195573 0.701089 0.165042 -0.079952
C158  C     C_R   0.195573 0.298911 0.665042 -0.079952
C159  C     C_R   0.695573 0.201089 0.165042 -0.079952
C160  C     C_R   0.695573 0.798911 0.665041 -0.079952
C161  C     C_R   0.205510 0.667462 0.205398 -0.036246
C162  C     C_R   0.205509 0.332538 0.705393 -0.036246
C163  C     C_R   0.705510 0.167462 0.205394 -0.036247
C164  C     C_R   0.705509 0.832538 0.705386 -0.036246
C165  C     C_3   0.013238 0.691311 0.044940 -0.313271
C166  C     C_2   0.908959 0.365155 0.793316 -0.082641
C167  C     C_3   0.013238 0.308690 0.544941 -0.313266
C168  C     C_3   0.513238 0.191311 0.044939 -0.313278
C169  C     C_3   0.513238 0.808690 0.544942 -0.313275
C170  C     C_R   0.178131 0.643658 0.241284 0.609441
C171  C     C_R   0.178130 0.356342 0.741279 0.609441
C172  C     C_R   0.678131 0.143658 0.241280 0.609443
C173  C     C_R   0.678130 0.856342 0.741273 0.609443
C174  C     C_R   0.131461 0.685968 0.196006 0.592023
C175  C     C_R   0.131461 0.314032 0.696009 0.592020
C176  C     C_R   0.631461 0.185968 0.196009 0.592023
F1    F     F_    0.149749 0.450127 0.219802 -0.660968
F2    F     F_    0.149749 0.549873 0.719802 -0.660967
F3    F     F_    0.649749 0.950127 0.219802 -0.660968
F4    F     F_    0.649749 0.049873 0.719802 -0.660968
H1    H     H_    0.980698 0.641027 0.547503 0.016394
H2    H     H_    0.869968 0.428766 0.678354 0.078989
H3    H     H_    0.336429 0.292590 0.634181 0.070502
H4    H     H_    0.963918 0.437763 0.846370 0.071808
H5    H     H_    0.963919 0.562238 0.346372 0.071810
H6    H     H_    0.463918 0.937763 0.846371 0.071808
H7    H     H_    0.463919 0.062237 0.346372 0.071810
H8    H     H_    0.036323 0.562126 0.343551 0.074874
H9    H     H_    0.036324 0.437874 0.843552 0.074874
H10   H     H_    0.536323 0.062126 0.343551 0.074875
H11   H     H_    0.536323 0.937874 0.843552 0.074875
H12   H     H_    0.019618 0.641148 0.142147 0.016852
H13   H     H_    0.369968 0.071234 0.178354 0.078992
H14   H     H_    0.019620 0.358853 0.642143 0.016850
H15   H     H_    0.519622 0.141146 0.142126 0.016864
H16   H     H_    0.519622 0.858854 0.642128 0.016858
H17   H     H_    0.981141 0.665636 0.208801 -0.040583
H18   H     H_    0.981143 0.334365 0.708809 -0.040604
H19   H     H_    0.481146 0.165633 0.208810 -0.040600
H20   H     H_    0.481147 0.834368 0.708813 -0.040613
H21   H     H_    0.032907 0.685676 0.953246 0.165843
H22   H     H_    0.032908 0.314324 0.453248 0.165838
H23   H     H_    0.532906 0.185678 0.953238 0.165836
H24   H     H_    0.369968 0.928767 0.678354 0.078989
H25   H     H_    0.532908 0.814323 0.453246 0.165833
H26   H     H_    0.991170 0.708348 0.994752 0.096734
H27   H     H_    0.991170 0.291653 0.494751 0.096738
H28   H     H_    0.491169 0.208347 0.994760 0.096737
H29   H     H_    0.491169 0.791654 0.494758 0.096741
H30   H     H_    0.905850 0.519868 0.269407 0.004828
H31   H     H_    0.905849 0.480132 0.769407 0.004827
H32   H     H_    0.405850 0.019868 0.269407 0.004828
H33   H     H_    0.405849 0.980132 0.769407 0.004827
H34   H     H_    0.917711 0.534578 0.074709 0.076430
H35   H     H_    0.851611 0.548036 0.006138 0.133542
H36   H     H_    0.917711 0.465421 0.574710 0.076428
H37   H     H_    0.417711 0.034578 0.074709 0.076431
H38   H     H_    0.417711 0.965422 0.574710 0.076429
H39   H     H_    0.851611 0.451964 0.506137 0.133542
H40   H     H_    0.351611 0.048036 0.006139 0.133542
H41   H     H_    0.351611 0.951964 0.506137 0.133542
H42   H     H_    0.095138 0.479922 0.919932 -0.127751
H43   H     H_    0.095138 0.520078 0.419931 -0.127749
H44   H     H_    0.595138 0.979922 0.919932 -0.127750
H45   H     H_    0.980710 0.358966 0.047429 0.016347
H46   H     H_    0.595138 0.020078 0.419931 -0.127750
H47   H     H_    0.081941 0.465266 0.112682 0.037356
H48   H     H_    0.081941 0.534733 0.612682 0.037356
H49   H     H_    0.581941 0.965266 0.112682 0.037356
H50   H     H_    0.581941 0.034734 0.612681 0.037355
H51   H     H_    0.159984 0.464675 0.993735 0.061002
H52   H     H_    0.159984 0.535324 0.493736 0.061002
H53   H     H_    0.659984 0.964676 0.993735 0.061001
H54   H     H_    0.659984 0.035324 0.493736 0.061001
H55   H     H_    0.130285 0.428507 0.011276 -0.058046
H56   H     H_    0.480697 0.141027 0.547513 0.016402
H57   H     H_    0.130285 0.571493 0.511276 -0.058046
H58   H     H_    0.630285 0.928507 0.011276 -0.058048
H59   H     H_    0.630285 0.071493 0.511276 -0.058047
H60   H     H_    0.019173 0.665440 0.480304 -0.041382
H61   H     H_    0.019191 0.334547 0.980326 -0.041320
H62   H     H_    0.519171 0.165438 0.480301 -0.041385
H63   H     H_    0.519190 0.834548 0.980325 -0.041319
H64   H     H_    0.972239 0.704492 0.542523 0.122150
H65   H     H_    0.972241 0.295505 0.042527 0.122141
H66   H     H_    0.472239 0.204491 0.542523 0.122153
H67   H     H_    0.480709 0.858966 0.047434 0.016350
H68   H     H_    0.472241 0.795505 0.042529 0.122143
H69   H     H_    0.967455 0.685689 0.735685 0.165265
H70   H     H_    0.967453 0.314317 0.235669 0.165286
H71   H     H_    0.467456 0.185690 0.735689 0.165264
H72   H     H_    0.467453 0.814316 0.235673 0.165285
H73   H     H_    0.028143 0.704597 0.146163 0.121967
H74   H     H_    0.028143 0.295403 0.646165 0.121962
H75   H     H_    0.528144 0.204596 0.146162 0.121971
H76   H     H_    0.528143 0.795404 0.646166 0.121966
H77   H     H_    0.876618 0.406764 0.113688 0.101530
H78   H     H_    0.840789 0.534968 0.204530 0.136960
H79   H     H_    0.876618 0.593236 0.613688 0.101533
H80   H     H_    0.376618 0.906764 0.113688 0.101531
H81   H     H_    0.376618 0.093236 0.613686 0.101532
H82   H     H_    0.749123 0.366963 0.948147 0.123532
H83   H     H_    0.749123 0.633037 0.448152 0.123532
H84   H     H_    0.249123 0.866963 0.948148 0.123532
H85   H     H_    0.249123 0.133037 0.448142 0.123532
H86   H     H_    0.095296 0.657309 0.468547 0.090534
H87   H     H_    0.095296 0.342691 0.968548 0.090532
H88   H     H_    0.595296 0.157309 0.468547 0.090537
H89   H     H_    0.840789 0.465033 0.704527 0.136960
H90   H     H_    0.595296 0.842691 0.968550 0.090535
H91   H     H_    0.119648 0.751359 0.114255 0.117237
H92   H     H_    0.119648 0.248640 0.614267 0.117237
H93   H     H_    0.619648 0.251360 0.114265 0.117237
H94   H     H_    0.619648 0.748639 0.614285 0.117238
H95   H     H_    0.163910 0.792282 0.054588 0.068644
H96   H     H_    0.163910 0.207717 0.554600 0.068644
H97   H     H_    0.663910 0.292283 0.054598 0.068644
H98   H     H_    0.663911 0.707716 0.554619 0.068644
H99   H     H_    0.703188 0.327452 0.006055 0.069520
H100  H     H_    0.340789 0.034968 0.204530 0.136960
H101  H     H_    0.703188 0.672548 0.506060 0.069520
H102  H     H_    0.203188 0.827452 0.006056 0.069520
H103  H     H_    0.203187 0.172548 0.506050 0.069520
H104  H     H_    0.905203 0.342458 0.720908 0.091187
H105  H     H_    0.905203 0.657541 0.220908 0.091188
H106  H     H_    0.405203 0.842458 0.720908 0.091187
H107  H     H_    0.405204 0.157542 0.220909 0.091189
H108  H     H_    0.880695 0.248341 0.074632 0.117966
H109  H     H_    0.880695 0.751659 0.574626 0.117967
H110  H     H_    0.380695 0.748341 0.074631 0.117966
H111  H     H_    0.340789 0.965033 0.704528 0.136960
H112  H     H_    0.380695 0.251659 0.574636 0.117966
H113  H     H_    0.297137 0.672207 0.182129 0.072571
H114  H     H_    0.297137 0.327794 0.682114 0.072571
H115  H     H_    0.797137 0.172207 0.182118 0.072571
H116  H     H_    0.797136 0.827794 0.682095 0.072571
H117  H     H_    0.009215 0.708293 0.693893 0.096875
H118  H     H_    0.009211 0.291704 0.193925 0.096862
H119  H     H_    0.509216 0.208293 0.693888 0.096875
H120  H     H_    0.509212 0.791704 0.193923 0.096863
H121  H     H_    0.251204 0.632703 0.240175 0.132025
H122  H     H_    0.869968 0.571233 0.178354 0.078991
H123  H     H_    0.251203 0.367297 0.740161 0.132025
H124  H     H_    0.751204 0.132703 0.240165 0.132025
H125  H     H_    0.751203 0.867298 0.740143 0.132026
H126  H     H_    0.123581 0.592937 0.075476 0.137484
H127  H     H_    0.123580 0.407063 0.575474 0.137485
H128  H     H_    0.623581 0.092937 0.075475 0.137486
H129  H     H_    0.623580 0.907062 0.575472 0.137487
H130  H     H_    0.836430 0.207410 0.134177 0.070502
H131  H     H_    0.836429 0.792590 0.634171 0.070502
H132  H     H_    0.336429 0.707410 0.134176 0.070503
N1    N     N_R   0.858800 0.346599 0.951614 -0.424988
N2    N     N_R   0.858800 0.653401 0.451614 -0.424987
N3    N     N_R   0.358800 0.846599 0.951614 -0.424988
N4    N     N_R   0.358800 0.153401 0.451614 -0.424987
N5    N     N_R   0.141543 0.653104 0.237302 -0.426448
N6    N     N_R   0.141543 0.346896 0.737302 -0.426448
N7    N     N_R   0.641543 0.153104 0.237302 -0.426448
N8    N     N_R   0.641543 0.846896 0.737302 -0.426448
O1    O     O_2   0.072110 0.546320 0.923350 -0.429529
O2    O     O_3   0.973454 0.356163 0.483136 -0.561422
O3    O     O_3   0.473454 0.143837 0.983135 -0.561430
O4    O     O_3   0.473454 0.856163 0.483137 -0.561424
O5    O     O_3   0.958050 0.483830 0.034350 -0.499785
O6    O     O_3   0.958050 0.516170 0.534350 -0.499785
O7    O     O_3   0.458050 0.983830 0.034350 -0.499785
O8    O     O_3   0.458050 0.016170 0.534350 -0.499784
O9    O     O_2   0.813401 0.385046 0.910936 -0.595662
O10   O     O_2   0.813401 0.614953 0.410940 -0.595662
O11   O     O_2   0.313401 0.885046 0.910936 -0.595662
O12   O     O_2   0.072110 0.453680 0.423350 -0.429530
O13   O     O_2   0.313401 0.114954 0.410933 -0.595661
O14   O     O_2   0.099063 0.694042 0.189201 -0.623267
O15   O     O_2   0.099063 0.305957 0.689208 -0.623268
O16   O     O_2   0.599063 0.194043 0.189207 -0.623268
O17   O     O_2   0.599063 0.805956 0.689219 -0.623270
O18   O     O_2   0.901283 0.305668 0.999842 -0.623062
O19   O     O_2   0.901283 0.694332 0.499838 -0.623065
O20   O     O_2   0.401283 0.805668 0.999842 -0.623061
O21   O     O_2   0.401283 0.194332 0.499844 -0.623065
O22   O     O_2   0.186932 0.614640 0.277741 -0.577450
O23   O     O_2   0.572110 0.046320 0.923350 -0.429529
O24   O     O_2   0.186932 0.385360 0.777733 -0.577450
O25   O     O_2   0.686932 0.114640 0.277735 -0.577451
O26   O     O_2   0.686931 0.885361 0.777722 -0.577451
O27   O     O_3   0.042000 0.516250 0.155330 -0.502433
O28   O     O_3   0.042000 0.483750 0.655330 -0.502433
O29   O     O_3   0.542000 0.016250 0.155330 -0.502433
O30   O     O_3   0.542000 0.983750 0.655330 -0.502433
O31   O     O_3   0.012540 0.574900 0.645500 -0.471900
O32   O     O_3   0.012540 0.425100 0.145500 -0.471890
O33   O     O_3   0.512540 0.074900 0.645500 -0.471902
O34   O     O_2   0.572110 0.953680 0.423350 -0.429530
O35   O     O_3   0.512540 0.925100 0.145500 -0.471890
O36   O     O_2   0.079051 0.598109 0.741819 -0.447622
O37   O     O_2   0.079051 0.401891 0.241819 -0.447624
O38   O     O_2   0.579051 0.098109 0.741818 -0.447622
O39   O     O_2   0.579051 0.901891 0.241819 -0.447624
O40   O     O_3   0.114011 0.508708 0.111588 -0.602028
O41   O     O_3   0.114011 0.491292 0.611588 -0.602027
O42   O     O_3   0.614011 0.008708 0.111588 -0.602028
O43   O     O_3   0.614011 0.991292 0.611588 -0.602027
O44   O     O_3   0.026887 0.643790 0.706285 -0.564565
O45   O     O_3   0.886089 0.509065 0.579273 -0.627263
O46   O     O_3   0.026886 0.356210 0.206287 -0.564555
O47   O     O_3   0.526887 0.143790 0.706285 -0.564569
O48   O     O_3   0.526886 0.856210 0.206288 -0.564557
O49   O     O_2   0.928110 0.546600 0.766510 -0.456511
O50   O     O_2   0.928110 0.453400 0.266510 -0.456510
O51   O     O_2   0.428110 0.046600 0.766510 -0.456511
O52   O     O_2   0.428110 0.953400 0.266510 -0.456510
O53   O     O_3   0.987780 0.574950 0.044470 -0.469573
O54   O     O_3   0.987780 0.425050 0.544470 -0.469574
O55   O     O_3   0.487780 0.074950 0.044470 -0.469576
O56   O     O_3   0.886089 0.490935 0.079274 -0.627265
O57   O     O_3   0.487780 0.925050 0.544470 -0.469576
O58   O     O_2   0.921231 0.598174 0.948452 -0.481965
O59   O     O_2   0.921231 0.401826 0.448450 -0.481965
O60   O     O_2   0.421231 0.098174 0.948452 -0.481965
O61   O     O_2   0.421231 0.901826 0.448450 -0.481965
O62   O     O_3   0.386089 0.009065 0.579274 -0.627263
O63   O     O_3   0.386089 0.990935 0.079274 -0.627265
O64   O     O_3   0.973454 0.643837 0.983135 -0.561427
P1    P     P_3+3 0.075650 0.535480 0.098240 1.041824
P2    P     P_3+3 0.955021 0.393016 0.562212 0.967321
P3    P     P_3+3 0.455021 0.106984 0.062213 0.967315
P4    P     P_3+3 0.455021 0.893016 0.562212 0.967319
P5    P     P_3+3 0.045329 0.393101 0.127629 0.977672
P6    P     P_3+3 0.045329 0.606899 0.627628 0.977666
P7    P     P_3+3 0.545329 0.893101 0.127629 0.977671
P8    P     P_3+3 0.545329 0.106898 0.627628 0.977664
P9    P     P_3+3 0.075650 0.464520 0.598240 1.041824
P10   P     P_3+3 0.575650 0.035480 0.098240 1.041824
P11   P     P_3+3 0.575650 0.964520 0.598240 1.041824
P12   P     P_3+3 0.924520 0.535770 0.591580 0.990721
P13   P     P_3+3 0.924520 0.464230 0.091580 0.990722
P14   P     P_3+3 0.424520 0.035770 0.591580 0.990721
P15   P     P_3+3 0.424520 0.964230 0.091580 0.990722
P16   P     P_3+3 0.955021 0.606984 0.062212 0.967317

loop_
_geom_bond_atom_site_label_1
_geom_bond_atom_site_label_2
_ccdc_geom_bond_type
C128  H10   S    
C35   C121  S    
O30   P11   S    
C72   H44   S    
C138  C142  A    
C37   C63   A    
C10   C128  S    
C62   H131  S    
C85   O11   D    
C8    C126  S    
C121  H4    S    
C67   H100  S    
C10   P8    S    
C40   O45   S    
C41   O63   S    
C151  H94   S    
O3    P3    S    
C8    P6    S    
O4    P4    S    
C94   H81   S    
C58   H123  S    
C77   H54   S    
C153  C175  A    
C145  H96   S    
C33   C38   A    
C154  C176  A    
C13   C57   S    
C87   C92   D    
C152  C174  A    
C148  C152  A    
C64   H3    S    
C42   O62   S    
C40   C66   S    
C147  C151  A    
C113  C122  A    
C137  C141  A    
Ba1   O5    S    
C66   H89   S    
C79   P13   S    
C99   C113  A    
C126  H8    S    
C5    C22   D    
C165  H73   S    
C100  H66   S    
C78   H1    S    
C32   C102  A    
C160  C164  A    
C72   O42   S    
O58   P16   D    
C89   H70   S    
C122  O18   D    
O7    P15   S    
C115  C144  A    
C94   C98   S    
C38   C136  A    
C57   P4    S    
C15   C19   D    
C109  H83   S    
C110  H84   S    
O61   P4    D    
C44   H101  S    
C120  O4    S    
C66   H39   S    
C167  H22   S    
C87   C123  D    
C84   C105  A    
O57   P4    S    
Ba2   O27   S    
C69   H24   S    
C26   C132  A    
C27   C44   A    
C17   H126  S    
C101  C114  A    
C112  H85   S    
C156  C160  A    
C103  C116  A    
C82   O48   S    
C82   H67   S    
Ba4   O7    S    
C167  H74   S    
C59   H124  S    
C47   C112  A    
C70   H47   S    
C175  N6    Am   
Ba2   O6    S    
C75   H52   S    
C150  C154  A    
C50   C63   A    
C134  C147  A    
C15   P10   S    
O56   P13   S    
C56   C161  A    
C42   H38   S    
C75   F2    S    
C119  H19   S    
C71   H43   S    
C31   C36   A    
C117  H17   S    
C118  O2    S    
C165  H21   S    
C1    C78   S    
C54   C137  A    
C77   H59   S    
C176  N7    Am   
C12   P1    S    
C85   C106  A    
O36   P6    D    
C124  H6    S    
C80   C89   S    
C75   H57   S    
C71   O41   S    
Ba2   O32   S    
C55   H116  S    
C175  O15   D    
C118  H18   S    
C91   H77   S    
C21   N5    S    
C63   H132  S    
O52   P15   D    
C46   C123  S    
C117  O64   S    
Ba4   P15   S    
C1    H117  S    
C153  C158  A    
C139  C157  A    
C157  C161  A    
C48   C61   A    
C78   O44   S    
C6    C23   D    
C12   C17   D    
C41   C67   S    
C40   H36   S    
C145  C149  A    
C144  N3    Am   
Ba3   O8    S    
Ba3   P10   S    
C17   C21   S    
C28   C32   A    
C119  H15   S    
C172  N7    Am   
C76   F3    S    
O46   P5    S    
C1    H69   S    
C95   N1    S    
C5    C9    S    
C56   H121  S    
C135  C139  A    
O31   P6    S    
C111  H120  S    
C65   H122  S    
C171  O24   D    
C106  C110  A    
C117  H12   S    
C119  C168  S    
O23   P10   D    
C48   C113  A    
C59   C163  A    
C130  C139  A    
C39   C65   S    
C50   C115  A    
C84   N2    Am   
C3    O17   D    
C7    C11   S    
C86   C107  A    
Ba1   O28   S    
C60   H125  S    
O33   P8    S    
C88   C93   D    
C45   H102  S    
Ba2   O12   S    
C26   C30   A    
C70   O40   S    
O64   P16   S    
O44   P6    S    
C89   H118  S    
C55   C138  A    
Ba3   P14   S    
C6    C10   S    
Ba2   P9    S    
C49   C114  A    
C141  C159  A    
C161  C170  A    
C142  C160  A    
C39   O56   S    
C2    C46   S    
C82   C111  S    
C146  H97   S    
C2    C96   D    
C76   H53   S    
C31   C101  A    
O35   P7    S    
C34   C61   A    
C4    C8    S    
Ba1   O31   S    
Ba4   P11   S    
C19   H128  S    
C118  H14   S    
C168  H75   S    
C174  O14   D    
C43   H99   S    
C154  C159  A    
C50   H110  S    
C58   C162  A    
C152  C157  A    
C82   H63   S    
C18   C22   S    
C34   C137  A    
C39   H34   S    
O34   P11   D    
C1    H64   S    
Ba3   Ba4   S    
Ba4   O35   S    
C15   C128  D    
C101  C105  A    
O1    P1    D    
C67   H40   S    
C14   C18   D    
C103  C107  A    
C150  H93   S    
C169  H25   S    
C72   C76   S    
C122  N1    Am   
C52   H113  S    
C30   C99   A    
O45   P12   S    
C16   P11   S    
C127  H9    S    
C81   H56   S    
C41   H37   S    
O40   P1    S    
C70   H42   S    
C88   P15   S    
C28   C130  A    
C71   C75   S    
C134  C142  A    
C165  H26   S    
C92   C96   S    
C73   H50   S    
Ba3   O55   S    
O39   P7    D    
C71   H48   S    
O29   P10   S    
C66   H2    S    
C118  C167  S    
C42   H33   S    
C6    H88   S    
C77   F4    S    
C39   H30   S    
C42   C69   S    
C9    P5    S    
C74   H55   S    
C170  O22   D    
C102  C115  A    
O62   P14   S    
C117  C165  S    
C51   C64   A    
C14   C127  D    
C68   C125  S    
C95   C166  D    
C133  O19   D    
C130  C143  A    
C162  C171  A    
C123  H5    S    
C100  H71   S    
C144  O20   D    
C47   H103  S    
C33   C103  A    
C174  N5    Am   
C13   H106  S    
C90   C94   D    
C91   C95   S    
C164  C173  A    
C40   H31   S    
O27   P1    S    
C87   P12   S    
C20   C25   S    
O54   P2    S    
C80   O46   S    
C158  C162  A    
C111  H72   S    
C107  C112  A    
C173  N8    Am   
C12   C126  D    
C45   C110  A    
C5    H87   S    
O8    P14   S    
C36   C62   A    
C105  C109  A    
C4    C21   D    
Ba3   O30   S    
C32   C37   A    
C24   C68   S    
C79   C121  D    
C51   C116  A    
C168  H23   S    
Ba4   O8    S    
O60   P3    D    
C52   C135  A    
Ba4   O52   S    
C3    C156  A    
C29   C33   A    
C52   C56   A    
O55   P3    S    
C155  O21   D    
C7    H90   S    
C171  N6    Am   
C143  H95   S    
C73   C77   S    
C129  H11   S    
C55   C60   A    
C27   C134  A    
C80   H45   S    
C81   C100  S    
Ba4   O57   S    
Ba1   O6    S    
C100  H119  S    
C27   C31   A    
C147  H98   S    
C172  O25   D    
C72   H49   S    
C3    N8    Am   
C65   H35   S    
C166  H104  S    
C136  C140  A    
C24   H107  S    
C20   H129  S    
C148  H91   S    
Ba4   O34   S    
C65   H78   S    
C29   C47   A    
Ba3   O7    S    
C120  H16   S    
Ba3   O33   S    
C85   N3    Am   
C60   C164  A    
C86   N4    Am   
Ba1   P1    S    
C119  O3    S    
C76   H58   S    
C57   C124  S    
C11   P7    S    
C149  C153  A    
C37   C135  A    
O32   P5    S    
O37   P5    D    
C22   N6    S    
C104  C108  A    
C53   C136  A    
C70   C74   S    
O5    P13   S    
O2    P2    S    
C96   N2    S    
C84   O10   D    
C44   C109  A    
C97   N3    S    
C98   N4    S    
C36   C138  A    
C25   N8    S    
C169  H29   S    
O59   P2    D    
C54   H115  S    
C53   C58   A    
Ba1   O49   S    
O51   P14   D    
C73   H46   S    
Ba2   O5    S    
Ba3   O51   S    
C120  H20   S    
C35   C166  S    
C43   C108  A    
C125  H7    S    
C41   H32   S    
O42   P10   S    
Ba1   Ba2   S    
C46   P16   S    
C13   C97   D    
C93   H80   S    
O28   P9    S    
C14   P9    S    
C83   C104  A    
C16   C20   D    
C74   H51   S    
C116  C155  A    
C4    H86   S    
O63   P15   S    
C99   C104  A    
C19   C23   S    
C29   C131  A    
C114  C133  A    
C132  C141  A    
C2    H105  S    
C83   N1    Am   
O48   P7    S    
Ba1   P12   S    
C38   C64   A    
C48   H108  S    
C88   C124  D    
C49   H109  S    
C89   H65   S    
C67   H13   S    
C9    C127  S    
C28   C45   A    
Ba1   O53   S    
C90   C125  D    
C23   N7    S    
C26   C43   A    
O49   P12   D    
C169  H76   S    
C53   H114  S    
C176  O16   D    
C61   H130  S    
C83   O9    D    
C120  C169  S    
C131  C145  A    
C80   H61   S    
C35   P2    S    
C90   P14   S    
C86   O13   D    
C159  C163  A    
C173  O26   D    
C167  H27   S    
O38   P8    D    
C79   C91   D    
Ba2   O50   S    
O53   P16   S    
C78   H60   S    
Ba2   P13   S    
C49   C62   A    
C18   H127  S    
C51   H112  S    
C131  C140  A    
C92   H79   S    
C81   H62   S    
C16   C129  D    
C133  N2    Am   
C108  H82   S    
C111  H68   S    
C170  N5    Am   
Ba3   O23   S    
C102  C106  A    
C54   C59   A    
C73   O43   S    
O6    P12   S    
C140  C158  A    
C151  C156  A    
C30   C34   A    
O50   P13   D    
C168  H28   S    
C132  C146  A    
C11   C129  S    
O43   P11   S    
C69   H111  S    
C74   F1    S    
C143  C148  A    
Ba4   O29   S    
C69   H41   S    
C149  H92   S    
Ba2   O54   S    
C93   C97   S    
C24   C98   D    
C81   O47   S    
O47   P8    S    
C7    C25   D    
O12   P9    D    
C146  C150  A    
C68   P3    S    
O41   P9    S    
C155  N4    Am   
Ba1   O1    S    
C163  C172  A    
