data_mof_unit_23645.cif
_audit_creation_date              2012-12-10T16:32:42-0500
_audit_creation_method            fapswitch 2.2
_symmetry_space_group_name_H-M    P1
_symmetry_Int_Tables_number       1
_space_group_crystal_system       triclinic
_cell_length_a                    16.982723
_cell_length_b                    16.938764
_cell_length_c                    16.990353
_cell_angle_alpha                 65.991952
_cell_angle_beta                  66.18573
_cell_angle_gamma                 65.282041
_cell_volume                      3891.56661956

loop_
_atom_site_label
_atom_site_type_symbol
_atom_type_description
_atom_site_fract_x
_atom_site_fract_y
_atom_site_fract_z
_atom_type_partial_charge
C1    C     C_R   0.591311 0.032260 0.591047 0.081798
C2    C     C_R   0.821635 0.564428 0.033455 0.945597
C3    C     C_R   0.432939 0.975221 0.176523 0.888903
C4    C     C_R   0.567057 0.024782 0.823478 0.910040
C5    C     C_R   0.563582 0.821402 0.035383 0.888245
C6    C     C_R   0.435486 0.178480 0.966628 0.935608
C7    C     C_R   0.032051 0.564515 0.821947 0.914815
C8    C     C_R   0.973713 0.433513 0.176917 0.906821
C9    C     C_R   0.822904 0.027174 0.566376 0.934038
C10   C     C_R   0.177095 0.972827 0.433620 0.950516
C11   C     C_R   0.544568 0.018389 0.542303 0.137398
C12   C     C_R   0.408785 0.967376 0.409045 0.082132
C13   C     C_R   0.455545 0.981157 0.457838 0.138523
C14   C     C_R   0.997126 0.549670 0.551354 0.136614
C15   C     C_R   0.963651 0.460388 0.463739 0.136086
C16   C     C_R   0.544115 0.545068 0.015386 0.133858
C17   C     C_R   0.454311 0.457269 0.982898 0.133469
C18   C     C_R   0.592970 0.959690 0.487498 -0.177791
C19   C     C_R   0.407145 0.039840 0.512655 -0.176894
C20   C     C_R   0.036922 0.455809 0.563631 -0.184520
C21   C     C_R   0.922936 0.554199 0.451924 -0.183759
C22   C     C_R   0.451560 0.555018 0.057804 -0.179096
C23   C     C_R   0.017204 0.595816 0.596349 0.079091
C24   C     C_R   0.546776 0.447276 0.940475 -0.176902
C25   C     C_R   0.549059 0.941383 0.445703 -0.185094
C26   C     C_R   0.451054 0.058151 0.554443 -0.184869
C27   C     C_R   0.407257 0.511787 0.041771 -0.180362
C28   C     C_R   0.591000 0.490793 0.956191 -0.179649
C29   C     C_R   0.020387 0.411873 0.520595 -0.180580
C30   C     C_R   0.939198 0.598283 0.495505 -0.182016
C31   C     C_R   0.551669 0.032510 0.681019 -0.254085
C32   C     C_R   0.448398 0.967231 0.319044 -0.261091
C33   C     C_R   0.025465 0.683232 0.554245 -0.272755
C34   C     C_R   0.953832 0.412916 0.412641 0.082576
C35   C     C_R   0.950936 0.323355 0.451842 -0.300691
C36   C     C_R   0.681182 0.551134 0.034829 -0.289574
C37   C     C_R   0.319277 0.452115 0.959147 -0.240966
C38   C     C_R   0.320501 0.961966 0.449215 -0.291056
C39   C     C_R   0.679568 0.037746 0.550843 -0.298571
C40   C     C_R   0.448289 0.319997 0.964413 -0.294624
C41   C     C_R   0.548940 0.679892 0.040070 -0.252527
C42   C     C_R   0.957052 0.451952 0.321496 -0.252821
C43   C     C_R   0.024049 0.554417 0.684270 -0.279977
C44   C     C_R   0.604869 0.023908 0.731681 -0.167838
C45   C     C_R   0.591088 0.591351 0.032823 0.078395
C46   C     C_R   0.395138 0.976060 0.268329 -0.165846
C47   C     C_R   0.044358 0.725609 0.598291 -0.118394
C48   C     C_R   0.966822 0.270852 0.397337 -0.105025
C49   C     C_R   0.724859 0.596610 0.050014 -0.100596
C50   C     C_R   0.275718 0.405691 0.945026 -0.175937
C51   C     C_R   0.269472 0.971437 0.396025 -0.110070
C52   C     C_R   0.730537 0.028517 0.603981 -0.105140
C53   C     C_R   0.403190 0.275680 0.949554 -0.100951
C54   C     C_R   0.594682 0.723763 0.054763 -0.178175
C55   C     C_R   0.971690 0.396955 0.269628 -0.170517
C56   C     C_R   0.407722 0.410364 0.966034 0.074797
C57   C     C_R   0.043569 0.598002 0.726549 -0.121660
C58   C     C_R   0.696655 0.008082 0.695672 0.369609
C59   C     C_R   0.303326 0.992035 0.304322 0.369888
C60   C     C_R   0.062998 0.678932 0.679909 0.361056
C61   C     C_R   0.990454 0.304594 0.305647 0.369578
C62   C     C_R   0.677059 0.676204 0.073442 0.375614
C63   C     C_R   0.323428 0.323218 0.926403 0.376129
C64   C     C_R   0.971363 0.177422 0.434093 0.940141
C65   C     C_R   0.032619 0.821585 0.564502 0.921360
C66   C     C_R   0.178465 0.436556 0.964416 0.891568
H1    H     H_    0.411892 0.104229 0.595486 0.135616
H2    H     H_    0.413539 0.595215 0.104656 0.137037
H3    H     H_    0.878426 0.593482 0.409145 0.134566
H4    H     H_    0.082980 0.416427 0.604826 0.137036
H5    H     H_    0.481680 0.034059 0.712847 0.173176
H6    H     H_    0.518414 0.965588 0.287241 0.171182
H7    H     H_    0.015440 0.718923 0.488127 0.171075
H8    H     H_    0.941114 0.293362 0.523578 0.173106
H9    H     H_    0.717816 0.485308 0.023022 0.173897
H10   H     H_    0.283442 0.519341 0.967758 0.174005
H11   H     H_    0.290467 0.954724 0.520483 0.176837
H12   H     H_    0.588220 0.895317 0.404646 0.132731
H13   H     H_    0.709624 0.044879 0.479596 0.174083
H14   H     H_    0.512846 0.283227 0.978980 0.177564
H15   H     H_    0.483018 0.716353 0.028556 0.174392
H16   H     H_    0.953392 0.522806 0.290026 0.171736
H17   H     H_    0.010022 0.490215 0.721040 0.173202
H18   H     H_    0.736034 0.916965 0.797780 0.333174
H19   H     H_    0.264090 0.083297 0.202175 0.335635
H20   H     H_    0.044293 0.750978 0.751552 0.357631
H21   H     H_    0.085157 0.267763 0.204121 0.334083
H22   H     H_    0.665242 0.744726 0.147293 0.332539
H23   H     H_    0.905905 0.670353 0.485828 0.131789
H24   H     H_    0.254522 0.334762 0.853035 0.333885
H25   H     H_    0.054761 0.340005 0.529549 0.138492
H26   H     H_    0.661720 0.482996 0.920619 0.134361
H27   H     H_    0.336417 0.519716 0.076926 0.134911
H28   H     H_    0.335381 0.073389 0.521676 0.137353
H29   H     H_    0.664736 0.926148 0.478476 0.136115
H30   H     H_    0.584731 0.406728 0.893922 0.139131
O1    O     O_R   0.982940 0.138950 0.510160 -0.663484
O2    O     O_R   0.982940 0.510160 0.138950 -0.638152
O3    O     O_R   0.861050 0.017060 0.489840 -0.663326
O4    O     O_R   0.138950 0.982940 0.510160 -0.656535
O5    O     O_R   0.867700 0.025880 0.612340 -0.561925
O6    O     O_R   0.132300 0.974120 0.387660 -0.553295
O7    O     O_R   0.025880 0.612340 0.867700 -0.612245
O8    O     O_R   0.974120 0.387660 0.132300 -0.593515
O9    O     O_R   0.612340 0.867700 0.025880 -0.604147
O10   O     O_R   0.387660 0.132300 0.974120 -0.563409
O11   O     O_R   0.387660 0.974120 0.132300 -0.596622
O12   O     O_R   0.017060 0.861050 0.489840 -0.654134
O13   O     O_R   0.612340 0.025880 0.867700 -0.594270
O14   O     O_R   0.132300 0.387660 0.974120 -0.605431
O15   O     O_R   0.867700 0.612340 0.025880 -0.563276
O16   O     O_R   0.974120 0.132300 0.387660 -0.553945
O17   O     O_R   0.025880 0.867700 0.612340 -0.604279
O18   O     O_3   0.754639 0.968784 0.749029 -0.729962
O19   O     O_3   0.245307 0.031591 0.250968 -0.712757
O20   O     O_3   0.097314 0.713672 0.715167 -0.741395
O21   O     O_3   0.035134 0.246030 0.252575 -0.715317
O22   O     O_3   0.714914 0.709103 0.107246 -0.742521
O23   O     O_R   0.138950 0.510160 0.982940 -0.635507
O24   O     O_3   0.290576 0.284992 0.892928 -0.739350
O25   O     O_R   0.861050 0.489840 0.017060 -0.657187
O26   O     O_R   0.510160 0.982940 0.138950 -0.646292
O27   O     O_R   0.489840 0.017060 0.861050 -0.636599
O28   O     O_R   0.489840 0.861050 0.017060 -0.637730
O29   O     O_R   0.510160 0.138950 0.982940 -0.656398
O30   O     O_R   0.017060 0.489840 0.861050 -0.651098
Zn1   Zn    Zn3+2 0.004880 0.004880 0.583590 0.992324
Zn2   Zn    Zn3+2 0.995120 0.995120 0.416410 1.017684
Zn3   Zn    Zn3+2 0.004880 0.583590 0.004880 0.994993
Zn4   Zn    Zn3+2 0.995120 0.416410 0.995120 0.986494
Zn5   Zn    Zn3+2 0.583590 0.004880 0.004880 0.982384
Zn6   Zn    Zn3+2 0.416410 0.995120 0.995120 1.006042

loop_
_geom_bond_atom_site_label_1
_geom_bond_atom_site_label_2
_ccdc_geom_bond_type
C16   C28   A    
C4    O13   A    
C35   H8    S    
C50   C63   A    
O27   Zn6   S    
O4    Zn1   S    
C43   H17   S    
C34   C42   A    
O25   Zn4   S    
O1    Zn1   S    
C20   H4    S    
C11   C18   A    
C5    O9    A    
O10   Zn6   S    
C9    C52   S    
C5    O28   A    
C26   H1    S    
C2    C49   S    
H21   O21   S    
O6    Zn2   S    
C24   H30   S    
C46   C59   A    
C48   C64   S    
C8    O8    A    
O30   Zn4   S    
C1    C31   A    
C23   C43   A    
O28   Zn6   S    
H20   O20   S    
C34   C35   A    
C19   C26   A    
C8    O2    A    
O5    Zn1   S    
C47   C60   A    
C37   C56   A    
O15   Zn3   S    
C44   C58   A    
C23   C33   A    
C42   H16   S    
O13   Zn5   S    
H18   O18   S    
C40   H14   S    
C65   O12   A    
C3    O26   A    
C31   H5    S    
C39   C52   A    
C9    O3    A    
C9    O5    A    
C7    O7    A    
C12   C32   A    
C18   H29   S    
C13   C25   A    
C18   C25   A    
C32   C46   A    
C14   C30   A    
C30   H23   S    
C35   C48   A    
C8    C55   S    
C15   C29   A    
C20   C29   A    
C2    O15   A    
C17   C24   A    
C62   O22   S    
C31   C44   A    
C13   C19   A    
C61   O21   S    
C25   H12   S    
C17   C27   A    
C14   C20   A    
C5    C54   S    
H19   O19   S    
O9    Zn5   S    
C1    C39   A    
C57   C60   A    
C38   C51   A    
C4    C44   S    
C11   C26   A    
C3    O11   A    
C66   O14   A    
C4    O27   A    
C21   H3    S    
H24   O24   S    
C14   C23   S    
C36   H9    S    
C42   C55   A    
O7    Zn3   S    
O29   Zn5   S    
C10   O6    A    
C41   H15   S    
C6    O10   A    
C36   C45   A    
C28   H26   S    
C40   C56   A    
O12   Zn2   S    
C10   O4    A    
C50   C66   S    
C17   C56   S    
C22   H2    S    
C19   H28   S    
C52   C58   A    
C33   H7    S    
C64   O1    A    
C37   H10   S    
C66   O23   A    
C33   C47   A    
C27   H27   S    
C51   C59   A    
C6    C53   S    
H22   O22   S    
O26   Zn5   S    
C29   H25   S    
C2    O25   A    
C16   C22   A    
C49   C62   A    
C15   C34   S    
C65   O17   A    
C24   C28   A    
C6    O29   A    
O11   Zn6   S    
C16   C45   S    
O3    Zn2   S    
O17   Zn1   S    
C38   H11   S    
C54   C62   A    
C21   C30   A    
C3    C46   S    
C22   C27   A    
C10   C51   S    
C63   O24   S    
C53   C63   A    
C48   C61   A    
C55   C61   A    
O2    Zn3   S    
C37   C50   A    
O23   Zn3   S    
C47   C65   S    
O14   Zn4   S    
C7    O30   A    
C12   C38   A    
C41   C54   A    
O16   Zn2   S    
C64   O16   A    
C60   O20   S    
C43   C57   A    
C15   C21   A    
C12   C13   S    
C59   O19   S    
C40   C53   A    
C58   O18   S    
C41   C45   A    
O8    Zn4   S    
C1    C11   S    
C7    C57   S    
C36   C49   A    
C39   H13   S    
C32   H6    S    
