data_mof_unit_18431.cif
_audit_creation_date              2012-12-11T14:08:23-0500
_audit_creation_method            fapswitch 2.2
_symmetry_space_group_name_H-M    P1
_symmetry_Int_Tables_number       1
_space_group_crystal_system       triclinic
_cell_length_a                    10.915713
_cell_length_b                    10.95868
_cell_length_c                    18.728485
_cell_angle_alpha                 90.872506
_cell_angle_beta                  90.615498
_cell_angle_gamma                 60.288338
_cell_volume                      1945.56101089

loop_
_atom_site_label
_atom_site_type_symbol
_atom_type_description
_atom_site_fract_x
_atom_site_fract_y
_atom_site_fract_z
_atom_type_partial_charge
C1    C     C_R   0.230725 0.649375 0.605713 0.544699
C2    C     C_3   0.654622 0.603946 0.797762 -0.086331
C3    C     C_3   0.732061 0.691648 0.806423 0.014410
C4    C     C_3   0.690234 0.659167 0.670600 0.045193
C5    C     C_3   0.845283 0.634248 0.680935 -0.096369
C6    C     C_3   0.663992 0.560027 0.719474 -0.220109
C7    C     C_2   0.678620 0.155868 0.670126 -0.120502
C8    C     C_2   0.687461 0.164026 0.827364 -0.094801
C9    C     C_2   0.799008 0.129070 0.785100 -0.181838
C10   C     C_2   0.779673 0.163138 0.708541 -0.187779
C11   C     C_2   0.160187 0.681101 0.673364 -0.106478
C12   C     C_R   0.659054 0.626983 0.598140 0.531668
C13   C     C_2   0.232387 0.633113 0.860589 -0.087063
C14   C     C_2   0.192741 0.696771 0.798229 -0.191109
C15   C     C_2   0.235223 0.616813 0.731490 -0.024520
C16   C     C_2   0.649455 0.647872 0.317769 -0.075914
C17   C     C_2   0.635502 0.666653 0.159907 -0.095802
C18   C     C_2   0.710920 0.547602 0.195704 -0.157216
C19   C     C_2   0.695656 0.537756 0.272164 -0.122118
C20   C     C_2   0.595183 0.260581 0.314238 -0.068079
C21   C     C_2   0.631440 0.197757 0.164364 -0.123170
C22   C     C_2   0.541696 0.183400 0.206297 -0.153981
C23   C     C_R   0.629037 0.227587 0.601843 0.575232
C24   C     C_2   0.495148 0.255368 0.273273 -0.014464
C25   C     C_2   0.108155 0.685679 0.349606 -0.076807
C26   C     C_2   0.131611 0.688526 0.188438 0.009258
C27   C     C_2   0.033287 0.784212 0.233925 -0.113716
C28   C     C_2   0.060041 0.799493 0.309219 0.007283
C29   C     C_R   0.703314 0.100898 0.897240 0.561955
C30   C     C_R   0.756398 0.710774 0.883160 0.551804
C31   C     C_R   0.134802 0.696740 0.918162 0.546670
C32   C     C_R   0.673281 0.112926 0.101437 0.556945
C33   C     C_R   0.692586 0.688970 0.094762 0.569434
C34   C     C_R   0.210072 0.653859 0.407011 0.566457
C35   C     C_R   0.092074 0.711384 0.114039 0.506563
C36   C     C_R   0.641088 0.621112 0.392730 0.543766
C37   C     C_R   0.576905 0.297261 0.388536 0.586037
C38   C     C_3   0.631421 0.837201 0.770904 -0.282199
C39   C     C_3   0.588933 0.813741 0.694595 -0.272307
C40   C     C_3   0.875973 0.625766 0.763475 -0.075398
Cr1   Cr    Cr6+3 0.393010 0.398050 0.501480 1.002486
Cr2   Cr    Cr6+3 0.398820 0.707980 0.501630 1.009707
Cr3   Cr    Cr6+3 0.708140 0.393940 0.496850 0.981024
Cr4   Cr    Cr6+3 0.937950 0.938450 0.008940 1.030092
Cr5   Cr    Cr6+3 0.626180 0.937030 0.994750 1.030722
Cr6   Cr    Cr6+3 0.937790 0.625760 0.001410 1.019431
H1    H     H_    0.685208 0.900650 0.768161 0.115141
H2    H     H_    0.749835 0.449871 0.711407 0.169542
H3    H     H_    0.905683 0.073284 0.806310 0.161751
H4    H     H_    0.846168 0.199068 0.684591 0.168804
H5    H     H_    0.581340 0.221316 0.805769 0.133639
H6    H     H_    0.617028 0.113940 0.693881 0.129987
H7    H     H_    0.108779 0.806144 0.796531 0.137336
H8    H     H_    0.307279 0.521475 0.864133 0.117872
H9    H     H_    0.533378 0.899813 0.802388 0.164357
H10   H     H_    0.067381 0.784877 0.678330 0.067550
H11   H     H_    0.796483 0.455958 0.169868 0.142501
H12   H     H_    0.735383 0.432136 0.292152 0.137562
H13   H     H_    0.544027 0.755687 0.183820 0.114651
H14   H     H_    0.608389 0.754911 0.299826 0.082140
H15   H     H_    0.504185 0.110655 0.192863 0.154056
H16   H     H_    0.675105 0.265572 0.177183 0.096456
H17   H     H_    0.700881 0.223082 0.293932 0.064043
H18   H     H_    0.930309 0.861820 0.213488 0.116934
H19   H     H_    0.478048 0.835039 0.695112 0.156817
H20   H     H_    0.095635 0.599229 0.330151 0.073747
H21   H     H_    0.593836 0.888682 0.656900 0.120984
H22   H     H_    0.922744 0.694412 0.774352 0.054039
H23   H     H_    0.842721 0.732316 0.663308 0.103032
H24   H     H_    0.540752 0.675893 0.809876 0.155097
H25   H     H_    0.563560 0.562881 0.704642 0.103496
O1    O     O_R   0.507110 0.256280 0.580300 -0.465841
O2    O     O_R   0.524640 0.695370 0.425100 -0.487604
O3    O     O_R   0.735890 0.504390 0.415980 -0.542366
O4    O     O_R   0.690560 0.277820 0.422350 -0.516889
O5    O     O_3   0.499990 0.499990 0.499980 -0.258613
O6    O     O_R   0.089190 0.825870 0.932320 -0.505984
O7    O     O_R   0.819070 0.053960 0.931440 -0.490195
O8    O     O_R   0.607070 0.076440 0.916460 -0.523974
O9    O     O_R   0.647110 0.806550 0.917690 -0.492404
O10   O     O_R   0.837080 0.593860 0.915300 -0.504098
O11   O     O_R   0.064770 0.636080 0.932550 -0.537571
O12   O     O_R   0.280830 0.527190 0.577940 -0.467098
O13   O     O_R   0.068250 0.829200 0.092940 -0.510143
O14   O     O_R   0.799650 0.057040 0.080330 -0.498680
O15   O     O_R   0.586130 0.079760 0.077080 -0.520276
O16   O     O_R   0.627700 0.809630 0.066580 -0.495041
O17   O     O_R   0.816140 0.597180 0.075920 -0.503387
O18   O     O_R   0.045360 0.639170 0.081440 -0.510035
O19   O     O_3   0.833980 0.833750 0.001700 -0.272796
O20   O     O_R   0.261360 0.738990 0.584270 -0.526292
O21   O     O_R   0.532590 0.694780 0.574370 -0.501112
O22   O     O_R   0.744470 0.503750 0.577000 -0.531451
O23   O     O_R   0.698520 0.277230 0.571620 -0.503172
O24   O     O_R   0.498530 0.256920 0.419280 -0.536568
O25   O     O_R   0.272880 0.527780 0.428680 -0.546274
O26   O     O_R   0.252780 0.739630 0.423250 -0.500529
C41   C     C_2   0.987298 0.481476 0.789170 0.231736
H26   H     H_    0.066157 0.473399 0.827399 0.152607
O27   O     O_2   0.990735 0.373848 0.768248 -0.565564
C42   C     C_3   0.966933 0.516995 0.635138 -0.219475
C43   C     C_3   0.970734 0.561651 0.557405 -0.289227
C44   C     C_3   0.058980 0.434277 0.509357 -0.389713
H27   H     H_    0.168238 0.372751 0.530323 0.178672
H28   H     H_    0.011149 0.365428 0.506275 0.150838
H29   H     H_    0.062531 0.469687 0.454585 0.131581
H30   H     H_    0.864720 0.622873 0.533301 0.171636
H31   H     H_    0.014247 0.633609 0.556546 0.139604
H32   H     H_    0.070067 0.490783 0.659368 0.197182
H33   H     H_    0.962371 0.418141 0.636345 0.216129
C45   C     C_2   0.358080 0.472305 0.729788 0.233493
H34   H     H_    0.453774 0.449308 0.758419 0.099056
O28   O     O_2   0.348458 0.376719 0.701127 -0.498696
C46   C     C_3   0.342972 0.305513 0.295566 -0.227377
C47   C     C_3   0.246900 0.298797 0.236037 -0.323466
C48   C     C_3   0.090349 0.381254 0.255281 -0.450405
H35   H     H_    0.073905 0.379225 0.313531 0.145184
H36   H     H_    0.043757 0.491940 0.238154 0.161225
H37   H     H_    0.033309 0.334709 0.226789 0.147831
H38   H     H_    0.261691 0.340771 0.185191 0.174212
H39   H     H_    0.275944 0.187215 0.226803 0.154329
H40   H     H_    0.340315 0.242310 0.340477 0.165162
H41   H     H_    0.299187 0.414916 0.312947 0.197180
C49   C     C_3   0.024848 0.942311 0.338655 -0.215021
C50   C     C_3   0.132908 0.984408 0.315520 -0.258879
C51   C     C_3   0.121519 0.105000 0.361984 -0.458730
H42   H     H_    0.015732 0.199433 0.355687 0.157543
H43   H     H_    0.139074 0.074552 0.419070 0.153800
H44   H     H_    0.203740 0.130072 0.345969 0.137163
H45   H     H_    0.241952 0.894280 0.320116 0.227331
H46   H     H_    0.114304 0.017145 0.258719 0.157031
H47   H     H_    0.918716 0.021382 0.319221 0.122018
H48   H     H_    0.017030 0.943915 0.397858 0.159187
C52   C     C_2   0.283845 0.596592 0.204531 0.189201
H49   H     H_    0.348364 0.512111 0.167546 0.108193
O29   O     O_2   0.340764 0.618208 0.255759 -0.524673
C53   C     C_2   0.699590 0.478876 0.845902 0.247348
H50   H     H_    0.803559 0.387613 0.842130 0.184375
O30   O     O_2   0.617585 0.479021 0.889796 -0.525528

loop_
_geom_bond_atom_site_label_1
_geom_bond_atom_site_label_2
_ccdc_geom_bond_type
C7    C10   D    
C24   C46   S    
C42   C43   S    
C47   H39   S    
C45   H34   S    
C1    C11   S    
C34   O26   A    
C46   C47   S    
C45   O28   D    
Cr6   O18   S    
C25   C28   D    
C53   O30   D    
C37   O24   A    
C26   C27   D    
C51   H42   S    
C31   O11   A    
C6    H2    S    
C49   H48   S    
C8    C29   S    
Cr4   O6    S    
Cr5   O16   S    
C33   O17   A    
C34   O25   A    
C7    H6    S    
Cr2   O20   S    
C40   C41   S    
C38   C39   S    
Cr1   O25   S    
C42   H32   S    
C47   C48   S    
Cr1   O12   S    
Cr3   O23   S    
C48   H35   S    
C49   H47   S    
C18   C19   S    
C16   H14   S    
C5    H23   S    
Cr6   O11   S    
C11   C15   D    
C50   H45   S    
C29   O7    A    
C20   C24   D    
C3    C38   S    
C8    C9    D    
C43   H31   S    
C4    C12   S    
C9    C10   S    
C25   C34   S    
C30   O9    A    
Cr3   O3    S    
C37   O4    A    
C1    O20   A    
C13   C14   D    
C39   H19   S    
C2    C6    S    
C17   C33   S    
C12   O21   A    
C31   O6    A    
Cr6   O17   S    
C19   H12   S    
Cr3   O4    S    
C6    H25   S    
C21   C32   S    
C5    C42   S    
C38   H9    S    
C15   C45   S    
C9    H3    S    
C44   H28   S    
C36   O2    A    
Cr2   O26   S    
C52   O29   D    
C51   H44   S    
C42   H33   S    
C44   H29   S    
C3    C30   S    
C26   C52   S    
Cr6   O10   S    
C50   H46   S    
C18   H11   S    
C29   O8    A    
C4    C39   S    
C32   O15   A    
C17   C18   D    
C21   H16   S    
C43   H30   S    
Cr5   O8    S    
Cr5   O19   S    
C8    H5    S    
C38   H1    S    
C36   O3    A    
C17   H13   S    
Cr1   O1    S    
C46   H41   S    
C35   O18   A    
C4    C6    S    
C3    C40   S    
C41   H26   S    
C41   O27   D    
C50   C51   S    
C22   C24   S    
C12   O22   A    
Cr4   O14   S    
C10   H4    S    
C44   H27   S    
Cr4   O19   S    
C13   H8    S    
Cr3   O5    S    
Cr2   O2    S    
C51   H43   S    
C2    C53   S    
C39   H21   S    
C23   O1    A    
C13   C31   S    
C25   H20   S    
C4    C5    S    
Cr4   O13   S    
C35   O13   A    
C28   C49   S    
C52   H49   S    
Cr6   O19   S    
C1    O12   A    
C53   H50   S    
Cr2   O5    S    
C48   H37   S    
C30   O10   A    
Cr4   O7    S    
C2    C3    S    
C33   O16   A    
C2    H24   S    
C16   C36   S    
Cr1   O5    S    
C20   C37   S    
Cr1   O24   S    
C20   H17   S    
C16   C19   D    
C7    C23   S    
C32   O14   A    
Cr3   O22   S    
C48   H36   S    
Cr5   O15   S    
Cr5   O9    S    
Cr2   O21   S    
C43   C44   S    
C27   H18   S    
C46   H40   S    
C23   O23   A    
C26   C35   S    
C14   H7    S    
C47   H38   S    
C40   H22   S    
C5    C40   S    
C27   C28   S    
C14   C15   S    
C21   C22   D    
C11   H10   S    
C49   C50   S    
C22   H15   S    
