data_mof_unit_36984.cif
_audit_creation_date              2012-12-10T20:42:43-0500
_audit_creation_method            fapswitch 2.2
_symmetry_space_group_name_H-M    P1
_symmetry_Int_Tables_number       1
_space_group_crystal_system       triclinic
_cell_length_a                    8.906746
_cell_length_b                    10.692392
_cell_length_c                    9.903957
_cell_angle_alpha                 89.319015
_cell_angle_beta                  90.44077
_cell_angle_gamma                 90.405566
_cell_volume                      943.080046151

loop_
_atom_site_label
_atom_site_type_symbol
_atom_type_description
_atom_site_fract_x
_atom_site_fract_y
_atom_site_fract_z
_atom_type_partial_charge
C1    C     C_R   0.505300 0.259853 0.500455 0.863160
C2    C     C_R   0.375681 0.462256 0.928786 0.166955
C3    C     C_3   0.299089 0.338337 0.924689 -0.499626
C4    C     C_R   0.218833 0.499876 0.499666 0.927428
C5    C     C_3   0.299967 0.337703 0.078230 -0.482348
C6    C     C_R   0.506189 0.739876 0.499271 0.883177
C7    C     C_R   0.781178 0.500062 0.500340 0.943470
C8    C     C_1   0.065427 0.499909 0.499554 -0.187159
C9    C     C_1   0.934580 0.499983 0.500497 -0.161739
C10   C     C_R   0.549515 0.061774 0.620462 0.133438
C11   C     C_R   0.531758 0.128393 0.499786 -0.103702
C12   C     C_R   0.547244 0.936843 0.375458 -0.220845
C13   C     C_R   0.546384 0.066208 0.376335 -0.218850
C14   C     C_R   0.533676 0.871043 0.498037 -0.110369
C15   C     C_R   0.550477 0.933972 0.619441 0.176913
C16   C     C_3   0.462501 0.922709 0.746730 -0.439431
C17   C     C_3   0.460829 0.064144 0.747727 -0.519890
C18   C     C_R   0.375932 0.461920 0.070737 0.217787
C19   C     C_R   0.613216 0.554625 0.072906 -0.192865
C20   C     C_R   0.612474 0.556795 0.929487 0.398371
Cl1   Cl    Cl    0.756773 0.640918 0.849377 -0.623362
H1    H     H_    0.545516 0.116059 0.280485 0.172253
H2    H     H_    0.705155 0.597476 0.127864 0.188023
H3    H     H_    0.184593 0.344240 0.879723 0.220125
H4    H     H_    0.371954 0.266304 0.881925 0.208533
H5    H     H_    0.185806 0.343835 0.122104 0.211991
H6    H     H_    0.372704 0.264037 0.123587 0.208086
H7    H     H_    0.546460 0.889584 0.279296 0.180547
H8    H     H_    0.349384 0.880283 0.731138 0.207950
H9    H     H_    0.529515 0.881128 0.830897 0.232928
H10   H     H_    0.346489 0.103096 0.731997 0.208432
H11   H     H_    0.527224 0.103444 0.832909 0.209218
N1    N     N_R   0.499010 0.499140 0.142800 -0.133787
N2    N     N_R   0.499010 0.499180 0.857150 -0.143900
O1    O     O_R   0.500020 0.316790 0.614690 -0.621315
O2    O     O_R   0.500000 0.316760 0.385350 -0.626367
O3    O     O_R   0.285350 0.500020 0.614650 -0.609060
O4    O     O_R   0.285340 0.499980 0.385310 -0.612339
O5    O     O_R   0.500000 0.683240 0.614650 -0.587585
O6    O     O_R   0.499980 0.683210 0.385310 -0.626112
O7    O     O_R   0.714660 0.500020 0.614690 -0.552688
O8    O     O_R   0.714650 0.499980 0.385350 -0.631559
Zn1   Zn    Zn3+2 0.500010 0.500020 0.653130 0.997265
Zn2   Zn    Zn3+2 0.499990 0.499980 0.346870 0.948852

loop_
_geom_bond_atom_site_label_1
_geom_bond_atom_site_label_2
_ccdc_geom_bond_type
O3    Zn1   S    
C19   H2    S    
O4    Zn2   S    
C2    C18   A    
C11   C13   A    
C19   C20   A    
C1    C11   S    
C3    H4    S    
C4    C8    S    
C20   N2    A    
C2    N2    A    
C2    C3    S    
C16   H8    S    
C12   C13   A    
O7    Zn1   S    
C3    H3    S    
O8    Zn2   S    
C12   H7    S    
C12   C14   A    
C13   H1    S    
C10   C15   A    
C7    O7    A    
C14   C15   A    
C17   H10   S    
C18   N1    A    
C6    O6    A    
O2    Zn2   S    
C6    C14   S    
C10   C11   A    
C10   C17   S    
C16   H9    S    
C15   C16   S    
O6    Zn2   S    
O1    Zn1   S    
C4    O3    A    
C1    O1    A    
C19   N1    A    
C7    O8    A    
C7    C9    S    
C17   H11   S    
C6    O5    A    
C8    C9    T    
O5    Zn1   S    
C5    C18   S    
C20   Cl1   S    
C5    H6    S    
N1    Zn2   S    
N2    Zn1   S    
C5    H5    S    
C1    O2    A    
C4    O4    A    
C16   C17   S    
C3    C5    S    
