data_mof_unit_21050.cif
_audit_creation_date              2013-03-05T15:51:23-0500
_audit_creation_method            fapswitch 2.2
_symmetry_space_group_name_H-M    P1
_symmetry_Int_Tables_number       1
_space_group_crystal_system       triclinic
_cell_length_a                    10.857198
_cell_length_b                    10.85959
_cell_length_c                    9.611577
_cell_angle_alpha                 90.001424
_cell_angle_beta                  89.912802
_cell_angle_gamma                 93.039136
_cell_volume                      1131.65511561

loop_
_atom_site_label
_atom_site_type_symbol
_atom_site_description
_atom_site_fract_x
_atom_site_fract_y
_atom_site_fract_z
_atom_type_partial_charge
O1    O     O_R   0.499990 0.319640 0.618810 -0.530295
O2    O     O_R   0.500000 0.319660 0.381240 -0.566097
C1    C     C_R   0.506936 0.262556 0.500493 0.873873
O3    O     O_R   0.317680 0.499970 0.618790 -0.555306
O4    O     O_R   0.317700 0.499990 0.381210 -0.599284
C2    C     C_R   0.260654 0.497802 0.500235 0.921419
Cu1   Cu    Cu3+1 0.499990 0.499990 0.640660 1.029890
Cu2   Cu    Cu3+1 0.500010 0.500010 0.359340 1.023978
O5    O     O_R   0.500000 0.680340 0.618760 -0.631332
O6    O     O_R   0.500010 0.680360 0.381190 -0.622273
O7    O     O_R   0.682300 0.500010 0.618790 -0.567386
O8    O     O_R   0.682320 0.500030 0.381210 -0.531638
C3    C     C_R   0.489674 0.736799 0.500845 0.811777
C4    C     C_R   0.740436 0.498355 0.499848 0.859468
C5    C     C_3   0.073754 0.480013 0.651085 -0.366233
H1    H     H_    0.118834 0.548320 0.723484 0.262511
H2    H     H_    0.097514 0.387831 0.690226 0.229520
C6    C     C_3   0.933021 0.488862 0.653444 0.119741
H3    H     H_    0.897533 0.399012 0.695237 0.183021
C7    C     C_3   0.083604 0.623878 0.445076 0.030115
C8    C     C_3   0.067011 0.391729 0.405660 0.002616
C9    C     C_3   0.123802 0.497701 0.500982 -0.216652
H4    H     H_    0.084081 0.416501 0.294752 0.199934
C10   C     C_3   0.879615 0.499275 0.498837 -0.281579
C11   C     C_3   0.939816 0.620585 0.423022 0.449720
C12   C     C_3   0.926206 0.376831 0.430386 0.060319
H5    H     H_    0.911294 0.300823 0.506894 0.185400
H6    H     H_    0.130391 0.637781 0.342689 0.167103
H7    H     H_    0.476176 0.111228 0.281498 0.209167
C13   C     C_R   0.577583 0.111534 0.752266 0.222760
C14   C     C_R   0.551668 0.054970 0.881615 0.344777
C15   C     C_R   0.478217 0.945437 0.885198 -0.264122
H8    H     H_    0.452995 0.902559 0.983664 0.180235
C16   C     C_R   0.445688 0.885081 0.761704 -0.163405
H9    H     H_    0.391504 0.798981 0.769549 0.208666
C17   C     C_R   0.480568 0.937195 0.631878 0.077960
C18   C     C_R   0.523673 0.061372 0.629069 -0.003976
C19   C     C_R   0.512729 0.127769 0.502611 -0.074914
C20   C     C_R   0.487192 0.063125 0.378922 -0.061206
H10   H     H_    0.468375 0.887653 0.280118 0.171953
C21   C     C_R   0.477365 0.935474 0.378793 -0.125958
C22   C     C_R   0.476986 0.870689 0.504623 -0.054238
H11   H     H_    0.368415 0.353165 0.131637 0.171671
C23   C     C_R   0.650017 0.676934 0.143138 -0.072261
H12   H     H_    0.667079 0.676274 0.251861 0.214557
C24   C     C_R   0.715611 0.769800 0.071259 -0.052954
H13   H     H_    0.771742 0.838479 0.127312 0.239458
C25   C     C_R   0.714564 0.770990 0.927988 -0.098012
H14   H     H_    0.769991 0.840523 0.872004 0.214760
C26   C     C_R   0.648244 0.678710 0.856012 -0.074822
H15   H     H_    0.666047 0.678015 0.747350 0.221255
C27   C     C_R   0.572852 0.587804 0.925052 0.156201
C28   C     C_R   0.573296 0.587323 0.074373 0.197066
N1    N     N_R   0.501200 0.501210 0.147910 -0.220110
C29   C     C_R   0.427484 0.419279 0.075202 0.000999
C30   C     C_R   0.426888 0.418891 0.927915 0.362179
N2    N     N_R   0.501250 0.501290 0.852040 -0.222430
Br1   Br    Br    0.837186 0.292053 0.277779 -0.223372
N3    N     N_R   0.920786 0.626941 0.270915 0.085648
O9    O     O_R   0.965596 0.723325 0.203466 -0.308018
O10   O     O_R   0.867244 0.538693 0.199068 -0.277322
Br2   Br    Br    0.721271 0.220974 0.738761 -0.408073
N4    N     N_R   0.603171 0.105009 0.008384 0.143593
O11   O     O_R   0.615816 0.223563 0.027289 -0.283991
O12   O     O_R   0.635522 0.031920 0.107330 -0.393619
Br3   Br    Br    0.315353 0.299737 0.842144 -0.438597
N5    N     N_R   0.897296 0.578812 0.757946 0.150816
O13   O     O_R   0.947613 0.690072 0.758832 -0.279202
O14   O     O_R   0.853123 0.535198 0.875042 -0.271053
Br4   Br    Br    0.154997 0.764800 0.551487 -0.375843
Br5   Br    Br    0.860608 0.768469 0.491851 -0.372287
Br6   Br    Br    0.142493 0.233720 0.435604 -0.396267

loop_
_geom_bond_atom_site_label_1
_geom_bond_atom_site_label_2
_geom_bond_distance
_ccdc_geom_bond_type
C5    C6    1.536202 S    
C26   C27   1.413372 A    
C29   C30   1.415687 A    
N4    O12   1.299396 A    
C10   C11   1.612762 S    
Cu1   O5    1.969806 S    
C18   C19   1.421598 A    
C11   Br5   1.975089 S    
O4    Cu2   1.990177 S    
C11   N3    1.478954 S    
C21   C22   1.399074 A    
C17   C22   1.419958 A    
C14   C15   1.396912 A    
Cu2   O8    1.990813 S    
C15   H8    1.083152 S    
H7    C20   1.082140 S    
C25   C26   1.387902 A    
C26   H15   1.061961 S    
O8    C4    1.304666 A    
N3    O9    1.302921 A    
C20   C21   1.384683 A    
C24   H13   1.081988 S    
C28   N1    1.381136 A    
C30   N2    1.380587 A    
N5    O13   1.299373 A    
Cu1   O7    1.990176 S    
C12   Br1   1.960386 S    
C7    Br4   1.966065 S    
C12   H5    1.110759 S    
O4    C2    1.299708 A    
O3    Cu1   1.990813 S    
C30   Br3   1.912386 S    
N5    O14   1.302044 A    
H11   C29   1.082197 S    
C25   H14   1.082919 S    
C8    C12   1.546736 S    
C23   C24   1.387054 A    
C3    C22   1.468190 S    
O2    C1    1.307391 A    
C16   C17   1.413033 A    
C13   Br2   1.914641 S    
C8    H4    1.112292 S    
C13   C14   1.408112 A    
O7    C4    1.305632 A    
C6    C10   1.602128 S    
N3    O10   1.294348 A    
O3    C2    1.297286 A    
C7    C11   1.574298 S    
C7    C9    1.555934 S    
C8    Br6   1.961798 S    
C4    C10   1.510615 S    
C5    H1    1.112001 S    
C2    C9    1.485776 S    
C24   C25   1.377192 A    
C14   N4    1.436110 S    
Cu1   Cu2   2.703929 S    
C19   C20   1.401203 A    
C27   C28   1.435243 A    
C13   C18   1.417655 A    
Cu2   O6    1.969750 S    
C16   H9    1.080538 S    
C27   N2    1.379729 A    
Cu2   N1    2.032235 S    
C5    H2    1.112607 S    
C6    H3    1.105242 S    
O5    C3    1.296413 A    
N1    C29   1.358941 A    
C17   C18   1.404012 A    
H10   C21   1.083327 S    
C7    H6    1.113404 S    
O1    Cu1   1.969749 S    
C6    N5    1.467122 S    
C8    C9    1.571748 S    
C23   C28   1.411868 A    
Cu1   N2    2.031807 S    
C5    C9    1.549248 S    
O2    Cu2   1.969807 S    
C23   H12   1.061662 S    
N4    O11   1.300271 A    
C1    C19   1.468548 S    
C10   C12   1.589693 S    
O1    C1    1.299191 A    
O6    C3    1.310643 A    
C15   C16   1.392814 A    
