data_mof_unit_28935.cif
_audit_creation_date              2012-12-11T14:49:45-0500
_audit_creation_method            fapswitch 2.2
_symmetry_space_group_name_H-M    P1
_symmetry_Int_Tables_number       1
_space_group_crystal_system       triclinic
_cell_length_a                    11.052146
_cell_length_b                    11.110996
_cell_length_c                    18.903715
_cell_angle_alpha                 89.655342
_cell_angle_beta                  90.354261
_cell_angle_gamma                 119.980301
_cell_volume                      2010.72552781

loop_
_atom_site_label
_atom_site_type_symbol
_atom_type_description
_atom_site_fract_x
_atom_site_fract_y
_atom_site_fract_z
_atom_type_partial_charge
C1    C     C_R   0.530610 0.462199 0.644217 0.532932
C2    C     C_R   0.468500 0.525008 0.352126 0.549202
C3    C     C_R   0.449611 0.881491 0.138888 0.556831
C4    C     C_R   0.056373 0.531655 0.351862 0.541238
C5    C     C_R   0.433375 0.064958 0.529840 -0.178279
C6    C     C_R   0.628028 0.577202 0.966980 -0.134413
C7    C     C_R   0.932938 0.362832 0.528565 -0.183531
C8    C     C_R   0.406687 0.020784 0.965520 -0.171227
C9    C     C_R   0.632527 0.581257 0.530408 -0.159396
C10   C     C_R   0.955013 0.370653 0.967836 -0.141759
C11   C     C_R   0.971308 0.383039 0.040595 -0.184474
C12   C     C_R   0.934295 0.469502 0.854482 0.533036
C13   C     C_R   0.625178 0.585926 0.456831 -0.180390
C14   C     C_R   0.387298 0.977398 0.035472 -0.150610
C15   C     C_R   0.951341 0.372694 0.455463 -0.193743
C16   C     C_R   0.612899 0.582905 0.039391 -0.177289
C17   C     C_R   0.424509 0.038293 0.457982 -0.201793
C18   C     C_R   0.491180 0.972178 0.429767 0.017718
C19   C     C_R   0.480459 0.511448 0.069331 -0.003002
C20   C     C_R   0.985109 0.496023 0.420747 -0.001028
C21   C     C_R   0.464800 0.920656 0.064180 0.004136
C22   C     C_R   0.504693 0.490919 0.421567 -0.004384
C23   C     C_R   0.534648 0.065738 0.645893 0.549122
C24   C     C_R   0.007232 0.508639 0.073051 -0.009697
C25   C     C_R   0.987206 0.488069 0.926476 0.006401
C26   C     C_R   0.514782 0.487181 0.569488 0.012699
C27   C     C_R   0.493294 0.995107 0.921796 -0.003687
C28   C     C_R   0.963283 0.481784 0.568243 -0.003972
C29   C     C_R   0.510178 0.503056 0.923569 0.009611
C30   C     C_R   0.496546 0.011588 0.575081 0.003484
C31   C     C_R   0.565484 0.928844 0.475147 0.166530
C32   C     C_R   0.362313 0.430192 0.025010 0.158520
C33   C     C_R   0.981023 0.603171 0.458994 0.180999
C34   C     C_R   0.529751 0.465220 0.853577 0.534981
C35   C     C_R   0.558450 0.902608 0.020413 0.144432
C36   C     C_R   0.398131 0.378867 0.460221 0.170132
C37   C     C_R   0.018467 0.621817 0.031697 0.175781
C38   C     C_R   0.036138 0.618672 0.958477 0.164384
C39   C     C_R   0.392253 0.391243 0.532999 0.165419
C40   C     C_R   0.558504 0.922785 0.948297 0.167072
C41   C     C_R   0.993682 0.605637 0.532045 0.168534
C42   C     C_R   0.375579 0.437029 0.952496 0.165078
C43   C     C_R   0.550038 0.930890 0.548065 0.131504
C44   C     C_3   0.794036 0.998197 0.429597 -0.303072
C45   C     C_R   0.928530 0.468161 0.643627 0.539963
C46   C     C_3   0.207196 0.200248 0.070198 -0.289869
C47   C     C_3   0.063880 0.847090 0.426033 -0.247180
C48   C     C_3   0.793350 0.008256 0.064831 -0.290477
C49   C     C_3   0.155481 0.222715 0.425454 -0.258454
C50   C     C_3   0.008078 0.845567 0.028816 -0.308910
C51   C     C_3   0.205299 0.764866 0.867892 -0.302681
C52   C     C_3   0.202607 0.374575 0.605811 -0.302294
C53   C     C_3   0.561921 0.787907 0.846758 -0.295981
C54   C     C_3   0.169289 0.793515 0.603934 -0.304690
C55   C     C_3   0.224335 0.433180 0.854939 -0.294188
C56   C     C_R   0.534710 0.063519 0.853672 0.537812
C57   C     C_3   0.492950 0.757323 0.641030 -0.310440
C58   C     C_R   0.460644 0.530359 0.144098 0.530464
C59   C     C_R   0.470515 0.931301 0.355553 0.563679
C60   C     C_R   0.062012 0.535417 0.145917 0.531932
Cr1   Cr    Cr6+3 0.776430 0.541680 0.750000 0.980169
Cr2   Cr    Cr6+3 0.765250 0.223570 0.750000 0.981268
Cr3   Cr    Cr6+3 0.458320 0.234750 0.750000 0.979217
Cr4   Cr    Cr6+3 0.541680 0.776430 0.250000 1.002735
Cr5   Cr    Cr6+3 0.223570 0.765250 0.250000 1.005690
Cr6   Cr    Cr6+3 0.234750 0.458320 0.250000 0.984690
H1    H     H_    0.391683 0.127520 0.549957 0.157187
H2    H     H_    0.939945 0.285606 0.425698 0.105702
H3    H     H_    0.704143 0.641483 0.072214 0.123857
H4    H     H_    0.367755 0.070005 0.423798 0.136194
H5    H     H_    0.669387 0.820386 0.482157 0.270143
H6    H     H_    0.855242 0.955538 0.404666 0.126220
H7    H     H_    0.849633 0.056524 0.477899 0.110242
H8    H     H_    0.785968 0.069430 0.391072 0.171865
H9    H     H_    0.186545 0.375745 0.085072 0.298912
H10   H     H_    0.104263 0.139170 0.096023 0.116001
H11   H     H_    0.289089 0.209010 0.107601 0.166970
H12   H     H_    0.732097 0.624509 0.945206 0.148654
H13   H     H_    0.210368 0.146245 0.021803 0.126681
H14   H     H_    0.896923 0.671397 0.378677 0.251072
H15   H     H_    0.083374 0.891762 0.371781 0.132656
H16   H     H_    0.162096 0.857049 0.446833 0.191400
H17   H     H_    0.031274 0.906302 0.460271 0.137459
H18   H     H_    0.635497 0.809313 0.087229 0.291147
H19   H     H_    0.854170 0.987022 0.104750 0.117334
H20   H     H_    0.769581 0.085434 0.088346 0.164922
H21   H     H_    0.856925 0.051897 0.016335 0.142248
H22   H     H_    0.330778 0.230317 0.379916 0.251700
H23   H     H_    0.898925 0.263559 0.554041 0.144942
H24   H     H_    0.107678 0.183203 0.372656 0.120849
H25   H     H_    0.151877 0.318301 0.436796 0.195415
H26   H     H_    0.094954 0.142957 0.465954 0.136187
H27   H     H_    0.926762 0.690791 0.104074 0.251424
H28   H     H_    0.996841 0.911996 0.068132 0.119567
H29   H     H_    0.920978 0.811133 0.990593 0.140144
H30   H     H_    0.110248 0.909857 0.003217 0.171003
H31   H     H_    0.027382 0.771903 0.897580 0.261487
H32   H     H_    0.165890 0.692337 0.822721 0.139877
H33   H     H_    0.286131 0.751443 0.895537 0.146408
H34   H     H_    0.355875 0.076270 0.945925 0.135553
H35   H     H_    0.250787 0.870382 0.844979 0.151328
H36   H     H_    0.247914 0.212686 0.589206 0.265569
H37   H     H_    0.095117 0.297332 0.622363 0.143119
H38   H     H_    0.199909 0.454149 0.571205 0.145481
H39   H     H_    0.263357 0.426403 0.654065 0.147683
H40   H     H_    0.738356 0.954662 0.895492 0.264596
H41   H     H_    0.530876 0.838287 0.805540 0.144697
H42   H     H_    0.466403 0.696243 0.866471 0.129909
H43   H     H_    0.630420 0.754443 0.821580 0.153615
H44   H     H_    0.960576 0.748777 0.589575 0.268074
H45   H     H_    0.728334 0.654323 0.556702 0.144714
H46   H     H_    0.204830 0.903666 0.616342 0.145976
H47   H     H_    0.247108 0.786770 0.570011 0.150373
H48   H     H_    0.161102 0.738428 0.654274 0.150969
H49   H     H_    0.222144 0.258296 0.901114 0.263219
H50   H     H_    0.301779 0.466862 0.811772 0.140181
H51   H     H_    0.226025 0.525545 0.876854 0.134119
H52   H     H_    0.120423 0.363064 0.831560 0.153401
H53   H     H_    0.695939 0.916063 0.613342 0.266558
H54   H     H_    0.540458 0.707443 0.672776 0.143662
H55   H     H_    0.403733 0.676718 0.610258 0.139865
H56   H     H_    0.916909 0.269548 0.944023 0.148108
H57   H     H_    0.453879 0.806564 0.678323 0.129234
H58   H     H_    0.956692 0.295428 0.071872 0.118975
H59   H     H_    0.709413 0.668617 0.427663 0.151051
H60   H     H_    0.319201 0.996957 0.068299 0.143872
N1    N     N_2   0.657439 0.885423 0.448281 -0.464704
N2    N     N_2   0.036877 0.734020 0.567205 -0.506822
N3    N     N_2   0.251567 0.360545 0.910946 -0.481490
N4    N     N_2   0.596175 0.858247 0.593273 -0.528506
N5    N     N_2   0.227954 0.335240 0.051339 -0.489482
N6    N     N_2   0.954513 0.702986 0.424869 -0.511985
N7    N     N_2   0.665963 0.881277 0.048016 -0.496015
N8    N     N_2   0.298440 0.252592 0.426623 -0.516045
N9    N     N_2   0.002819 0.728912 0.065554 -0.478241
N10   N     N_2   0.096793 0.743700 0.917366 -0.506623
N11   N     N_2   0.262748 0.304579 0.567801 -0.506642
N12   N     N_2   0.635890 0.880278 0.904985 -0.479173
O1    O     O_R   0.916700 0.566820 0.669930 -0.520402
O2    O     O_R   0.566820 0.916700 0.330070 -0.485939
O3    O     O_R   0.083300 0.650120 0.169930 -0.505538
O4    O     O_R   0.349880 0.433180 0.330070 -0.515092
O5    O     O_R   0.649840 0.534790 0.674920 -0.518698
O6    O     O_R   0.884950 0.350160 0.825080 -0.521393
O7    O     O_R   0.465210 0.115050 0.674920 -0.527347
O8    O     O_R   0.649840 0.534790 0.825080 -0.523425
O9    O     O_R   0.884950 0.350160 0.674920 -0.520589
O10   O     O_R   0.465210 0.115050 0.825080 -0.519811
O11   O     O_R   0.534790 0.649840 0.174920 -0.545783
O12   O     O_R   0.650120 0.083300 0.830070 -0.521341
O13   O     O_R   0.350160 0.884950 0.325080 -0.514445
O14   O     O_R   0.115050 0.465210 0.174920 -0.532443
O15   O     O_R   0.534790 0.649840 0.325080 -0.485680
O16   O     O_R   0.350160 0.884950 0.174920 -0.499402
O17   O     O_R   0.115050 0.465210 0.325080 -0.507578
O18   O     O_3   0.666667 0.333333 0.750000 -0.241733
O19   O     O_3   0.333333 0.666667 0.250000 -0.265354
O20   O     O_R   0.433180 0.349880 0.669930 -0.524227
O21   O     O_R   0.916700 0.566820 0.830070 -0.522768
O22   O     O_R   0.650120 0.083300 0.669930 -0.519737
O23   O     O_R   0.433180 0.349880 0.830070 -0.520442
O24   O     O_R   0.566820 0.916700 0.169930 -0.530509
O25   O     O_R   0.083300 0.650120 0.330070 -0.515138
O26   O     O_R   0.349880 0.433180 0.169930 -0.525711

loop_
_geom_bond_atom_site_label_1
_geom_bond_atom_site_label_2
_ccdc_geom_bond_type
C9    H45   S    
C49   N8    S    
C39   N11   S    
C44   N1    S    
Cr5   O13   S    
H14   N6    S    
C29   C42   A    
C28   C41   A    
C11   H58   S    
C31   N1    S    
C49   H24   S    
C5    H1    S    
C34   O23   A    
C58   O26   A    
C35   N7    S    
C46   H10   S    
C52   H37   S    
C23   O7    A    
C37   C38   A    
C31   C43   A    
C14   C21   A    
C1    O20   A    
Cr3   O18   S    
C50   N9    S    
Cr1   O21   S    
C55   H51   S    
Cr6   O17   S    
C60   O3    A    
C26   C39   A    
C6    H12   S    
C5    C17   A    
C55   H50   S    
C7    H23   S    
C54   H47   S    
C54   H48   S    
C11   C24   A    
C45   O1    A    
H53   N4    S    
C60   O14   A    
C47   H16   S    
C9    C13   A    
H31   N10   S    
C3    O24   A    
Cr1   O5    S    
C55   N3    S    
C40   N12   S    
Cr4   O19   S    
C2    C22   S    
C37   N9    S    
C47   H17   S    
C52   N11   S    
C58   O11   A    
C13   H59   S    
C51   H32   S    
C7    C15   A    
C17   H4    S    
C41   N2    S    
H5    N1    S    
C49   H25   S    
C19   C32   A    
C47   N6    S    
H9    N5    S    
C9    C26   A    
C24   C37   A    
C43   N4    S    
C19   C58   S    
C51   H33   S    
C15   C20   A    
H18   N7    S    
C28   C45   S    
C48   H21   S    
Cr6   O26   S    
C53   N12   S    
C23   C30   S    
C57   N4    S    
Cr4   O24   S    
C46   N5    S    
C27   C56   S    
Cr1   O1    S    
H27   N9    S    
C54   N2    S    
Cr4   O15   S    
C3    O16   A    
C7    C28   A    
C12   O6    A    
H36   N11   S    
C56   O10   A    
Cr1   O8    S    
Cr6   O14   S    
Cr5   O16   S    
C1    O5    A    
C25   C38   A    
C57   H57   S    
Cr5   O3    S    
C51   N10   S    
C53   H41   S    
C27   C40   A    
C24   C60   S    
C23   O22   A    
Cr5   O25   S    
C17   C18   A    
C4    O25   A    
C54   H46   S    
C44   H8    S    
C57   H54   S    
C21   C35   A    
C20   C33   A    
C10   C25   A    
Cr5   O19   S    
C52   H39   S    
C2    O15   A    
C38   N10   S    
Cr2   O9    S    
C1    C26   S    
C2    O4    A    
Cr2   O22   S    
C30   C43   A    
C3    C21   S    
C49   H26   S    
C56   O12   A    
Cr1   O18   S    
Cr3   O10   S    
C33   N6    S    
H49   N3    S    
C5    C30   A    
Cr4   O2    S    
C53   H43   S    
Cr3   O23   S    
C52   H38   S    
C8    C14   A    
Cr2   O12   S    
C45   O9    A    
C48   N7    S    
C36   C39   A    
C50   H28   S    
C16   H3    S    
Cr2   O6    S    
C10   H56   S    
C57   H55   S    
C36   N8    S    
C46   H11   S    
Cr6   O19   S    
Cr6   O4    S    
C59   O13   A    
C51   H35   S    
C22   C36   A    
C12   C25   S    
C14   H60   S    
Cr4   O11   S    
C33   C41   A    
C35   C40   A    
C8    H34   S    
H22   N8    S    
C34   O8    A    
C53   H42   S    
C50   H30   S    
C46   H13   S    
C59   O2    A    
C16   C19   A    
C15   H2    S    
C29   C34   S    
Cr2   O18   S    
C13   C22   A    
C44   H6    S    
C42   N3    S    
C48   H20   S    
C47   H15   S    
C12   O21   A    
C44   H7    S    
C50   H29   S    
H40   N12   S    
C10   C11   A    
C6    C16   A    
C4    C20   S    
C18   C59   S    
C6    C29   A    
C4    O17   A    
C8    C27   A    
C32   C42   A    
C48   H19   S    
C18   C31   A    
Cr3   O20   S    
Cr3   O7    S    
C32   N5    S    
H44   N2    S    
C55   H52   S    
