data_mof_unit_49054.cif
_audit_creation_date              2012-10-26T18:25:37-0400
_audit_creation_method            fapswitch 2.2
_symmetry_space_group_name_H-M    P1
_symmetry_Int_Tables_number       1
_space_group_crystal_system       triclinic
_cell_length_a                    7.556438
_cell_length_b                    8.765635
_cell_length_c                    10.854287
_cell_angle_alpha                 88.163855
_cell_angle_beta                  73.881988
_cell_angle_gamma                 103.527806
_cell_volume                      667.902606968

loop_
_atom_site_label
_atom_site_type_symbol
_atom_type_description
_atom_site_fract_x
_atom_site_fract_y
_atom_site_fract_z
_atom_type_partial_charge
C1    C     C_R   0.452351 0.200486 0.503704 0.537540
C2    C     C_2   0.574256 0.967757 0.470540 -0.022030
C3    C     C_2   0.756624 0.654134 0.036947 0.600986
C4    C     C_2   0.203465 0.496862 0.965651 0.564314
C5    C     C_2   0.240991 0.944939 0.613493 0.572088
C6    C     C_2   0.752456 0.053865 0.369759 0.597467
C7    C     C_3   0.903089 0.387372 0.660645 -0.102291
C8    C     C_3   0.099595 0.616576 0.340268 -0.085851
C9    C     C_R   0.548281 0.799908 0.493422 0.554838
C10   C     C_R   0.423815 0.486603 0.743619 0.547596
C11   C     C_R   0.574215 0.508044 0.257242 0.540006
C12   C     C_2   0.380641 0.464185 0.884734 0.067895
C13   C     C_2   0.607808 0.517279 0.117864 0.012361
C14   C     C_2   0.498861 0.409224 0.936404 -0.110969
C15   C     C_2   0.487024 0.410515 0.073039 -0.135867
C16   C     C_2   0.425879 0.032661 0.521384 -0.014659
Cu1   Cu    Cu3+1 0.688910 0.517800 0.485820 1.026212
Cu2   Cu    Cu3+1 0.311090 0.482200 0.514180 1.023561
H1    H     H_    0.374859 0.319460 0.139486 0.173111
H2    H     H_    0.124055 0.524880 0.274492 0.153749
H3    H     H_    0.031460 0.694944 0.297734 0.167034
H4    H     H_    0.232415 0.694873 0.347279 0.145415
H5    H     H_    0.619819 0.375413 0.875945 0.129333
H6    H     H_    0.885479 0.779091 0.863880 0.373910
H7    H     H_    0.965556 0.422096 0.115129 0.360026
H8    H     H_    0.954340 0.882216 0.653628 0.344313
H9    H     H_    0.038631 0.099407 0.301777 0.352947
H10   H     H_    0.888638 0.482653 0.724443 0.171222
H11   H     H_    0.767263 0.311670 0.655819 0.133933
H12   H     H_    0.969261 0.306517 0.702293 0.131426
N1    N     N_2   0.027170 0.455360 0.535550 -0.142345
N2    N     N_2   0.972830 0.544640 0.464450 -0.147142
O1    O     O_R   0.622710 0.286400 0.490790 -0.511372
O2    O     O_R   0.784499 0.678885 0.904514 -0.690577
O3    O     O_2   0.155786 0.613264 0.935835 -0.437946
O4    O     O_R   0.087281 0.391097 0.072020 -0.702080
O5    O     O_2   0.237850 0.871640 0.712166 -0.477751
O6    O     O_R   0.071363 0.948861 0.586834 -0.636394
O7    O     O_2   0.743687 0.136589 0.279782 -0.496173
O8    O     O_R   0.928906 0.035692 0.375679 -0.625721
O9    O     O_R   0.377290 0.713600 0.509210 -0.502959
O10   O     O_R   0.303660 0.256330 0.514730 -0.466313
O11   O     O_R   0.696340 0.743670 0.485270 -0.451142
O12   O     O_R   0.600900 0.509520 0.671740 -0.533552
O13   O     O_R   0.399100 0.490480 0.328260 -0.545416
O14   O     O_R   0.281840 0.479450 0.695690 -0.485420
O15   O     O_R   0.718160 0.520550 0.304310 -0.489210
O16   O     O_2   0.852701 0.749154 0.088007 -0.468103

loop_
_geom_bond_atom_site_label_1
_geom_bond_atom_site_label_2
_ccdc_geom_bond_type
C14   H5    S    
C10   O14   A    
C8    H4    S    
Cu1   O11   S    
C7    H11   S    
C5    O5    D    
C4    C12   S    
C2    C16   D    
C1    O10   A    
C9    O9    A    
N1    N2    D    
C3    C13   S    
H9    O8    S    
C4    O4    S    
Cu1   Cu2   S    
C4    O3    D    
C1    O1    A    
C1    C16   S    
C2    C6    S    
C5    O6    S    
C15   H1    S    
C11   C13   S    
C8    H2    S    
Cu1   O1    S    
Cu2   O14   S    
C12   C14   D    
C8    H3    S    
C10   C12   S    
C13   C15   D    
C6    O8    S    
C9    O11   A    
C11   O13   A    
H7    O4    S    
C10   O12   A    
C8    N2    S    
Cu2   O13   S    
C3    O16   D    
C7    N1    S    
C3    O2    S    
Cu2   O9    S    
C7    H12   S    
Cu1   N2    S    
C6    O7    D    
H8    O6    S    
C5    C16   S    
Cu2   N1    S    
Cu2   O10   S    
Cu1   O12   S    
C14   C15   S    
C2    C9    S    
C11   O15   A    
H6    O2    S    
C7    H10   S    
Cu1   O15   S    
