data_mof_unit_10108.cif
_audit_creation_date              2013-03-05T16:30:42-0500
_audit_creation_method            fapswitch 2.2
_symmetry_space_group_name_H-M    P1
_symmetry_Int_Tables_number       1
_space_group_crystal_system       triclinic
_cell_length_a                    10.933672
_cell_length_b                    10.831796
_cell_length_c                    9.551695
_cell_angle_alpha                 90.276424
_cell_angle_beta                  89.932438
_cell_angle_gamma                 90.166941
_cell_volume                      1131.20096578

loop_
_atom_site_label
_atom_site_type_symbol
_atom_site_description
_atom_site_fract_x
_atom_site_fract_y
_atom_site_fract_z
_atom_type_partial_charge
O1    O     O_R   0.500000 0.319640 0.618810 -0.558231
O2    O     O_R   0.500010 0.319680 0.381230 -0.568988
C1    C     C_R   0.497585 0.262387 0.499670 0.804013
O3    O     O_R   0.321940 0.499980 0.618760 -0.595152
O4    O     O_R   0.321950 0.500020 0.381180 -0.591596
C2    C     C_R   0.265340 0.498115 0.500120 0.850939
Cu1   Cu    Cu3+1 0.499990 0.499980 0.640670 0.973626
Cu2   Cu    Cu3+1 0.500010 0.500020 0.359330 0.962723
O5    O     O_R   0.499990 0.680320 0.618770 -0.579208
O6    O     O_R   0.500000 0.680360 0.381190 -0.591300
O7    O     O_R   0.678050 0.499980 0.618820 -0.587281
O8    O     O_R   0.678060 0.500020 0.381240 -0.579366
C3    C     C_R   0.497846 0.737740 0.500133 0.806358
C4    C     C_R   0.734651 0.501362 0.500054 0.844626
C5    C     C_2   0.933089 0.491804 0.385545 -0.151846
C6    C     C_2   0.866651 0.507718 0.502162 -0.313329
H1    H     H_    0.888490 0.475360 0.285634 0.162235
H2    H     H_    0.907705 0.528313 0.602645 0.143277
C7    C     C_2   0.066999 0.498068 0.385111 -0.149464
C8    C     C_2   0.133335 0.491122 0.502638 -0.306065
H3    H     H_    0.111661 0.506550 0.283938 0.159112
H4    H     H_    0.092139 0.477020 0.604389 0.145906
C9    C     C_R   0.479920 0.064699 0.624695 0.101443
C10   C     C_R   0.485188 0.129389 0.498919 -0.164439
C11   C     C_R   0.472912 0.063795 0.372306 -0.167101
H5    H     H_    0.469318 0.111230 0.272819 0.209741
C12   C     C_R   0.473050 0.935041 0.372700 -0.201237
H6    H     H_    0.469454 0.886475 0.273386 0.176014
C13   C     C_R   0.485615 0.870934 0.499679 -0.100705
C14   C     C_R   0.480587 0.937396 0.625117 0.092321
C15   C     C_3   0.561631 0.931795 0.750822 -0.542671
C16   C     C_3   0.561589 0.072127 0.750081 0.187382
H7    H     H_    0.514100 0.890327 0.842271 0.227392
H8    H     H_    0.652852 0.891996 0.726261 0.167357
H9    H     H_    0.652668 0.114058 0.728111 0.099774
C17   C     C_R   0.605521 0.520876 0.073639 0.291383
N1    N     N_R   0.500780 0.500930 0.147930 -0.196782
C18   C     C_R   0.398686 0.466735 0.074192 -0.033933
H10   H     H_    0.316080 0.440813 0.128892 0.137145
C19   C     C_R   0.398615 0.466934 0.925634 -0.001231
H11   H     H_    0.315958 0.441215 0.870842 0.142893
N2    N     N_R   0.500780 0.500890 0.852020 -0.193988
C20   C     C_R   0.605748 0.520022 0.926375 0.309251
C21   C     C_3   0.685272 0.631736 0.920612 -0.530087
C22   C     C_3   0.683834 0.633636 0.079559 -0.513138
H12   H     H_    0.776901 0.611032 0.875907 0.200321
H13   H     H_    0.638178 0.711567 0.873340 0.214926
H14   H     H_    0.774955 0.615075 0.126078 0.198316
H15   H     H_    0.635152 0.714721 0.124417 0.217379
N3    N     N_R   0.500232 0.125788 0.872228 0.152630
O9    O     O_R   0.558814 0.203828 0.951610 -0.388583
O10   O     O_R   0.388155 0.095655 0.903721 -0.372764

loop_
_geom_bond_atom_site_label_1
_geom_bond_atom_site_label_2
_geom_bond_distance
_ccdc_geom_bond_type
O4    Cu2   1.957760 S    
N3    O10   1.302464 A    
C9    C10   1.394752 A    
C15   H7    1.111834 S    
C13   C14   1.395920 A    
C11   C12   1.394662 A    
C2    C8    1.445244 S    
C9    C14   1.378985 A    
C7    C8    1.339762 D    
C21   H13   1.106185 S    
C22   H15   1.112142 S    
Cu2   O8    1.958202 S    
C9    C16   1.496448 S    
C19   N2    1.369559 A    
O2    C1    1.293169 A    
O8    C4    1.293234 A    
C15   H8    1.112039 S    
C17   C22   1.490471 S    
N3    O9    1.300588 A    
C6    H2    1.082033 S    
C10   C11   1.406039 A    
C5    C7    1.465507 S    
C16   N3    1.463898 S    
C1    C10   1.446557 S    
O4    C2    1.293331 A    
O3    Cu1   1.958202 S    
O3    C2    1.291861 A    
C17   N1    1.363759 A    
C18   C19   1.418995 A    
N1    C18   1.369756 A    
C21   H12   1.111617 S    
Cu1   O7    1.957759 S    
C20   C21   1.489194 S    
C14   C15   1.494683 S    
O7    C4    1.291728 A    
C4    C6    1.444845 S    
C22   H14   1.110628 S    
C12   C13   1.407534 A    
N2    C20   1.365154 A    
C5    C6    1.339809 D    
C16   H9    1.113460 S    
Cu1   O5    1.965577 S    
Cu1   Cu2   2.687276 S    
C18   H10   1.079993 S    
C21   C22   1.518315 S    
Cu2   O6    1.963532 S    
Cu2   N1    2.019308 S    
Cu1   N2    2.018756 S    
C3    C13   1.449331 S    
C12   H6    1.083201 S    
C5    H1    1.085904 S    
O5    C3    1.295551 A    
C19   H11   1.080055 S    
C17   C20   1.406611 A    
C7    H3    1.086387 S    
C11   H5    1.083272 S    
O1    Cu1   1.963533 S    
O2    Cu2   1.965577 S    
C15   C16   1.520108 S    
C8    H4    1.082037 S    
O1    C1    1.293624 A    
O6    C3    1.292595 A    
