data_mof_unit_52497.cif
_audit_creation_date              2013-03-05T15:50:12-0500
_audit_creation_method            fapswitch 2.2
_symmetry_space_group_name_H-M    P1
_symmetry_Int_Tables_number       1
_space_group_crystal_system       triclinic
_cell_length_a                    18.384396
_cell_length_b                    25.954227
_cell_length_c                    18.230086
_cell_angle_alpha                 90.042213
_cell_angle_beta                  89.931854
_cell_angle_gamma                 90.445426
_cell_volume                      8698.2650314

loop_
_atom_site_label
_atom_site_type_symbol
_atom_site_description
_atom_site_fract_x
_atom_site_fract_y
_atom_site_fract_z
_atom_type_partial_charge
Zn1   Zn    Zn3+2 0.249990 0.293780 0.913250 1.119560
Zn2   Zn    Zn3+2 0.249990 0.706220 0.086750 1.121156
Zn3   Zn    Zn3+2 0.249990 0.706220 0.913250 1.111970
Zn4   Zn    Zn3+2 0.249990 0.293780 0.086750 1.121591
Zn5   Zn    Zn3+2 0.749990 0.793780 0.413250 1.128845
Zn6   Zn    Zn3+2 0.749990 0.206220 0.586750 1.106434
Zn7   Zn    Zn3+2 0.749990 0.206220 0.413250 1.122149
Zn8   Zn    Zn3+2 0.749990 0.793780 0.586750 1.120601
Zn9   Zn    Zn3+2 0.336760 0.206240 0.000000 1.078836
Zn10  Zn    Zn3+2 0.336760 0.793760 0.000000 1.093187
Zn11  Zn    Zn3+2 0.836760 0.706240 0.500000 1.076077
Zn12  Zn    Zn3+2 0.836760 0.293760 0.500000 1.104026
Zn13  Zn    Zn3+2 0.163250 0.206230 0.000000 1.098727
Zn14  Zn    Zn3+2 0.163250 0.793770 0.000000 1.079416
Zn15  Zn    Zn3+2 0.663250 0.706230 0.500000 1.091386
Zn16  Zn    Zn3+2 0.663250 0.293770 0.500000 1.104789
O1    O     O_3   0.249990 0.250010 0.000000 -0.538285
O2    O     O_3   0.249990 0.749990 0.000000 -0.537014
O3    O     O_3   0.749990 0.750010 0.500000 -0.535212
O4    O     O_3   0.749990 0.249990 0.500000 -0.541498
O5    O     O_R   0.335430 0.280650 0.146160 -0.590507
O6    O     O_R   0.335430 0.719350 0.853840 -0.577688
O7    O     O_R   0.335430 0.719350 0.146160 -0.589519
O8    O     O_R   0.335430 0.280650 0.853840 -0.579916
O9    O     O_R   0.835430 0.780650 0.646160 -0.553339
O10   O     O_R   0.835430 0.219350 0.353840 -0.564240
O11   O     O_R   0.835430 0.219350 0.646160 -0.574198
O12   O     O_R   0.835430 0.780650 0.353840 -0.553050
O13   O     O_R   0.164550 0.280640 0.853840 -0.595705
O14   O     O_R   0.164550 0.719360 0.146160 -0.582391
O15   O     O_R   0.164550 0.719360 0.853840 -0.625368
O16   O     O_R   0.164550 0.280640 0.146160 -0.619191
O17   O     O_R   0.664550 0.780640 0.353840 -0.641643
O18   O     O_R   0.664550 0.219360 0.646160 -0.637830
O19   O     O_R   0.664550 0.219360 0.353840 -0.628569
O20   O     O_R   0.664550 0.780640 0.646160 -0.625927
O21   O     O_R   0.396160 0.219380 0.914560 -0.635888
O22   O     O_R   0.396160 0.780620 0.085440 -0.616363
O23   O     O_R   0.396160 0.780620 0.914560 -0.650475
O24   O     O_R   0.396160 0.219380 0.085440 -0.613545
O25   O     O_R   0.896160 0.719380 0.414560 -0.633608
O26   O     O_R   0.896160 0.280620 0.585440 -0.617331
O27   O     O_R   0.896160 0.280620 0.414560 -0.616903
O28   O     O_R   0.896160 0.719380 0.585440 -0.653995
O29   O     O_R   0.103840 0.219370 0.085450 -0.597752
O30   O     O_R   0.103840 0.780630 0.914550 -0.608657
O31   O     O_R   0.103840 0.780630 0.085450 -0.627616
O32   O     O_R   0.103840 0.219370 0.914550 -0.618731
O33   O     O_R   0.603840 0.719370 0.585450 -0.597793
O34   O     O_R   0.603840 0.280630 0.414550 -0.554493
O35   O     O_R   0.603840 0.280630 0.585450 -0.593400
O36   O     O_R   0.603840 0.719370 0.414550 -0.614667
O37   O     O_R   0.310730 0.133160 0.000000 -0.618429
O38   O     O_R   0.310730 0.866840 0.000000 -0.609962
O39   O     O_R   0.810730 0.633160 0.500000 -0.615889
O40   O     O_R   0.810730 0.366840 0.500000 -0.639317
O41   O     O_R   0.249970 0.366860 0.060720 -0.595657
O42   O     O_R   0.249970 0.633140 0.939280 -0.605904
O43   O     O_R   0.249970 0.633140 0.060720 -0.621546
O44   O     O_R   0.249970 0.366860 0.939280 -0.603488
O45   O     O_R   0.749970 0.866860 0.560720 -0.598819
O46   O     O_R   0.749970 0.133140 0.439280 -0.593454
O47   O     O_R   0.749970 0.133140 0.560720 -0.610008
O48   O     O_R   0.749970 0.866860 0.439280 -0.606125
O49   O     O_R   0.189290 0.133150 0.000000 -0.596150
O50   O     O_R   0.189290 0.866850 0.000000 -0.609136
O51   O     O_R   0.689290 0.633150 0.500000 -0.595839
O52   O     O_R   0.689290 0.366850 0.500000 -0.578272
C1    C     C_R   0.389198 0.249460 0.140530 0.894081
C2    C     C_R   0.390181 0.749810 0.860449 0.963472
C3    C     C_R   0.386026 0.753374 0.144226 0.885902
C4    C     C_R   0.389460 0.250048 0.859838 1.009028
C5    C     C_R   0.889761 0.750491 0.640086 0.930784
C6    C     C_R   0.891179 0.248090 0.361278 1.014374
C7    C     C_R   0.890299 0.249632 0.639613 1.012479
C8    C     C_R   0.888424 0.749496 0.358369 0.976634
C9    C     C_R   0.110102 0.249920 0.860219 0.910850
C10   C     C_R   0.111190 0.750053 0.140597 0.899190
C11   C     C_R   0.110965 0.750554 0.859511 0.905355
C12   C     C_R   0.109965 0.250526 0.139612 0.893843
C13   C     C_R   0.612713 0.747551 0.356337 0.911190
C14   C     C_R   0.610648 0.250181 0.640304 0.898501
C15   C     C_R   0.606924 0.247734 0.362882 0.854321
C16   C     C_R   0.611198 0.748600 0.641034 0.905002
C17   C     C_R   0.248649 0.109086 0.995969 0.860419
C18   C     C_R   0.250802 0.890815 0.998647 0.906091
C19   C     C_R   0.750019 0.609273 0.500093 0.888572
C20   C     C_R   0.749833 0.390540 0.495275 0.880337
C21   C     C_R   0.248433 0.391296 0.000199 1.026144
C22   C     C_R   0.249254 0.608773 0.999942 1.019887
C23   C     C_R   0.750410 0.891266 0.500065 1.022891
C24   C     C_R   0.749275 0.108700 0.499634 0.983170
C25   C     C_3   0.231159 0.471172 0.079414 0.205692
C26   C     C_3   0.200554 0.529027 0.936222 0.190934
C27   C     C_3   0.220847 0.530281 0.075445 0.202011
C28   C     C_3   0.191370 0.469717 0.944562 0.193721
C29   C     C_3   0.685486 0.970453 0.546356 0.183080
C30   C     C_3   0.759093 0.028323 0.418459 0.206180
C31   C     C_3   0.678059 0.029603 0.533671 0.192432
C32   C     C_3   0.745166 0.969486 0.419298 0.224118
H1    H     H_    0.279392 0.464188 0.114673 0.178313
H2    H     H_    0.229718 0.535762 0.883597 0.163301
H3    H     H_    0.253304 0.547244 0.120988 0.179853
H4    H     H_    0.201140 0.452401 0.889689 0.163877
H5    H     H_    0.698676 0.964801 0.605303 0.160792
H6    H     H_    0.816807 0.034607 0.402279 0.147165
H7    H     H_    0.668754 0.047877 0.588005 0.157267
H8    H     H_    0.787902 0.951753 0.384483 0.177019
C33   C     C_3   0.326807 0.469931 0.977529 0.465086
C34   C     C_3   0.329564 0.531033 0.987002 0.457603
C35   C     C_3   0.823819 0.970534 0.535480 0.467395
C36   C     C_3   0.816496 0.031044 0.546587 0.465940
C37   C     C_3   0.248774 0.449062 0.000735 -0.417559
C38   C     C_3   0.249488 0.551173 0.999689 -0.409528
C39   C     C_3   0.750755 0.948912 0.500303 -0.420400
C40   C     C_3   0.750186 0.051039 0.498844 -0.406978
C41   C     C_R   0.106315 0.172876 0.751792 -0.172017
C42   C     C_R   0.997240 0.676756 0.136514 -0.204668
C43   C     C_R   0.005525 0.671553 0.854714 -0.213911
C44   C     C_R   0.017716 0.336078 0.160228 -0.213575
C45   C     C_R   0.616806 0.817357 0.223258 -0.131063
C46   C     C_R   0.514296 0.165689 0.654901 -0.224719
C47   C     C_R   0.546911 0.148961 0.305539 -0.180263
C48   C     C_R   0.500441 0.823106 0.636290 -0.216217
C49   C     C_R   0.111870 0.136375 0.696645 0.419840
C50   C     C_R   0.936645 0.645971 0.123653 0.401929
C51   C     C_R   0.948863 0.636704 0.864380 0.424959
C52   C     C_R   0.969873 0.377204 0.163183 0.436081
C53   C     C_R   0.609279 0.862812 0.183277 0.383951
C54   C     C_R   0.464535 0.125297 0.653798 0.388854
C55   C     C_R   0.518050 0.102415 0.280274 0.423355
C56   C     C_R   0.446530 0.859819 0.628858 0.411220
C57   C     C_R   0.538973 0.879495 0.164186 0.268222
C58   C     C_R   0.400754 0.128957 0.695833 0.275404
C59   C     C_R   0.455357 0.102769 0.236026 0.270693
C60   C     C_R   0.389294 0.861016 0.679852 0.263449
C61   C     C_R   0.069898 0.141954 0.632923 0.311850
C62   C     C_R   0.871141 0.657672 0.159457 0.290695
C63   C     C_R   0.884599 0.643052 0.824346 0.241328
C64   C     C_R   0.906388 0.372604 0.205754 0.286150
C65   C     C_R   0.478822 0.847140 0.178003 0.326948
C66   C     C_R   0.390506 0.171553 0.742799 0.235790
C67   C     C_R   0.424783 0.149972 0.214687 0.290471
C68   C     C_R   0.386148 0.824437 0.736994 0.233670
C69   C     C_R   0.017949 0.181611 0.628466 0.265850
C70   C     C_R   0.870031 0.695847 0.214627 0.294223
C71   C     C_R   0.881149 0.680424 0.768350 0.243086
C72   C     C_R   0.893912 0.327535 0.247025 0.260026
C73   C     C_R   0.489122 0.797559 0.209209 -0.083848
C74   C     C_R   0.446401 0.210553 0.750204 -0.082174
C75   C     C_R   0.461361 0.197548 0.230862 -0.049047
C76   C     C_R   0.443160 0.787025 0.746008 -0.059996
C77   C     C_R   0.005630 0.215394 0.690090 -0.095563
C78   C     C_R   0.936098 0.721209 0.236650 -0.098549
C79   C     C_R   0.942060 0.714517 0.754770 -0.050062
C80   C     C_R   0.948785 0.288648 0.252596 -0.088017
C81   C     C_R   0.054865 0.213066 0.749230 -0.088879
C82   C     C_R   0.997147 0.715689 0.190757 -0.094996
C83   C     C_R   0.001924 0.712139 0.803093 -0.094327
C84   C     C_R   0.008285 0.291467 0.204124 -0.085359
C85   C     C_R   0.556066 0.786666 0.243078 -0.075025
C86   C     C_R   0.506085 0.208913 0.701560 -0.075016
C87   C     C_R   0.519272 0.196820 0.282266 -0.084850
C88   C     C_R   0.499970 0.786388 0.693633 -0.087482
C89   C     C_R   0.434167 0.759294 0.209551 -0.061211
C90   C     C_R   0.445066 0.250987 0.803331 -0.030352
C91   C     C_R   0.441706 0.246272 0.200090 -0.049250
C92   C     C_R   0.446435 0.750621 0.804767 -0.037290
C93   C     C_R   0.946035 0.250222 0.696132 -0.034297
C94   C     C_R   0.943253 0.753033 0.300190 -0.012683
C95   C     C_R   0.944726 0.752022 0.697510 -0.023813
C96   C     C_R   0.944965 0.246468 0.302509 -0.036318
C97   C     C_R   0.436862 0.719230 0.262689 -0.192314
C98   C     C_R   0.497189 0.292377 0.802869 -0.107316
C99   C     C_R   0.467142 0.292596 0.232491 -0.227618
C100  C     C_R   0.502448 0.713003 0.809240 -0.193274
C101  C     C_R   0.937344 0.283411 0.758676 -0.087646
C102  C     C_R   0.004417 0.787097 0.308918 -0.093200
C103  C     C_R   0.997072 0.793342 0.698384 -0.182107
C104  C     C_R   0.992370 0.202854 0.295855 -0.101424
C105  C     C_R   0.993551 0.285455 0.812139 -0.084308
C106  C     C_R   0.064307 0.782299 0.260407 -0.074264
C107  C     C_R   0.049788 0.795134 0.755257 -0.069670
C108  C     C_R   0.050276 0.205260 0.244292 -0.075083
C109  C     C_R   0.504225 0.707175 0.294703 -0.059593
C110  C     C_R   0.550177 0.294114 0.746169 -0.080243
C111  C     C_R   0.500610 0.288953 0.300771 -0.017559
C112  C     C_R   0.550971 0.707442 0.749578 -0.054289
C113  C     C_R   0.052325 0.250380 0.805666 0.004688
C114  C     C_R   0.057492 0.748822 0.199218 0.025479
C115  C     C_R   0.055240 0.751793 0.802843 0.000574
C116  C     C_R   0.056322 0.249343 0.198205 0.008846
C117  C     C_R   0.560430 0.744888 0.293774 0.019722
C118  C     C_R   0.555531 0.250997 0.697868 0.004183
C119  C     C_R   0.541953 0.243923 0.315039 -0.006868
C120  C     C_R   0.553753 0.747574 0.696315 0.002491
C121  C     C_R   0.374482 0.690601 0.285632 0.352766
C122  C     C_R   0.498239 0.331925 0.858027 0.305590
C123  C     C_R   0.454510 0.342685 0.203462 0.351910
C124  C     C_R   0.510075 0.679293 0.870903 0.277822
C125  C     C_R   0.873927 0.314500 0.769432 0.283933
C126  C     C_R   0.006377 0.827067 0.362928 0.283573
C127  C     C_R   0.996225 0.834713 0.646298 0.302908
C128  C     C_R   0.982555 0.156202 0.337303 0.323925
C129  C     C_R   0.383005 0.642826 0.319680 0.354529
C130  C     C_R   0.542208 0.376242 0.848614 0.300219
C131  C     C_R   0.454334 0.385223 0.250839 0.408529
C132  C     C_R   0.552798 0.635344 0.865988 0.405005
C133  C     C_R   0.867651 0.345939 0.832274 0.225376
C134  C     C_R   0.068622 0.859079 0.369567 0.281428
C135  C     C_R   0.037028 0.879569 0.658330 0.390332
C136  C     C_R   0.031696 0.115068 0.329822 0.308471
C137  C     C_R   0.925059 0.350655 0.881489 0.276618
C138  C     C_R   0.131258 0.848807 0.329320 0.269415
C139  C     C_R   0.085763 0.882791 0.716202 0.207964
C140  C     C_R   0.091452 0.119426 0.283488 0.263255
C141  C     C_R   0.452587 0.624833 0.336291 0.194214
C142  C     C_R   0.589182 0.380142 0.788939 0.272793
C143  C     C_R   0.467085 0.378213 0.325906 0.169334
C144  C     C_R   0.592420 0.625264 0.802539 0.221488
C145  C     C_R   0.987953 0.320699 0.872579 0.308921
C146  C     C_R   0.130124 0.810131 0.275032 0.349176
C147  C     C_R   0.094755 0.840439 0.763375 0.339336
C148  C     C_R   0.101113 0.163680 0.240243 0.312393
C149  C     C_R   0.513761 0.657339 0.325265 0.372765
C150  C     C_R   0.596667 0.338616 0.739853 0.320871
C151  C     C_R   0.487579 0.329126 0.352028 0.393799
C152  C     C_R   0.594682 0.661923 0.745113 0.348511
H9    H     H_    0.142058 0.168028 0.798299 0.206709
H10   H     H_    0.045277 0.668858 0.104107 0.190068
H11   H     H_    0.051897 0.666956 0.890463 0.196107
H12   H     H_    0.063148 0.340262 0.122982 0.201767
H13   H     H_    0.671643 0.805363 0.234950 0.249740
H14   H     H_    0.560098 0.162107 0.618068 0.178746
H15   H     H_    0.589335 0.146441 0.346164 0.225432
H16   H     H_    0.542495 0.823428 0.594711 0.184318
C153  C     C_R   0.343147 0.053679 0.893774 -0.085440
C154  C     C_R   0.344908 0.946682 0.896383 -0.093842
C155  C     C_R   0.797397 0.552031 0.622744 -0.164696
C156  C     C_R   0.795355 0.445239 0.620687 -0.171224
C157  C     C_R   0.391323 0.026981 0.849045 -0.051107
C158  C     C_R   0.391411 0.973581 0.849527 -0.043347
C159  C     C_R   0.820934 0.524596 0.683662 -0.011291
C160  C     C_R   0.819577 0.471265 0.682815 -0.041512
C161  C     C_R   0.298184 0.972897 0.945762 0.065865
C162  C     C_R   0.296123 0.027221 0.942848 0.085957
C163  C     C_R   0.773136 0.472271 0.556727 0.074693
C164  C     C_R   0.773857 0.526296 0.558035 0.057344
C165  C     C_R   0.253324 0.946715 0.997765 -0.053352
C166  C     C_R   0.243137 0.053290 0.984707 -0.052483
C167  C     C_R   0.748527 0.446213 0.493039 -0.066884
C168  C     C_R   0.751692 0.553615 0.495165 -0.061610
C169  C     C_R   0.203975 0.974237 0.042258 -0.112533
C170  C     C_R   0.187823 0.024649 0.021672 -0.120114
C171  C     C_R   0.723300 0.473421 0.429412 -0.107628
C172  C     C_R   0.731207 0.528042 0.429019 -0.118374
C173  C     C_R   0.168652 0.953477 0.105296 0.309848
C174  C     C_R   0.118036 0.043753 0.040829 0.301313
C175  C     C_R   0.692106 0.449084 0.365246 0.281838
C176  C     C_R   0.719106 0.555330 0.361949 0.226397
C177  C     C_R   0.107875 0.978445 0.135197 0.324678
C178  C     C_R   0.080007 0.021914 0.100024 0.248730
C179  C     C_R   0.670526 0.478633 0.304680 0.336504
C180  C     C_R   0.684735 0.531153 0.302757 0.321678
H17   H     H_    0.341463 0.094904 0.886801 0.179192
H18   H     H_    0.346386 0.905381 0.892167 0.186560
H19   H     H_    0.798714 0.593543 0.627042 0.167508
H20   H     H_    0.794192 0.403735 0.623933 0.137898
H21   H     H_    0.427182 0.047790 0.812203 0.152437
H22   H     H_    0.427192 0.952812 0.812913 0.159131
H23   H     H_    0.840470 0.544761 0.731629 0.193776
H24   H     H_    0.837220 0.449937 0.730491 0.185731
O53   O     O_3   0.305108 0.710331 0.282203 -0.642531
H25   H     H_    0.309324 0.748258 0.278215 0.351074
O54   O     O_3   0.456701 0.326451 0.920917 -0.748916
H26   H     H_    0.476895 0.347837 0.960983 0.396206
O55   O     O_3   0.445887 0.351577 0.129471 -0.647305
H27   H     H_    0.472005 0.324276 0.102287 0.330339
O56   O     O_3   0.479321 0.689399 0.938142 -0.697148
H28   H     H_    0.495918 0.724540 0.951833 0.342585
O57   O     O_3   0.817147 0.312219 0.719924 -0.753019
H29   H     H_    0.788195 0.344031 0.722700 0.375098
O58   O     O_3   0.945244 0.836836 0.404534 -0.730853
H30   H     H_    0.958421 0.857491 0.447959 0.414875
O59   O     O_3   0.957137 0.832449 0.582257 -0.708068
H31   H     H_    0.974265 0.801298 0.556086 0.317139
O60   O     O_3   0.925210 0.150831 0.385410 -0.688049
H32   H     H_    0.906812 0.114931 0.383256 0.386064
Cl1   Cl    Cl    0.785402 0.377891 0.852694 -0.427789
Cl2   Cl    Cl    0.068049 0.914876 0.425025 -0.251322
Cl3   Cl    Cl    0.028966 0.932170 0.598130 -0.228742
Cl4   Cl    Cl    0.020619 0.057910 0.381676 -0.249207
Cl5   Cl    Cl    0.305003 0.605773 0.341355 -0.355567
Cl6   Cl    Cl    0.538351 0.428359 0.911263 -0.249611
Cl7   Cl    Cl    0.434026 0.446862 0.216031 -0.274881
Cl8   Cl    Cl    0.557721 0.593378 0.942147 -0.197451
O61   O     O_3   0.044574 0.325771 0.922047 -0.746460
H33   H     H_    0.026363 0.337761 0.970105 0.378586
O62   O     O_3   0.192694 0.797633 0.236981 -0.727384
H34   H     H_    0.234991 0.817731 0.254417 0.390210
O63   O     O_3   0.147328 0.842882 0.817245 -0.696365
H35   H     H_    0.156809 0.878962 0.832006 0.384063
O64   O     O_3   0.162725 0.167864 0.197291 -0.704924
H36   H     H_    0.174095 0.133622 0.176398 0.381158
O65   O     O_3   0.583658 0.639970 0.336743 -0.656498
H37   H     H_    0.582746 0.609461 0.369074 0.375010
O66   O     O_3   0.650513 0.340459 0.686969 -0.751865
H38   H     H_    0.661982 0.376442 0.673341 0.363615
O67   O     O_3   0.483094 0.316790 0.425779 -0.690826
H39   H     H_    0.464745 0.346245 0.454503 0.386349
O68   O     O_3   0.635352 0.652666 0.682695 -0.714993
H40   H     H_    0.665490 0.621575 0.687806 0.389401
Cl9   Cl    Cl    0.997147 0.048967 0.129656 -0.420621
Cl10  Cl    Cl    0.063267 0.953063 0.213286 -0.359688
Cl11  Cl    Cl    0.659429 0.566813 0.224271 -0.239963
Cl12  Cl    Cl    0.628967 0.449301 0.227184 -0.289530
Cl13  Cl    Cl    0.159032 0.439141 0.129500 -0.390764
Cl14  Cl    Cl    0.116374 0.562412 0.921996 -0.422149
Cl15  Cl    Cl    0.129490 0.551319 0.095238 -0.346079
Cl16  Cl    Cl    0.100162 0.449087 0.966210 -0.334155
Cl17  Cl    Cl    0.601591 0.935200 0.536359 -0.420251
Cl18  Cl    Cl    0.710832 0.058623 0.343915 -0.376718
Cl19  Cl    Cl    0.599090 0.047724 0.481752 -0.349380
Cl20  Cl    Cl    0.661708 0.949686 0.374426 -0.331543
Cl21  Cl    Cl    0.206180 0.901825 0.154775 -0.442481
Cl22  Cl    Cl    0.066203 0.078884 0.976234 -0.424569
Cl23  Cl    Cl    0.675440 0.382460 0.354228 -0.479703
Cl24  Cl    Cl    0.756104 0.617130 0.343725 -0.487062
Cl25  Cl    Cl    0.396394 0.438718 0.030268 -0.347120
Cl26  Cl    Cl    0.371889 0.562386 0.909081 -0.404532
Cl27  Cl    Cl    0.386555 0.551667 0.062583 -0.379892
Cl28  Cl    Cl    0.347092 0.450007 0.884515 -0.451949
Cl29  Cl    Cl    0.846655 0.938941 0.620787 -0.386274
Cl30  Cl    Cl    0.899207 0.064919 0.523685 -0.358292
Cl31  Cl    Cl    0.803683 0.047800 0.642451 -0.457206
Cl32  Cl    Cl    0.898624 0.954199 0.476062 -0.407578
Cl33  Cl    Cl    0.917656 0.395576 0.954394 -0.370278
Cl34  Cl    Cl    0.210493 0.886426 0.346578 -0.335759
Cl35  Cl    Cl    0.139090 0.939646 0.726096 -0.379649
Cl36  Cl    Cl    0.157390 0.069954 0.282842 -0.342935
Cl37  Cl    Cl    0.461809 0.562075 0.372177 -0.388561
Cl38  Cl    Cl    0.641765 0.437093 0.778240 -0.383661
Cl39  Cl    Cl    0.460087 0.431322 0.385978 -0.406950
Cl40  Cl    Cl    0.638872 0.566056 0.796462 -0.337974
O69   O     O_3   0.160796 0.096927 0.706998 -0.613072
H41   H     H_    0.153240 0.069829 0.669628 0.421194
O70   O     O_3   0.943179 0.606991 0.072568 -0.618330
H42   H     H_    0.900780 0.583450 0.075959 0.402103
O71   O     O_3   0.957263 0.598933 0.916867 -0.606427
H43   H     H_    0.920193 0.571581 0.909824 0.402824
O72   O     O_3   0.986055 0.419786 0.120549 -0.594717
H44   H     H_    0.951746 0.447921 0.131163 0.407743
O73   O     O_3   0.671918 0.890238 0.166916 -0.668663
H45   H     H_    0.660430 0.919222 0.133903 0.394514
O74   O     O_3   0.479438 0.084232 0.608037 -0.668301
H46   H     H_    0.446123 0.055151 0.618789 0.398238
O75   O     O_3   0.549668 0.057626 0.305118 -0.586541
H47   H     H_    0.530291 0.027635 0.277831 0.412645
O76   O     O_3   0.451390 0.892496 0.569205 -0.639938
H48   H     H_    0.411734 0.917951 0.570016 0.407176
Cl41  Cl    Cl    0.525169 0.940668 0.124037 -0.457702
Cl42  Cl    Cl    0.331416 0.081575 0.686562 -0.434477
Cl43  Cl    Cl    0.411232 0.044290 0.211429 -0.360200
Cl44  Cl    Cl    0.320236 0.908083 0.672041 -0.420303
Cl45  Cl    Cl    0.084631 0.100616 0.557025 -0.305753
Cl46  Cl    Cl    0.789241 0.628201 0.130018 -0.342186
Cl47  Cl    Cl    0.805847 0.607741 0.850065 -0.443966
Cl48  Cl    Cl    0.839978 0.421777 0.204808 -0.428025
Cl49  Cl    Cl    0.390468 0.873239 0.169762 -0.420879
Cl50  Cl    Cl    0.302691 0.176287 0.782706 -0.618764
Cl51  Cl    Cl    0.333482 0.147281 0.183694 -0.497831
Cl52  Cl    Cl    0.306113 0.826501 0.790978 -0.566718
Cl53  Cl    Cl    0.976458 0.189178 0.541476 -0.493940
Cl54  Cl    Cl    0.783153 0.718370 0.240414 -0.488543
Cl55  Cl    Cl    0.795376 0.685962 0.725026 -0.597842
Cl56  Cl    Cl    0.803370 0.317395 0.276789 -0.484440

loop_
_geom_bond_atom_site_label_1
_geom_bond_atom_site_label_2
_geom_bond_distance
_ccdc_geom_bond_type
C165  C169  1.413761 A    
O75   H47   0.987824 S    
C25   Cl13  1.806715 S    
C122  C130  1.411169 A    
C27   Cl15  1.806031 S    
C176  C180  1.397105 A    
C127  C135  1.397373 A    
O63   H35   0.988368 S    
O26   C7    1.278029 A    
C94   C102  1.433923 A    
C173  C177  1.405270 A    
C78   C82   1.407208 A    
C175  C179  1.404163 A    
O30   C11   1.278035 A    
C156  C160  1.390243 A    
C78   C94   1.427786 A    
C153  H17   1.078272 S    
C125  C133  1.411154 A    
Zn12  O26   1.935331 S    
C138  C146  1.409184 A    
C133  C137  1.390654 A    
C7    C93   1.453968 S    
C29   C39   1.569910 S    
C71   C79   1.443090 A    
C136  Cl4   1.769953 S    
C43   H11   1.081107 S    
C29   H5    1.111986 S    
C67   C75   1.432113 A    
C124  C132  1.392721 A    
C11   C115  1.456313 S    
C161  C162  1.411792 A    
C12   C116  1.453124 S    
C54   C58   1.403796 A    
C32   C39   1.574413 S    
O11   C7    1.279463 A    
O34   C15   1.272316 A    
C100  C112  1.413872 A    
C21   C37   1.499261 S    
C90   C98   1.433993 A    
C151  O67   1.384525 S    
C105  C145  1.435638 A    
Zn1   O44   1.954857 S    
C25   H1    1.111899 S    
C31   C40   1.567782 S    
Zn2   O43   1.954852 S    
C97   C121  1.424181 A    
C173  Cl21  1.761958 S    
Zn5   O48   1.954857 S    
C155  C164  1.421457 A    
Zn6   O47   1.954852 S    
C175  Cl23  1.765136 S    
C140  C148  1.403605 A    
Zn7   O46   1.955530 S    
O16   C12   1.272838 A    
C47   C87   1.411457 A    
C70   Cl54  1.768077 S    
O64   H36   0.990343 S    
C70   C78   1.434601 A    
C154  H18   1.075177 S    
Zn16  O4    1.965258 S    
C124  O56   1.375195 S    
C45   C85   1.413371 A    
Zn12  O4    1.951172 S    
Zn1   O13   1.936949 S    
Zn3   O15   1.941524 S    
C24   C40   1.496821 S    
C102  C106  1.417577 A    
C53   C57   1.410413 A    
C46   H14   1.080892 S    
C164  C168  1.410381 A    
C28   H4    1.111355 S    
C42   C82   1.413327 A    
C51   O71   1.380038 S    
C29   Cl17  1.796583 S    
Zn6   O4    1.947868 S    
C160  H24   1.082213 S    
C4    C90   1.450497 S    
C35   Cl32  1.802552 S    
C34   Cl27  1.810163 S    
C30   H6    1.111777 S    
Zn10  O22   1.935331 S    
C58   Cl42  1.772488 S    
O25   C8    1.297600 A    
Zn13  O29   1.933085 S    
Zn10  O2    1.951172 S    
C75   C91   1.432848 A    
C154  C161  1.420387 A    
C54   O74   1.381890 S    
O29   C12   1.280291 A    
Zn15  O33   1.933085 S    
C15   C119  1.482476 S    
C67   Cl51  1.772552 S    
C130  Cl6   1.771463 S    
C66   Cl50  1.775084 S    
C13   C117  1.493634 S    
C48   H16   1.082078 S    
C64   Cl48  1.773139 S    
C50   O70   1.380393 S    
C26   H2    1.111742 S    
C43   C83   1.415022 A    
C140  Cl36  1.772705 S    
O76   H48   0.987745 S    
C44   C84   1.417362 A    
O37   C17   1.299026 A    
C106  C114  1.418519 A    
O48   C23   1.275990 A    
C131  Cl7   1.764295 S    
C174  Cl22  1.773112 S    
C132  Cl8   1.768119 S    
C104  C108  1.420386 A    
C36   Cl31  1.816110 S    
O71   H43   0.988671 S    
C148  O64   1.379863 S    
C146  O62   1.383183 S    
C156  H20   1.078901 S    
C35   C36   1.590063 S    
Zn16  O35   1.930492 S    
C142  Cl38  1.770623 S    
C44   H12   1.080649 S    
C33   Cl25  1.799297 S    
C22   C38   1.495020 S    
C129  C141  1.398788 A    
Zn7   O10   1.935097 S    
O33   C16   1.272103 A    
C82   C114  1.406917 A    
C169  C170  1.395684 A    
O40   C20   1.284600 A    
C74   C90   1.427847 A    
C48   C56   1.387000 A    
C157  C158  1.386022 A    
C138  Cl34  1.775608 S    
Zn5   O17   1.936949 S    
C156  C163  1.423193 A    
C26   Cl14  1.798661 S    
C34   C38   1.582682 S    
C127  O59   1.372619 S    
C18   C165  1.451314 S    
C59   C67   1.407137 A    
C109  C149  1.420923 A    
C25   C27   1.549037 S    
O55   H27   0.991170 S    
C95   C103  1.435439 A    
C174  C178  1.402684 A    
C137  C145  1.407542 A    
C93   C101  1.437982 A    
C131  C143  1.400926 A    
C27   H3    1.111644 S    
C32   H8    1.111725 S    
Zn8   O3    1.946509 S    
C79   C83   1.412275 A    
C80   C84   1.406862 A    
C73   C89   1.411186 A    
O38   C18   1.269801 A    
C122  O54   1.383573 S    
C80   C96   1.425305 A    
O5    C1    1.286481 A    
O32   C9    1.273735 A    
C111  C151  1.421129 A    
C56   C60   1.403763 A    
Zn15  O51   1.959822 S    
C71   Cl55  1.771343 S    
Zn11  O28   1.931931 S    
C76   C88   1.414433 A    
C99   C123  1.424799 A    
C103  C127  1.434089 A    
Zn7   O4    1.946510 S    
C101  C125  1.436211 A    
C63   Cl47  1.770391 S    
C36   C40   1.589334 S    
O8    C4    1.281444 A    
C91   C99   1.415619 A    
C92   C100  1.426971 A    
C161  C165  1.425150 A    
C139  Cl35  1.774455 S    
C110  C118  1.427375 A    
C112  C152  1.436171 A    
O50   C18   1.286601 A    
C155  C159  1.390913 A    
C88   C120  1.417925 A    
C163  C167  1.416139 A    
C134  Cl2   1.765631 S    
Zn1   O1    1.947870 S    
C46   C86   1.416250 A    
C153  C157  1.391575 A    
Zn2   O14   1.939158 S    
C9    C113  1.456086 S    
C52   C64   1.405172 A    
C68   C76   1.443925 A    
C35   Cl29  1.809936 S    
C62   C70   1.411537 A    
C101  C105  1.421949 A    
C172  C176  1.431937 A    
C41   H9    1.081309 S    
C142  C150  1.407802 A    
O9    C5    1.278448 A    
O39   C19   1.272542 A    
O36   C13   1.298707 A    
C59   Cl43  1.773004 S    
C85   C117  1.428069 A    
C99   C111  1.392771 A    
C31   Cl19  1.799792 S    
O13   C9    1.280117 A    
O7    C3    1.278084 A    
C107  C147  1.439764 A    
C3    C89   1.491714 S    
Zn2   O7    1.936907 S    
Zn3   O6    1.935097 S    
O18   C14   1.282975 A    
O31   C10   1.289163 A    
C145  O61   1.383512 S    
C41   C49   1.385091 A    
O6    C2    1.280802 A    
O51   C19   1.281122 A    
C141  C149  1.414902 A    
C43   C51   1.385421 A    
C166  C170  1.424141 A    
C177  C178  1.399040 A    
C121  C129  1.397030 A    
O54   H26   0.988050 S    
C176  Cl24  1.768908 S    
O73   H45   0.987998 S    
C36   Cl30  1.799376 S    
C179  C180  1.386380 A    
Zn14  O30   1.932184 S    
Zn15  O3    1.950870 S    
Zn11  O3    1.965559 S    
O41   C21   1.273446 A    
C177  Cl10  1.767280 S    
C61   C69   1.411999 A    
Zn16  O34   1.932184 S    
C62   Cl46  1.767348 S    
C27   C38   1.572713 S    
C159  C160  1.384276 A    
C144  C152  1.415524 A    
Zn8   O20   1.935140 S    
C152  O68   1.382733 S    
C135  Cl3   1.759521 S    
C105  C113  1.423034 A    
C8    C94   1.464764 S    
O72   H44   0.987527 S    
O56   H28   0.991351 S    
C108  C116  1.423555 A    
C96   C104  1.438926 A    
Zn8   O9    1.941479 S    
C28   Cl16  1.799686 S    
C100  C124  1.432655 A    
C76   C92   1.430490 A    
C126  O58   1.380168 S    
C74   C86   1.410869 A    
C106  C146  1.429631 A    
O66   H38   0.987678 S    
C56   O76   1.381976 S    
C83   C115  1.415735 A    
C84   C116  1.414746 A    
C123  C131  1.401264 A    
O70   H42   0.988555 S    
O19   C15   1.305153 A    
C49   C61   1.403552 A    
C150  O66   1.381586 S    
O67   H39   0.987641 S    
Zn9   O24   1.931931 S    
Zn6   O18   1.939158 S    
C107  C115  1.425261 A    
Zn10  O23   1.932835 S    
O62   H34   0.985807 S    
C1    C91   1.456542 S    
O59   H31   0.991698 S    
C2    C92   1.448318 S    
C58   C66   1.411458 A    
C121  O53   1.379564 S    
C167  C171  1.437628 A    
O60   H32   0.989545 S    
C69   Cl53  1.772281 S    
C97   C109  1.407200 A    
C155  H19   1.080283 S    
C25   C37   1.578617 S    
Zn15  O36   1.935584 S    
O15   C11   1.284013 A    
O42   C22   1.274343 A    
C20   C167  1.445929 S    
C47   H15   1.078557 S    
Zn4   O1    1.946509 S    
C68   Cl52  1.770333 S    
C45   H13   1.078962 S    
C32   Cl20  1.810407 S    
C61   Cl45  1.772100 S    
C28   C37   1.569067 S    
C73   C85   1.408302 A    
O12   C8    1.273713 A    
Zn11  O39   1.952564 S    
C141  Cl37  1.765194 S    
C47   C55   1.393864 A    
C133  Cl1   1.769301 S    
C45   C53   1.395079 A    
C104  C128  1.437768 A    
C44   C52   1.389347 A    
Zn5   O3    1.947870 S    
Zn13  O1    1.950870 S    
C31   H7    1.111537 S    
C57   C65   1.405957 A    
C66   C74   1.443171 A    
C60   C68   1.410773 A    
C33   C34   1.595519 S    
C123  O55   1.378166 S    
C23   C39   1.496099 S    
C153  C162  1.417431 A    
C77   C81   1.410170 A    
O28   C5    1.287738 A    
C159  H23   1.079213 S    
C14   C118  1.458150 S    
Zn3   O42   1.955530 S    
O65   H37   0.987492 S    
O21   C4    1.283325 A    
C77   C93   1.429888 A    
C72   C80   1.436270 A    
C143  C151  1.414427 A    
C48   C88   1.415067 A    
C132  C144  1.391939 A    
C135  C139  1.386972 A    
O68   H40   0.986929 S    
C128  O60   1.376835 S    
Zn2   O2    1.947868 S    
O61   H33   0.988421 S    
Zn14  O2    1.965258 S    
C10   C114  1.454179 S    
C34   Cl26  1.809628 S    
C64   C72   1.408437 A    
C26   C38   1.572198 S    
C65   C73   1.421490 A    
Zn13  O49   1.959822 S    
O44   C21   1.278882 A    
C130  C142  1.391437 A    
C63   C71   1.410486 A    
C158  H22   1.082923 S    
C52   O72   1.381893 S    
C16   C120  1.459010 S    
Zn12  O27   1.932835 S    
C55   C59   1.407684 A    
C180  Cl11  1.769316 S    
C170  C174  1.422125 A    
C89   C97   1.422856 A    
Zn3   O2    1.946510 S    
C149  O65   1.381314 S    
C65   Cl49  1.771364 S    
O74   H46   0.987916 S    
C157  H21   1.082266 S    
C137  Cl33  1.773127 S    
O47   C24   1.281209 A    
Zn11  O25   1.930243 S    
Zn16  O52   1.952605 S    
C87   C119  1.420208 A    
C5    C95   1.456150 S    
C6    C96   1.457887 S    
C33   C37   1.586580 S    
Zn8   O45   1.955535 S    
C168  C172  1.425630 A    
C69   C77   1.443307 A    
O27   C6    1.289385 A    
C147  O63   1.379794 S    
C17   C166  1.465222 S    
C57   Cl41  1.768991 S    
C178  Cl9   1.766197 S    
C128  C136  1.410347 A    
C51   C63   1.400306 A    
C126  C134  1.414171 A    
C29   C31   1.559750 S    
C103  C107  1.420552 A    
C19   C168  1.447869 S    
C171  C175  1.446044 A    
C98   C122  1.436400 A    
O24   C1    1.278503 A    
C41   C81   1.414367 A    
C136  C140  1.388932 A    
C125  O57   1.381630 S    
O57   H29   0.987044 S    
C134  C138  1.392069 A    
O46   C24   1.270426 A    
O43   C22   1.275390 A    
Zn4   O41   1.955535 S    
C26   C28   1.554817 S    
C169  C173  1.423513 A    
Zn5   O12   1.939113 S    
C30   C40   1.587942 S    
Zn6   O11   1.936907 S    
C110  C150  1.436097 A    
C86   C118  1.417185 A    
Zn9   O21   1.930243 S    
O53   H25   0.989531 S    
Zn14  O50   1.952605 S    
Zn4   O16   1.935140 S    
O35   C14   1.281860 A    
C30   Cl18  1.807668 S    
Zn12  O40   1.959779 S    
Zn1   O8    1.939113 S    
C60   Cl44  1.774576 S    
Zn9   O1    1.965559 S    
C75   C87   1.419405 A    
C102  C126  1.430018 A    
O52   C20   1.270262 A    
C129  Cl5   1.764986 S    
C171  C172  1.423990 A    
C179  Cl12  1.775146 S    
O58   H30   0.985179 S    
C162  C166  1.413037 A    
C53   O73   1.381492 S    
C108  C148  1.434909 A    
O22   C3    1.296862 A    
C50   C62   1.404285 A    
C143  Cl39  1.765209 S    
C111  C119  1.423369 A    
Zn7   O19   1.941524 S    
O20   C16   1.284408 A    
C109  C117  1.417854 A    
C139  C147  1.407017 A    
Zn13  O32   1.935584 S    
C163  C164  1.402322 A    
O49   C17   1.263611 A    
Zn14  O31   1.930492 S    
C154  C158  1.392054 A    
C30   C32   1.546507 S    
C98   C110  1.420001 A    
Zn4   O5    1.941479 S    
C55   O75   1.380668 S    
C42   H10   1.082749 S    
O10   C6    1.270245 A    
O23   C2    1.273710 A    
C144  Cl40  1.767197 S    
Zn10  O38   1.959779 S    
C81   C113  1.413405 A    
O14   C10   1.272695 A    
C79   C95   1.428354 A    
C72   Cl56  1.767961 S    
Zn9   O37   1.952564 S    
C112  C120  1.425089 A    
C35   C39   1.587536 S    
C42   C50   1.385940 A    
O69   H41   0.987955 S    
O17   C13   1.278683 A    
C46   C54   1.386180 A    
C33   Cl28  1.811603 S    
O45   C23   1.274728 A    
C49   O69   1.381268 S    
