data_mof_unit_34352.cif
_audit_creation_date              2012-12-10T20:49:08-0500
_audit_creation_method            fapswitch 2.2
_symmetry_space_group_name_H-M    P1
_symmetry_Int_Tables_number       1
_space_group_crystal_system       triclinic
_cell_length_a                    8.927384
_cell_length_b                    8.131638
_cell_length_c                    10.573009
_cell_angle_alpha                 90.387536
_cell_angle_beta                  89.982546
_cell_angle_gamma                 89.966595
_cell_volume                      767.5219873

loop_
_atom_site_label
_atom_site_type_symbol
_atom_type_description
_atom_site_fract_x
_atom_site_fract_y
_atom_site_fract_z
_atom_type_partial_charge
C1    C     C_R   0.218107 0.500028 0.499974 0.929367
C2    C     C_3   0.631595 0.438745 0.043681 -0.277503
C3    C     C_3   0.502490 0.499945 0.877339 -0.083823
C4    C     C_3   0.497510 0.500055 0.122661 -0.083823
C5    C     C_1   0.065228 0.500041 0.499987 -0.175920
C6    C     C_1   0.934772 0.499959 0.500013 -0.175919
C7    C     C_1   0.458194 0.820976 0.091060 0.229270
C8    C     C_1   0.541807 0.179024 0.908940 0.229271
C9    C     C_1   0.738632 0.693732 0.914731 0.186701
C10   C     C_1   0.261367 0.306268 0.085269 0.186701
C11   C     C_R   0.781893 0.499972 0.500026 0.929367
C12   C     C_R   0.498003 0.499767 0.256987 0.876810
C13   C     C_R   0.501997 0.500233 0.743013 0.876811
C14   C     C_3   0.481454 0.654014 0.040970 0.011699
C15   C     C_3   0.518546 0.345986 0.959030 0.011699
C16   C     C_3   0.613694 0.593334 0.960917 -0.010401
C17   C     C_3   0.386306 0.406666 0.039083 -0.010401
C18   C     C_3   0.368405 0.561255 0.956319 -0.277503
H1    H     H_    0.262376 0.610959 0.917075 0.162364
H2    H     H_    0.737624 0.389041 0.082925 0.162364
N1    N     N_1   0.500000 0.073640 0.500000 -0.019608
N2    N     N_1   0.500000 0.926360 0.500000 -0.019608
N3    N     N_1   0.439540 0.951469 0.132385 -0.185658
N4    N     N_1   0.560462 0.048533 0.867615 -0.185659
N5    N     N_1   0.837221 0.772624 0.878242 -0.189180
N6    N     N_1   0.162779 0.227377 0.121757 -0.189180
O1    O     O_R   0.285350 0.636850 0.500000 -0.615602
O2    O     O_R   0.714650 0.363150 0.500000 -0.615602
O3    O     O_R   0.714650 0.636850 0.500000 -0.612725
O4    O     O_R   0.285350 0.363150 0.500000 -0.612725
O5    O     O_R   0.499970 0.636850 0.313950 -0.625802
O6    O     O_R   0.500030 0.363150 0.686050 -0.625802
O7    O     O_R   0.500030 0.636850 0.686050 -0.611834
O8    O     O_R   0.499970 0.363150 0.313950 -0.611834
Zn1   Zn    Zn3+2 0.500000 0.682780 0.500000 1.011844
Zn2   Zn    Zn3+2 0.500000 0.317220 0.500000 1.011844

loop_
_geom_bond_atom_site_label_1
_geom_bond_atom_site_label_2
_ccdc_geom_bond_type
C2    C4    S    
C13   O7    A    
C2    C15   S    
C4    C12   S    
C2    C16   S    
O3    Zn1   S    
C13   O6    A    
C3    C13   S    
O4    Zn2   S    
O1    Zn1   S    
C10   N6    T    
C17   C18   S    
C9    N5    T    
N1    Zn2   S    
N1    N2    T    
N2    Zn1   S    
O2    Zn2   S    
C11   O2    A    
C7    N3    T    
C4    C17   S    
O6    Zn2   S    
O5    Zn1   S    
C1    O4    A    
C8    N4    T    
C9    C16   S    
C8    C15   S    
O8    Zn2   S    
C12   O5    A    
C4    C14   S    
C5    C6    T    
C14   C16   S    
C10   C17   S    
C2    H2    S    
C1    C5    S    
C3    C15   S    
C11   O3    A    
C3    C18   S    
C15   C17   S    
C18   H1    S    
C6    C11   S    
C1    O1    A    
C14   C18   S    
O7    Zn1   S    
C12   O8    A    
C7    C14   S    
C3    C16   S    
