data_mof_unit_9650.cif
_audit_creation_date              2012-12-11T14:08:46-0500
_audit_creation_method            fapswitch 2.2
_symmetry_space_group_name_H-M    P1
_symmetry_Int_Tables_number       1
_space_group_crystal_system       triclinic
_cell_length_a                    28.207822
_cell_length_b                    7.192669
_cell_length_c                    17.198408
_cell_angle_alpha                 90.002221
_cell_angle_beta                  101.917986
_cell_angle_gamma                 89.999818
_cell_volume                      3414.1605715

loop_
_atom_site_label
_atom_site_type_symbol
_atom_type_description
_atom_site_fract_x
_atom_site_fract_y
_atom_site_fract_z
_atom_type_partial_charge
O1    O     O_R   0.000700 0.436510 0.857920 -0.533158
O2    O     O_R   0.999300 0.563490 0.142080 -0.533156
O3    O     O_R   0.999300 0.936510 0.642080 -0.533163
O4    O     O_R   0.000700 0.063490 0.357920 -0.533160
O5    O     O_R   0.930080 0.766380 0.721890 -0.542243
O6    O     O_R   0.069920 0.233620 0.278110 -0.542242
O7    O     O_R   0.069920 0.266380 0.778110 -0.542245
O8    O     O_R   0.930080 0.733620 0.221890 -0.542245
C1    C     C_R   0.910560 0.597566 0.709060 0.696174
C2    C     C_R   0.089439 0.402434 0.290946 0.696176
C3    C     C_R   0.089439 0.097568 0.790939 0.696167
C4    C     C_R   0.910560 0.902432 0.209053 0.696164
O9    O     O_R   0.996180 0.766230 0.862310 -0.543035
O10   O     O_R   0.003820 0.233770 0.137690 -0.543038
O11   O     O_R   0.003820 0.266230 0.637690 -0.543035
O12   O     O_R   0.996180 0.733770 0.362310 -0.543036
O13   O     O_R   0.065870 0.936460 0.783500 -0.539570
O14   O     O_R   0.934130 0.063540 0.216500 -0.539568
O15   O     O_R   0.934130 0.436460 0.716500 -0.539571
O16   O     O_R   0.065870 0.563540 0.283500 -0.539572
C5    C     C_R   0.998485 0.596447 0.894489 0.761244
C6    C     C_R   0.001514 0.403553 0.105511 0.761242
C7    C     C_R   0.001514 0.096443 0.605512 0.761255
C8    C     C_R   0.998486 0.903556 0.394488 0.761263
O17   O     O_3   0.022790 0.603020 0.723980 -0.378157
O18   O     O_3   0.977210 0.396980 0.276020 -0.378155
O19   O     O_3   0.977210 0.103020 0.776020 -0.378157
O20   O     O_3   0.022790 0.896980 0.223980 -0.378157
V1    V     V_3+5 0.995770 0.877900 0.754830 1.411639
V2    V     V_3+5 0.004230 0.122100 0.245170 1.411642
V3    V     V_3+5 0.004230 0.377900 0.745170 1.411638
V4    V     V_3+5 0.995770 0.622100 0.254830 1.411639
C9    C     C_2   0.001704 0.082651 0.519574 -0.330116
C10   C     C_2   0.998296 0.917349 0.480426 -0.330122
C11   C     C_2   0.998296 0.582653 0.980428 -0.330104
C12   C     C_2   0.001704 0.417347 0.019571 -0.330108
H1    H     H_    0.004492 0.211523 0.487905 0.153698
H2    H     H_    0.995508 0.788477 0.512095 0.153698
H3    H     H_    0.995509 0.711525 0.012102 0.153696
H4    H     H_    0.004491 0.288475 0.987898 0.153696
C13   C     C_R   0.682391 0.901473 0.029899 0.582137
C14   C     C_R   0.317616 0.098243 0.970000 0.582150
C15   C     C_R   0.317610 0.401564 0.470089 0.582163
C16   C     C_R   0.682380 0.598508 0.530003 0.582117
O21   O     O_2   0.710692 0.842580 0.980434 -0.513181
O22   O     O_2   0.289317 0.156783 0.019520 -0.513202
O23   O     O_2   0.289314 0.342810 0.519571 -0.513209
O24   O     O_2   0.710675 0.657345 0.480524 -0.513226
N1    N     N_R   0.702934 0.947431 0.106740 -0.561320
N2    N     N_R   0.297070 0.052577 0.893127 -0.561319
N3    N     N_R   0.297064 0.447446 0.393242 -0.561295
N4    N     N_R   0.702930 0.552567 0.606842 -0.561293
C17   C     C_R   0.674995 0.012876 0.157152 0.598258
C18   C     C_R   0.325008 0.987431 0.842656 0.598267
C19   C     C_R   0.325002 0.512805 0.342813 0.598268
C20   C     C_R   0.674994 0.487145 0.657264 0.598248
C21   C     C_R   0.782650 0.097060 0.151025 -0.085478
C22   C     C_R   0.217362 0.902972 0.848707 -0.085484
C23   C     C_R   0.217356 0.597052 0.348797 -0.085443
C24   C     C_R   0.782640 0.402962 0.651248 -0.085449
C25   C     C_R   0.833024 0.086323 0.175726 -0.192101
C26   C     C_R   0.166985 0.913704 0.824046 -0.192130
C27   C     C_R   0.166982 0.586314 0.324101 -0.192131
C28   C     C_R   0.833016 0.413695 0.675919 -0.192147
C29   C     C_R   0.828583 0.750407 0.166812 -0.191339
C30   C     C_R   0.171406 0.249581 0.833304 -0.191353
C31   C     C_R   0.171403 0.250420 0.333348 -0.191362
C32   C     C_R   0.828593 0.749578 0.666712 -0.191372
C33   C     C_R   0.778134 0.761638 0.141803 -0.079209
C34   C     C_R   0.221857 0.238349 0.858284 -0.079214
C35   C     C_R   0.221851 0.261655 0.358355 -0.079190
C36   C     C_R   0.778143 0.738348 0.641731 -0.079180
C37   C     C_R   0.754837 0.935048 0.133702 0.375260
C38   C     C_R   0.245166 0.064963 0.866189 0.375248
C39   C     C_R   0.245160 0.435055 0.366288 0.375192
C40   C     C_R   0.754834 0.564956 0.633790 0.375171
C41   C     C_R   0.602353 0.979080 0.053345 -0.047219
C42   C     C_R   0.397654 0.020941 0.946472 -0.047217
C43   C     C_R   0.397647 0.479086 0.446615 -0.047217
C44   C     C_R   0.602346 0.520928 0.553473 -0.047216
C45   C     C_R   0.631961 0.917718 0.001792 -0.014641
C46   C     C_R   0.368050 0.082047 0.998076 -0.014669
C47   C     C_R   0.368044 0.417766 0.498179 -0.014654
C48   C     C_R   0.631948 0.582294 0.501912 -0.014649
C49   C     C_R   0.611020 0.883447 0.922312 -0.155952
C50   C     C_R   0.388999 0.116135 0.077569 -0.155902
C51   C     C_R   0.388993 0.383475 0.577655 -0.155952
C52   C     C_R   0.610998 0.616604 0.422440 -0.155917
C53   C     C_R   0.624411 0.031769 0.131063 -0.073100
C54   C     C_R   0.375592 0.968505 0.868727 -0.073130
C55   C     C_R   0.375584 0.531734 0.368899 -0.073096
C56   C     C_R   0.624411 0.468233 0.631183 -0.073090
C57   C     C_R   0.856789 0.912816 0.183862 -0.052179
C58   C     C_R   0.143211 0.087189 0.816101 -0.052156
C59   C     C_R   0.143209 0.412817 0.316132 -0.052151
C60   C     C_R   0.856789 0.587183 0.683893 -0.052159
H5    H     H_    0.845428 0.614458 0.172181 0.132298
H6    H     H_    0.154551 0.385512 0.828086 0.132284
H7    H     H_    0.154548 0.114469 0.328119 0.132273
H8    H     H_    0.845447 0.885513 0.671950 0.132289
H9    H     H_    0.757117 0.635314 0.128677 0.123246
H10   H     H_    0.242866 0.364651 0.871540 0.123246
H11   H     H_    0.242859 0.135329 0.371614 0.123296
H12   H     H_    0.757134 0.864662 0.628496 0.123308
H13   H     H_    0.633197 0.848383 0.879945 0.179148
H14   H     H_    0.366827 0.150992 0.119965 0.179129
H15   H     H_    0.366821 0.348437 0.620028 0.179175
H16   H     H_    0.633171 0.651672 0.380066 0.179135
C61   C     C_R   0.478057 0.938444 0.921181 0.003940
C62   C     C_R   0.521950 0.061662 0.078591 0.003924
C63   C     C_R   0.521947 0.438269 0.578724 0.003972
C64   C     C_R   0.478046 0.561735 0.421363 0.003968
C65   C     C_R   0.470346 0.060862 0.052626 0.073394
C66   C     C_R   0.529666 0.939091 0.947173 0.073361
C67   C     C_R   0.529652 0.561012 0.447334 0.073372
C68   C     C_R   0.470341 0.439011 0.552756 0.073373
C69   C     C_R   0.448989 0.008669 0.973166 -0.004452
C70   C     C_R   0.551020 0.991358 0.026628 -0.004420
C71   C     C_R   0.551013 0.508657 0.526770 -0.004436
C72   C     C_R   0.448981 0.491357 0.473318 -0.004422
C73   C     C_R   0.453880 0.861413 0.846787 0.349990
C74   C     C_R   0.546116 0.138922 0.152940 0.349873
C75   C     C_R   0.546123 0.360996 0.653062 0.349947
C76   C     C_R   0.453871 0.638980 0.347019 0.349882
C77   C     C_R   0.403806 0.887983 0.820074 -0.212399
C78   C     C_R   0.596193 0.112489 0.179663 -0.212386
C79   C     C_R   0.596199 0.387485 0.679783 -0.212394
C80   C     C_R   0.403797 0.612457 0.320294 -0.212350
O25   O     O_2   0.303963 0.941026 0.767417 -0.514165
O26   O     O_2   0.696038 0.059628 0.232356 -0.514186
O27   O     O_2   0.696041 0.440449 0.732468 -0.514199
O28   O     O_2   0.303958 0.559411 0.267601 -0.514198
C81   C     C_R   0.561303 0.900571 0.895037 -0.123336
C82   C     C_R   0.438721 0.099147 0.104804 -0.123141
C83   C     C_R   0.438714 0.400508 0.604908 -0.123276
C84   C     C_R   0.561280 0.599541 0.395184 -0.123195
H17   H     H_    0.146741 0.785512 0.811364 0.135832
H18   H     H_    0.853275 0.214530 0.188281 0.135809
H19   H     H_    0.853260 0.285498 0.688586 0.135829
H20   H     H_    0.146740 0.714522 0.311405 0.135821
H21   H     H_    0.234815 0.768118 0.854887 0.121229
H22   H     H_    0.765205 0.231934 0.144694 0.121215
H23   H     H_    0.765188 0.268098 0.645041 0.121292
H24   H     H_    0.234808 0.731932 0.354995 0.121273
H25   H     H_    0.386447 0.835401 0.762137 0.166370
H26   H     H_    0.613548 0.165281 0.237568 0.166361
H27   H     H_    0.613560 0.334691 0.737680 0.166348
H28   H     H_    0.386437 0.665215 0.262393 0.166354
H29   H     H_    0.549199 0.891709 0.831624 0.184447
H30   H     H_    0.450853 0.107917 0.168218 0.184299
H31   H     H_    0.450838 0.391593 0.668317 0.184433
H32   H     H_    0.549158 0.608452 0.331774 0.184362
O29   O     O_3   0.478112 0.745195 0.804151 -0.651567
H33   H     H_    0.455948 0.702941 0.754837 0.289644
O30   O     O_3   0.521862 0.255233 0.195509 -0.651502
H34   H     H_    0.544020 0.297664 0.244801 0.289634
O31   O     O_3   0.521882 0.244622 0.695620 -0.651515
H35   H     H_    0.544042 0.202247 0.744918 0.289607
O32   O     O_3   0.478109 0.755355 0.304458 -0.651550
H36   H     H_    0.455949 0.797707 0.255162 0.289602

loop_
_geom_bond_atom_site_label_1
_geom_bond_atom_site_label_2
_ccdc_geom_bond_type
O17   V3    S    
C47   C51   A    
N1    C17   A    
C22   C26   A    
O1    C5    A    
O19   V1    S    
O13   V1    S    
C74   O30   S    
O3    C7    A    
C11   C12   D    
C14   C46   A    
C27   H20   S    
C44   C48   A    
O4    V2    S    
O15   V3    S    
C62   C70   A    
C78   H26   S    
C61   C69   A    
C68   C83   A    
C42   C54   A    
O7    C3    A    
C41   C53   A    
C32   C60   A    
C73   O29   S    
C21   H22   S    
C63   C71   A    
N3    C39   S    
C18   C54   A    
N2    C38   S    
C24   H23   S    
C52   H16   S    
C25   C57   A    
C25   H18   S    
C31   C35   A    
C67   C84   A    
C82   H30   S    
C76   O32   S    
C27   C59   A    
O1    V3    S    
C15   C47   A    
O2    V4    S    
C14   O22   S    
C21   C37   A    
O3    V1    S    
C34   C38   A    
C19   C55   A    
C73   C77   A    
C1    O15   A    
O31   H35   S    
C2    O16   A    
C7    C9    S    
O2    C6    A    
C33   C37   A    
C63   C68   A    
O14   V2    S    
C79   H27   S    
C43   C55   A    
C31   H7    S    
C76   C80   A    
C16   N4    A    
O11   C7    A    
C44   C71   A    
O12   C8    A    
C31   C59   A    
C36   H12   S    
C50   H14   S    
O10   V2    S    
C49   H13   S    
C13   N1    A    
C84   H32   S    
C50   C82   A    
O5    V1    S    
C53   C78   A    
O7    V3    S    
C55   C80   A    
C63   C75   A    
O8    V4    S    
C51   C83   A    
C12   H4    S    
C42   C69   A    
C81   H29   S    
C28   C60   A    
C41   C70   A    
C64   C72   A    
O18   V4    S    
C80   H28   S    
C75   O31   S    
N4    C40   S    
C46   C50   A    
O11   V3    S    
C24   C40   A    
C8    C10   S    
C68   C72   A    
C32   C36   A    
C74   C78   A    
C11   H3    S    
C32   H8    S    
O5    C1    A    
C54   C77   A    
C42   C46   A    
C75   C79   A    
O32   H36   S    
C1    C60   S    
C41   C45   A    
O8    C4    A    
C13   C45   A    
C43   C72   A    
C9    C10   D    
O9    C5    A    
C36   C40   A    
N2    C18   A    
C21   C25   A    
C44   C56   A    
C62   C65   A    
C52   C84   A    
C66   C70   A    
C61   C66   A    
C14   N2    A    
C65   C69   A    
C3    C58   S    
O6    V2    S    
C23   H24   S    
C67   C71   A    
C65   C82   A    
C26   C58   A    
C17   C53   A    
O10   C6    A    
N1    C37   S    
C4    C57   S    
C56   C79   A    
C23   C39   A    
C22   C38   A    
O16   V4    S    
O9    V1    S    
C83   H31   S    
C18   O25   S    
C35   H11   S    
C3    O13   A    
C10   H2    S    
C48   C52   A    
C17   O26   S    
C16   C48   A    
O6    C2    A    
C34   H10   S    
C64   C76   A    
C5    C11   S    
C33   H9    S    
O12   V4    S    
C6    C12   S    
C23   C27   A    
C30   C58   A    
C24   C28   A    
C30   H6    S    
O20   V2    S    
C29   H5    S    
C77   H25   S    
C62   C74   A    
C35   C39   A    
C22   H21   S    
C15   N3    A    
C30   C34   A    
C2    C59   S    
O4    C8    A    
C29   C33   A    
C29   C57   A    
C66   C81   A    
N3    C19   A    
C26   H17   S    
C9    H1    S    
C20   O27   S    
C43   C47   A    
N4    C20   A    
C20   C56   A    
C51   H15   S    
C19   O28   S    
C4    O14   A    
O30   H34   S    
C13   O21   S    
C61   C73   A    
O29   H33   S    
C15   O23   S    
C64   C67   A    
C45   C49   A    
C16   O24   S    
C49   C81   A    
C28   H19   S    
