data_mof_unit_26048.cif
_audit_creation_date              2012-12-11T14:15:40-0500
_audit_creation_method            fapswitch 2.2
_symmetry_space_group_name_H-M    P1
_symmetry_Int_Tables_number       1
_space_group_crystal_system       triclinic
_cell_length_a                    11.159018
_cell_length_b                    12.736528
_cell_length_c                    23.558464
_cell_angle_alpha                 90.772661
_cell_angle_beta                  97.028564
_cell_angle_gamma                 68.578191
_cell_volume                      3091.79797663

loop_
_atom_site_label
_atom_site_type_symbol
_atom_type_description
_atom_site_fract_x
_atom_site_fract_y
_atom_site_fract_z
_atom_type_partial_charge
C1    C     C_R   0.150179 0.616601 0.429281 0.548685
C2    C     C_R   0.700826 0.541629 0.308299 -0.156581
C3    C     C_R   0.685821 0.737045 0.318286 0.151828
C4    C     C_R   0.685196 0.745426 0.258717 0.067552
C5    C     C_R   0.697192 0.649319 0.225446 0.019712
C6    C     C_R   0.695446 0.655621 0.166783 -0.113619
C7    C     C_R   0.662196 0.853967 0.171657 -0.121745
C8    C     C_R   0.672352 0.846769 0.231042 -0.082929
C9    C     C_1   0.236686 0.161632 0.123298 0.002781
C10   C     C_2   0.182707 0.231471 0.227019 -0.121692
C11   C     C_2   0.154673 0.165032 0.262822 -0.101028
C12   C     C_R   0.749682 0.603666 0.403782 0.567564
C13   C     C_1   0.131800 0.198874 0.320543 -0.015577
C14   C     C_1   0.211729 0.196055 0.170119 -0.039296
C15   C     C_1   0.115573 0.232133 0.368304 0.023166
C16   C     C_1   0.173384 0.759184 0.126287 -0.000501
C17   C     C_2   0.148796 0.735434 0.235243 0.103076
C18   C     C_2   0.239111 0.655773 0.270446 -0.101484
C19   C     C_1   0.220657 0.642799 0.329212 0.001540
C20   C     C_1   0.162803 0.744207 0.175604 -0.023037
C21   C     C_1   0.195113 0.631804 0.376564 0.036708
C22   C     C_1   0.628097 0.759476 0.865615 0.032024
C23   C     C_R   0.100977 0.282351 0.423299 0.553713
C24   C     C_2   0.685930 0.734564 0.759658 -0.090115
C25   C     C_2   0.660672 0.654811 0.728210 0.181421
C26   C     C_1   0.680543 0.645208 0.668950 0.002826
C27   C     C_1   0.659956 0.747985 0.818231 0.009670
C28   C     C_1   0.704876 0.630343 0.620458 0.013443
C29   C     C_R   0.195107 0.180231 0.854837 0.017522
C30   C     C_R   0.105764 0.238784 0.642851 0.020672
C31   C     C_R   0.030960 0.148884 0.713063 -0.097446
C32   C     C_R   0.031302 0.176766 0.656061 -0.091343
C33   C     C_R   0.173812 0.278067 0.686271 -0.114310
C34   C     C_R   0.152120 0.617686 0.590083 0.558637
C35   C     C_R   0.171974 0.252970 0.742765 0.045899
C36   C     C_R   0.102568 0.185636 0.756555 0.047133
C37   C     C_R   0.112624 0.151218 0.813207 -0.111872
C38   C     C_R   0.254500 0.254750 0.841525 -0.121561
C39   C     C_R   0.242608 0.291278 0.785482 -0.124735
C40   C     C_R   0.131225 0.757632 0.848352 0.011339
C41   C     C_R   0.201126 0.640817 0.647410 0.026285
C42   C     C_R   0.298066 0.559866 0.741993 -0.112262
C43   C     C_R   0.288568 0.550904 0.682896 -0.139944
C44   C     C_R   0.134414 0.744449 0.671436 0.161334
C45   C     C_R   0.750710 0.601721 0.566156 0.548161
C46   C     C_R   0.127761 0.746513 0.730144 0.063222
C47   C     C_R   0.213498 0.654826 0.765920 0.027139
C48   C     C_R   0.216061 0.661554 0.825085 -0.110824
C49   C     C_R   0.033829 0.840179 0.812242 -0.143690
C50   C     C_R   0.034343 0.836280 0.753681 -0.126156
C51   C     C_R   0.266085 0.109768 0.069554 0.542873
C52   C     C_R   0.600242 0.775492 0.081071 0.541764
C53   C     C_R   0.189992 0.788559 0.069931 0.545711
C54   C     C_R   0.240621 0.114842 0.907912 0.545487
C55   C     C_R   0.574790 0.776361 0.918712 0.548766
C56   C     C_R   0.099638 0.280222 0.585436 0.551818
C57   C     C_R   0.164367 0.787879 0.906370 0.544324
C58   C     C_R   0.665892 0.759704 0.139359 0.009177
C59   C     C_R   0.701642 0.631904 0.343261 0.024936
C60   C     C_R   0.701069 0.549643 0.250193 -0.154055
Cr1   Cr    Cr6+3 0.189770 0.415650 0.511620 1.046862
Cr2   Cr    Cr6+3 0.930400 0.667320 0.496770 1.129714
Cr3   Cr    Cr6+3 0.879870 0.417010 0.491650 1.052731
Cr4   Cr    Cr6+3 0.149500 0.973980 0.985330 1.036082
Cr5   Cr    Cr6+3 0.457000 0.976510 0.994660 1.033678
Cr6   Cr    Cr6+3 0.411170 0.724270 0.995270 1.037164
H1    H     H_    0.700617 0.582104 0.141862 0.130415
H2    H     H_    0.718953 0.794593 0.740456 0.102258
H3    H     H_    0.066928 0.093288 0.823767 0.124313
H4    H     H_    0.317360 0.278172 0.873774 0.129991
H5    H     H_    0.976018 0.098385 0.723094 0.126322
H6    H     H_    0.295079 0.343364 0.775096 0.102652
H7    H     H_    0.974258 0.150189 0.622478 0.166447
H8    H     H_    0.226584 0.330606 0.676159 0.123855
H9    H     H_    0.289275 0.596014 0.852798 0.131573
H10   H     H_    0.640221 0.935561 0.151085 0.148394
H11   H     H_    0.964466 0.913872 0.829161 0.137945
H12   H     H_    0.366353 0.490394 0.768956 0.147329
H13   H     H_    0.961526 0.904119 0.727373 0.152549
H14   H     H_    0.344254 0.471624 0.665215 0.147351
H15   H     H_    0.705901 0.477045 0.224661 0.122709
H16   H     H_    0.664143 0.922294 0.254307 0.185513
H17   H     H_    0.710311 0.460583 0.326090 0.157388
H18   H     H_    0.151516 0.084045 0.249358 0.164005
H19   H     H_    0.186600 0.312099 0.240719 0.136606
H20   H     H_    0.323759 0.595266 0.254247 0.109205
O1    O     O_R   0.196340 0.303200 0.448500 -0.494610
O2    O     O_R   0.811960 0.658090 0.547150 -0.484971
O3    O     O_R   0.757930 0.506140 0.547110 -0.499947
O4    O     O_R   0.988670 0.321620 0.556040 -0.495542
O5    O     O_3   0.000020 0.499990 0.500010 -0.277873
O6    O     O_R   0.113660 0.883270 0.047820 -0.500018
O7    O     O_R   0.186930 0.068530 0.043990 -0.492482
O8    O     O_R   0.377770 0.089040 0.054220 -0.512141
O9    O     O_R   0.562800 0.872960 0.056970 -0.503246
O10   O     O_R   0.555390 0.700940 0.062700 -0.518095
O11   O     O_R   0.295020 0.731920 0.049950 -0.498048
O12   O     O_R   0.199310 0.519670 0.454880 -0.504754
O13   O     O_R   0.094290 0.884230 0.921550 -0.521905
O14   O     O_R   0.168980 0.069410 0.926940 -0.504290
O15   O     O_R   0.358400 0.089990 0.927950 -0.512065
O16   O     O_R   0.544850 0.873850 0.939920 -0.498429
O17   O     O_R   0.536020 0.701900 0.936430 -0.491731
O18   O     O_R   0.277070 0.732810 0.932890 -0.498681
O19   O     O_3   0.339220 0.891590 0.991750 -0.251643
O20   O     O_R   0.045660 0.691380 0.441680 -0.461937
O21   O     O_R   0.811930 0.659460 0.430950 -0.448211
O22   O     O_R   0.757900 0.507620 0.421760 -0.529460
O23   O     O_R   0.988630 0.322990 0.439840 -0.494447
O24   O     O_R   0.196380 0.301720 0.573850 -0.512911
O25   O     O_R   0.199350 0.518300 0.571080 -0.519171
O26   O     O_R   0.045700 0.689900 0.567030 -0.454007
I1    I     I_    0.986351 0.861216 0.264993 -0.357418
Br1   Br    Br    0.612364 0.541477 0.761239 -0.533907
Br2   Br    Br    0.057646 0.883286 0.625155 -0.526814
Br3   Br    Br    0.660166 0.868130 0.364804 -0.466406

loop_
_geom_bond_atom_site_label_1
_geom_bond_atom_site_label_2
_ccdc_geom_bond_type
C38   H4    S    
C10   H19   S    
C1    C21   S    
C37   H3    S    
C34   O26   A    
C6    C58   A    
C54   O15   A    
C35   C36   A    
C9    C51   S    
C24   C27   S    
Cr5   O15   S    
C4    C8    A    
C50   H13   S    
C17   I1    S    
C7    C8    A    
C55   O16   A    
C18   H20   S    
C8    H16   S    
Cr6   O11   S    
C36   C37   A    
C19   C21   T    
Cr4   O7    S    
C3    Br3   S    
C38   C39   A    
C2    C60   A    
C29   C54   S    
C40   C49   A    
C57   O13   A    
C55   O17   A    
C17   C20   S    
C52   O9    A    
C18   C19   S    
Cr5   O19   S    
C16   C53   S    
Cr1   O1    S    
C12   C59   S    
Cr4   O13   S    
Cr1   O12   S    
C44   Br2   S    
C29   C38   A    
C39   H6    S    
C45   O3    A    
C7    C58   A    
C5    C60   A    
C1    O20   A    
C15   C23   S    
C23   O1    A    
C34   O25   A    
C41   C43   A    
C48   H9    S    
C54   O14   A    
C2    H17   S    
C34   C41   S    
Cr5   O16   S    
Cr1   O24   S    
C56   O24   A    
C44   C46   A    
C23   O23   A    
C28   C45   S    
Cr6   O18   S    
Cr4   O19   S    
C45   O2    A    
C24   C25   D    
C10   C14   S    
C32   H7    S    
C12   O22   A    
C2    C59   A    
Cr2   O21   S    
C53   O11   A    
C43   H14   S    
C30   C56   S    
Cr3   O23   S    
C35   C39   A    
C9    C14   T    
C60   H15   S    
C47   C48   A    
Cr4   O14   S    
C16   C20   T    
Cr2   O5    S    
Cr3   O3    S    
C53   O6    A    
C17   C18   D    
C22   C55   S    
C52   C58   S    
C51   O7    A    
Cr5   O8    S    
C42   H12   S    
C22   C27   T    
C13   C15   T    
C41   C44   A    
C42   C43   A    
Cr4   O6    S    
Cr6   O19   S    
C29   C37   A    
C3    C4    A    
Cr1   O25   S    
Cr6   O10   S    
C40   C48   A    
C57   O18   A    
C46   C47   A    
C6    H1    S    
C40   C57   S    
C30   C33   A    
Cr6   O17   S    
C31   C32   A    
C4    C5    A    
C1    O12   A    
C12   O21   A    
C7    H10   S    
Cr2   O20   S    
C11   H18   S    
C46   C50   A    
C26   C28   T    
C25   C26   S    
C25   Br1   S    
C30   C32   A    
C11   C13   S    
C5    C6    A    
Cr2   O2    S    
Cr3   O4    S    
C56   O4    A    
C33   C35   A    
C49   H11   S    
C52   O10   A    
C42   C47   A    
C10   C11   D    
C24   H2    S    
C51   O8    A    
C33   H8    S    
Cr5   O9    S    
Cr2   O26   S    
C49   C50   A    
Cr3   O5    S    
C31   C36   A    
Cr3   O22   S    
Cr1   O5    S    
C31   H5    S    
C3    C59   A    
