data_mof_unit_26911.cif
_audit_creation_date              2012-12-11T16:37:17-0500
_audit_creation_method            fapswitch 2.2
_symmetry_space_group_name_H-M    P1
_symmetry_Int_Tables_number       1
_space_group_crystal_system       triclinic
_cell_length_a                    19.611928
_cell_length_b                    6.967931
_cell_length_c                    17.57673
_cell_angle_alpha                 90.195163
_cell_angle_beta                  108.909064
_cell_angle_gamma                 90.439197
_cell_volume                      2272.20665604

loop_
_atom_site_label
_atom_site_type_symbol
_atom_type_description
_atom_site_fract_x
_atom_site_fract_y
_atom_site_fract_z
_atom_type_partial_charge
O1    O     O_R   0.561710 0.369960 0.440200 -0.508505
O2    O     O_R   0.061710 0.630040 0.940200 -0.512955
O3    O     O_R   0.412630 0.033330 0.406330 -0.550288
O4    O     O_R   0.912630 0.966670 0.906330 -0.545790
O5    O     O_R   0.438290 0.869790 0.559800 -0.541881
O6    O     O_R   0.938290 0.130210 0.059800 -0.540295
C1    C     C_R   0.386458 0.203096 0.381059 0.666167
C2    C     C_R   0.885461 0.796165 0.882160 0.651422
O7    O     O_R   0.559570 0.039810 0.430640 -0.547096
O8    O     O_R   0.059570 0.960190 0.930640 -0.551343
O9    O     O_R   0.586280 0.876320 0.584290 -0.544903
O10   O     O_R   0.086280 0.123680 0.084290 -0.543629
C3    C     C_R   0.581924 0.209355 0.416351 0.716891
C4    C     C_R   0.081344 0.790548 0.915520 0.717271
O11   O     O_R   0.413720 0.363440 0.415710 -0.551878
O12   O     O_R   0.913720 0.636560 0.915710 -0.551177
O13   O     O_3   0.508590 0.205630 0.550380 -0.368647
O14   O     O_3   0.008590 0.794370 0.050380 -0.361532
V1    V     V_3+5 0.498410 0.928130 0.490650 1.383120
V2    V     V_3+5 0.998410 0.071870 0.990650 1.394814
O15   O     O_R   0.587370 0.546990 0.593670 -0.537009
O16   O     O_R   0.087370 0.453010 0.093670 -0.539255
C5    C     C_R   0.612985 0.718476 0.619416 0.685383
C6    C     C_R   0.115585 0.283977 0.116343 0.688258
O17   O     O_R   0.440430 0.540520 0.569360 -0.515026
O18   O     O_R   0.940430 0.459480 0.069360 -0.517665
C7    C     C_R   0.421408 0.709881 0.587475 0.727082
C8    C     C_R   0.918937 0.290302 0.083979 0.736790
V3    V     V_3+5 0.501590 0.428960 0.509350 1.444542
V4    V     V_3+5 0.001590 0.571040 0.009350 1.457181
O19   O     O_3   0.491410 0.701330 0.449620 -0.382061
O20   O     O_3   0.991410 0.298670 0.949620 -0.375410
C9    C     C_R   0.300840 0.915653 0.698906 -0.171275
C10   C     C_R   0.765445 0.137683 0.156654 -0.192511
H1    H     H_    0.269758 0.044953 0.695904 0.161742
H2    H     H_    0.717580 0.048554 0.134117 0.139011
C11   C     C_R   0.342053 0.896216 0.647586 -0.203083
C12   C     C_R   0.811734 0.152627 0.110949 -0.223091
H3    H     H_    0.342629 0.013952 0.607720 0.179112
H4    H     H_    0.799143 0.072100 0.055172 0.140689
C13   C     C_R   0.379417 0.725519 0.644921 -0.228640
C14   C     C_R   0.871942 0.275792 0.134759 -0.198658
C15   C     C_R   0.378570 0.577832 0.699929 0.342536
C16   C     C_R   0.887986 0.376692 0.208254 0.354044
C17   C     C_R   0.338487 0.599630 0.753397 0.352685
C18   C     C_R   0.843177 0.355229 0.256389 0.361542
C19   C     C_R   0.296355 0.766213 0.750231 -0.075173
C20   C     C_R   0.779304 0.240783 0.228998 -0.054027
C21   C     C_R   0.191779 0.623899 0.781879 -0.211427
C22   C     C_R   0.710564 0.399838 0.309565 -0.223702
C23   C     C_R   0.137647 0.620957 0.820127 0.394232
C24   C     C_R   0.669036 0.393158 0.361893 0.401904
C25   C     C_R   0.134754 0.779739 0.870668 -0.116490
C26   C     C_R   0.631749 0.220876 0.367389 -0.126547
C27   C     C_R   0.185512 0.930387 0.880956 -0.245937
C28   C     C_R   0.643805 0.056334 0.326809 -0.247396
C29   C     C_R   0.237419 0.928937 0.841734 -0.193861
C30   C     C_R   0.691591 0.061229 0.282345 -0.168788
H5    H     H_    0.274858 0.047993 0.850215 0.153286
H6    H     H_    0.701963 0.929526 0.255292 0.125719
C31   C     C_R   0.241446 0.774362 0.792578 0.082045
C32   C     C_R   0.726075 0.233298 0.273735 0.076108
C33   C     C_R   0.774529 0.611764 0.802666 0.034130
C34   C     C_R   0.281195 0.393652 0.297885 0.041271
C35   C     C_R   0.816416 0.779387 0.813788 -0.104784
C36   C     C_R   0.318642 0.220541 0.311619 -0.078652
C37   C     C_R   0.789649 0.927692 0.759084 -0.162020
C38   C     C_R   0.289996 0.072176 0.256522 -0.174907
H7    H     H_    0.823298 0.050443 0.759398 0.132467
H8    H     H_    0.320860 0.945600 0.258405 0.131407
C39   C     C_R   0.722142 0.909697 0.698530 -0.156259
C40   C     C_R   0.224022 0.093555 0.193981 -0.157056
H9    H     H_    0.706192 0.021863 0.654084 0.133680
H10   H     H_    0.205671 0.978063 0.150735 0.128082
C41   C     C_R   0.678712 0.742483 0.691048 -0.081601
C42   C     C_R   0.184204 0.265321 0.184343 -0.073300
C43   C     C_R   0.703545 0.599561 0.749450 0.026568
C44   C     C_R   0.213247 0.413631 0.239468 0.019088
C45   C     C_3   0.711056 0.392595 0.733174 -0.406920
C46   C     C_3   0.230803 0.611425 0.220066 -0.422047
C47   C     C_3   0.791088 0.421579 0.772868 0.266758
C48   C     C_3   0.307185 0.580030 0.275446 0.291609
H11   H     H_    0.686101 0.299079 0.768196 0.121782
H12   H     H_    0.201055 0.719017 0.243567 0.128759
H13   H     H_    0.818047 0.319099 0.821411 0.048160
H14   H     H_    0.325777 0.680396 0.327750 0.038212
H15   H     H_    0.695146 0.355347 0.668179 0.199092
H16   H     H_    0.225947 0.629185 0.155615 0.191078
O21   O     O_3   0.819767 0.442501 0.709006 -0.555152
C49   C     C_3   0.895109 0.449919 0.735155 0.168480
H17   H     H_    0.916456 0.306374 0.756308 0.118432
H18   H     H_    0.917486 0.555904 0.783604 0.135423
C50   C     C_3   0.917640 0.513426 0.663958 -0.741113
H19   H     H_    0.976637 0.535661 0.682033 0.215948
H20   H     H_    0.900667 0.403577 0.615436 0.213286
H21   H     H_    0.891541 0.651614 0.640393 0.220435
O22   O     O_3   0.352653 0.551907 0.227781 -0.546963
C51   C     C_3   0.423046 0.622813 0.265963 0.139501
H22   H     H_    0.453184 0.521618 0.312961 0.158073
H23   H     H_    0.423472 0.768070 0.292397 0.116633
C52   C     C_3   0.462347 0.636629 0.204436 -0.740044
H24   H     H_    0.434177 0.738355 0.156166 0.222090
H25   H     H_    0.518407 0.688786 0.234114 0.183297
H26   H     H_    0.464145 0.493244 0.177354 0.223705
O23   O     O_3   0.413112 0.405829 0.699067 -0.533951
C53   C     C_3   0.484613 0.419257 0.752201 0.159151
H27   H     H_    0.486974 0.474198 0.812517 0.097672
H28   H     H_    0.517540 0.515395 0.727196 0.089270
C54   C     C_3   0.517827 0.220436 0.763390 -0.692668
H29   H     H_    0.519195 0.162893 0.704972 0.231864
H30   H     H_    0.573702 0.228258 0.806057 0.151900
H31   H     H_    0.485562 0.121420 0.787912 0.216508
O24   O     O_3   0.945184 0.505420 0.231977 -0.532510
C55   C     C_3   0.009203 0.405435 0.271423 0.145042
H32   H     H_    0.024312 0.309513 0.228895 0.082939
H33   H     H_    0.003860 0.318200 0.322060 0.105828
C56   C     C_3   0.069997 0.550020 0.305582 -0.699870
H34   H     H_    0.056575 0.647751 0.348620 0.218921
H35   H     H_    0.120616 0.473818 0.337645 0.164732
H36   H     H_    0.078209 0.636094 0.256149 0.222886
O25   O     O_3   0.339154 0.451390 0.806108 -0.549345
C57   C     C_3   0.375251 0.512815 0.886124 0.105239
H37   H     H_    0.336872 0.584443 0.911362 0.144087
H38   H     H_    0.420955 0.613783 0.890881 0.084802
C58   C     C_3   0.405736 0.339449 0.938012 -0.716509
H39   H     H_    0.441383 0.257576 0.912053 0.222420
H40   H     H_    0.437514 0.387572 0.999725 0.179652
H41   H     H_    0.361311 0.244639 0.941848 0.213538
O26   O     O_3   0.862401 0.452323 0.329263 -0.549530
C59   C     C_3   0.889223 0.320979 0.393078 0.096692
H42   H     H_    0.918111 0.197488 0.377281 0.098466
H43   H     H_    0.844264 0.263244 0.411907 0.128564
C60   C     C_3   0.941832 0.425662 0.464439 -0.731615
H44   H     H_    0.914280 0.545603 0.483960 0.220111
H45   H     H_    0.963111 0.324670 0.515208 0.172476
H46   H     H_    0.987655 0.484520 0.447508 0.228302
H47   H     H_    0.196445 0.510713 0.741856 0.116024
H48   H     H_    0.733072 0.535337 0.298995 0.144224
O27   O     O_3   0.086226 0.472305 0.808482 -0.560610
C61   C     C_3   0.097653 0.317470 0.761207 0.082315
H49   H     H_    0.151971 0.256228 0.790140 0.146268
H50   H     H_    0.091946 0.365974 0.699169 0.111355
C62   C     C_3   0.042641 0.156733 0.752502 -0.732920
H51   H     H_    0.026436 0.147007 0.807006 0.252589
H52   H     H_    0.994601 0.180029 0.699125 0.191531
H53   H     H_    0.065736 0.018138 0.742110 0.189012
O28   O     O_3   0.664052 0.552857 0.407587 -0.552557
C63   C     C_3   0.732601 0.640457 0.443689 0.066395
H54   H     H_    0.743905 0.744627 0.401516 0.137732
H55   H     H_    0.776935 0.533520 0.462384 0.131040
C64   C     C_3   0.733199 0.749312 0.518645 -0.670916
H56   H     H_    0.728738 0.645503 0.564487 0.237686
H57   H     H_    0.784586 0.830852 0.543324 0.168108
H58   H     H_    0.687776 0.851609 0.504223 0.223463
H59   H     H_    0.184940 0.051200 0.919697 0.155309
H60   H     H_    0.617240 0.921666 0.330628 0.175635

loop_
_geom_bond_atom_site_label_1
_geom_bond_atom_site_label_2
_ccdc_geom_bond_type
C30   C32   A    
C62   H53   S    
C36   C38   A    
C33   C35   A    
C50   H19   S    
C21   H47   S    
O13   V3    S    
C25   C27   A    
O28   C63   S    
C61   C62   S    
O4    C2    A    
V1    O19   S    
C18   O26   S    
C45   H15   S    
C55   H32   S    
C60   H45   S    
C27   H59   S    
O9    V1    S    
C52   H24   S    
C33   C47   S    
C12   H4    S    
C42   C44   A    
O24   C55   S    
O3    C1    A    
C56   H35   S    
C33   C43   A    
C44   C46   S    
C29   H5    S    
C53   H27   S    
C30   H6    S    
C62   H51   S    
O22   C51   S    
C15   O23   S    
C17   C19   A    
O9    C5    A    
O7    C3    A    
C54   H30   S    
O13   V1    S    
O5    C7    A    
C20   C32   S    
C61   H50   S    
O7    V1    S    
O6    C8    A    
O8    V2    S    
C35   C37   A    
C60   H46   S    
C22   C24   A    
C64   H56   S    
C63   C64   S    
O3    V1    S    
O14   V4    S    
V4    O20   S    
C37   C39   A    
C28   H60   S    
C47   O21   S    
C2    O12   A    
C1    O11   A    
C2    C35   S    
C50   H20   S    
V3    O19   S    
C13   C15   A    
C14   C16   A    
C24   C26   A    
O11   V3    S    
C18   C20   A    
C43   C45   S    
O17   V3    S    
C26   C28   A    
C21   C31   A    
C46   H12   S    
C61   H49   S    
C46   C48   S    
O8    C4    A    
C56   H36   S    
C45   C47   S    
C6    C42   S    
C16   C18   A    
C21   C23   A    
C48   H14   S    
O15   V3    S    
C9    C11   A    
C23   C25   A    
C34   C36   A    
C59   H43   S    
C58   H41   S    
C15   C17   A    
C7    C13   S    
C49   H18   S    
C38   C40   A    
O10   V2    S    
O1    V3    S    
C40   C42   A    
C63   H54   S    
C41   C43   A    
C34   C48   S    
O25   C57   S    
C64   H58   S    
C63   H55   S    
C40   H10   S    
C16   O24   S    
O18   V4    S    
C50   H21   S    
C51   H23   S    
C27   C29   A    
C58   H39   S    
C22   C32   A    
C48   O22   S    
O16   C6    A    
C54   H31   S    
C59   C60   S    
O1    C3    A    
C57   H38   S    
C49   C50   S    
C39   H9    S    
O26   C59   S    
V2    O20   S    
C62   H52   S    
O10   C6    A    
O16   V4    S    
C10   C12   A    
C34   C44   A    
C5    C41   S    
C19   C31   S    
C55   H33   S    
O27   C61   S    
C22   H48   S    
C29   C31   A    
O5    V1    S    
O4    V2    S    
O17   C7    A    
C51   C52   S    
O6    V2    S    
O23   C53   S    
C3    C26   S    
O18   C8    A    
C52   H25   S    
O2    V4    S    
C17   O25   S    
C57   C58   S    
O15   C5    A    
C59   H42   S    
O21   C49   S    
C46   H16   S    
C56   H34   S    
C1    C36   S    
C39   C41   A    
C49   H17   S    
C60   H44   S    
C53   H28   S    
C9    C19   A    
C8    C14   S    
C9    H1    S    
C10   H2    S    
C28   C30   A    
O14   V2    S    
C64   H57   S    
C11   C13   A    
O2    C4    A    
C55   C56   S    
C45   H11   S    
C12   C14   A    
C4    C25   S    
C10   C20   A    
C11   H3    S    
C51   H22   S    
C58   H40   S    
C38   H8    S    
C52   H26   S    
C37   H7    S    
C57   H37   S    
C54   H29   S    
O12   V4    S    
C47   H13   S    
C24   O28   S    
C53   C54   S    
C23   O27   S    
