data_mof_unit_62719.cif
_audit_creation_date              2012-12-10T21:03:02-0500
_audit_creation_method            fapswitch 2.2
_symmetry_space_group_name_H-M    P1
_symmetry_Int_Tables_number       1
_space_group_crystal_system       triclinic
_cell_length_a                    15.817172
_cell_length_b                    15.064416
_cell_length_c                    19.148105
_cell_angle_alpha                 90.073206
_cell_angle_beta                  89.883492
_cell_angle_gamma                 89.517118
_cell_volume                      4562.36736181

loop_
_atom_site_label
_atom_site_type_symbol
_atom_type_description
_atom_site_fract_x
_atom_site_fract_y
_atom_site_fract_z
_atom_type_partial_charge
C1    C     C_R   0.338799 0.500362 0.499865 0.903834
C2    C     C_R   0.423580 0.047810 0.490384 0.134024
C3    C     C_R   0.499786 0.905081 0.499998 -0.129886
C4    C     C_R   0.499623 0.094920 0.499910 -0.128889
C5    C     C_1   0.499905 0.807099 0.500001 0.232947
C6    C     C_1   0.499732 0.192905 0.499945 0.230194
C7    C     C_R   0.498766 0.499930 0.365190 0.909289
C8    C     C_R   0.498930 0.500077 0.634832 0.911363
C9    C     C_R   0.539146 0.558879 0.249294 0.132109
C10   C     C_R   0.538888 0.439481 0.750469 0.132476
C11   C     C_R   0.433268 0.558817 0.743151 0.129317
C12   C     C_R   0.661264 0.499621 0.500051 0.908388
C13   C     C_R   0.432062 0.442970 0.257342 0.124393
C14   C     C_R   0.528340 0.560759 0.177415 -0.164353
C15   C     C_R   0.528020 0.437582 0.822395 -0.168674
C16   C     C_R   0.425385 0.557676 0.815295 -0.169838
C17   C     C_R   0.424219 0.443947 0.185200 -0.174526
C18   C     C_R   0.471713 0.502943 0.145494 0.007712
C19   C     C_R   0.472081 0.496985 0.854674 0.007314
C20   C     C_R   0.490691 0.499933 0.289799 -0.143289
C21   C     C_R   0.491118 0.500137 0.710289 -0.151123
C22   C     C_R   0.465543 0.498385 0.929948 0.307214
C23   C     C_1   0.824274 0.497222 0.488422 0.144005
C24   C     C_R   0.465207 0.501571 0.070253 0.304552
C25   C     C_R   0.954660 0.573850 0.460355 0.356785
C26   C     C_R   0.045952 0.419256 0.496103 0.342853
C27   C     C_R   0.042824 0.574567 0.458427 0.357225
C28   C     C_R   0.957741 0.417419 0.494526 0.321595
C29   C     C_R   0.913044 0.495907 0.480309 -0.246452
C30   C     C_R   0.087651 0.497742 0.478326 -0.245481
C31   C     C_3   0.121336 0.648379 0.376740 0.108009
C32   C     C_3   0.126863 0.741369 0.346356 -0.723171
C33   C     C_3   0.912073 0.281743 0.457010 0.139035
C34   C     C_1   0.176277 0.500491 0.486155 0.127293
C35   C     C_3   0.928476 0.187921 0.483294 -0.687003
C36   C     C_3   0.883783 0.655693 0.379406 0.099040
C37   C     C_3   0.840384 0.744505 0.366193 -0.679397
C38   C     C_3   0.098085 0.338002 0.586520 0.122134
C39   C     C_3   0.158686 0.262929 0.605309 -0.735704
C40   C     C_1   0.250701 0.501049 0.493293 -0.139219
C41   C     C_1   0.749637 0.498525 0.494706 -0.136181
C42   C     C_R   0.423618 0.953393 0.490721 0.134784
C43   C     C_R   0.575693 0.046598 0.509450 0.135884
C44   C     C_R   0.575853 0.952212 0.509268 0.133079
H1    H     H_    0.566285 0.605261 0.146161 0.178502
H2    H     H_    0.958710 0.295313 0.414465 0.132781
H3    H     H_    0.847721 0.285005 0.433920 0.160554
H4    H     H_    0.884154 0.171977 0.526396 0.278207
H5    H     H_    0.919577 0.139629 0.440121 0.211633
H6    H     H_    0.994290 0.181998 0.502923 0.263946
H7    H     H_    0.838051 0.601934 0.367675 0.144942
H8    H     H_    0.938545 0.649955 0.343060 0.127750
H9    H     H_    0.884349 0.799601 0.378035 0.258329
H10   H     H_    0.821020 0.749113 0.310604 0.213832
H11   H     H_    0.783347 0.751008 0.399779 0.280090
H12   H     H_    0.565410 0.391773 0.853402 0.177387
H13   H     H_    0.035348 0.323546 0.610138 0.189345
H14   H     H_    0.123164 0.400523 0.609507 0.137032
H15   H     H_    0.222444 0.276704 0.583661 0.271539
H16   H     H_    0.163422 0.257023 0.662968 0.209603
H17   H     H_    0.135512 0.199218 0.583614 0.269748
H18   H     H_    0.381438 0.602969 0.840654 0.176678
H19   H     H_    0.379701 0.399950 0.160114 0.176159
H20   H     H_    0.085073 0.606658 0.339210 0.099105
H21   H     H_    0.186503 0.620915 0.381065 0.162162
H22   H     H_    0.164540 0.784471 0.381315 0.285192
H23   H     H_    0.157787 0.738662 0.294272 0.204902
H24   H     H_    0.062451 0.770330 0.340568 0.249056
I1    I     I_    0.633916 0.642787 0.291313 -0.389255
I2    I     I_    0.632803 0.352816 0.707944 -0.266877
I3    I     I_    0.350333 0.646741 0.688780 -0.282738
I4    I     I_    0.347961 0.358238 0.312444 -0.300037
I5    I     I_    0.308716 0.121145 0.475196 -0.259600
I6    I     I_    0.691066 0.878970 0.522945 -0.253033
I7    I     I_    0.690337 0.118229 0.524276 -0.287482
I8    I     I_    0.308554 0.881819 0.477527 -0.257097
N1    N     N_R   0.464367 0.423048 0.035734 -0.154736
N2    N     N_R   0.464842 0.576913 0.964478 -0.153693
N3    N     N_R   0.465080 0.421456 0.966456 -0.156977
N4    N     N_R   0.465244 0.578494 0.033746 -0.156907
N5    N     N_1   0.500000 0.270550 0.500000 -0.066354
N6    N     N_1   0.500000 0.729450 0.500000 -0.064328
O1    O     O_R   0.378020 0.573650 0.500020 -0.595315
O2    O     O_3   0.915408 0.341389 0.514077 -0.583826
O3    O     O_3   0.910034 0.652058 0.449765 -0.536361
O4    O     O_3   0.091737 0.343623 0.513100 -0.571724
O5    O     O_R   0.621980 0.426350 0.499980 -0.597068
O6    O     O_R   0.621980 0.573650 0.499980 -0.592575
O7    O     O_R   0.378020 0.426350 0.500020 -0.594666
O8    O     O_R   0.499990 0.573690 0.398140 -0.592227
O9    O     O_R   0.500010 0.426310 0.601860 -0.595653
O10   O     O_R   0.500010 0.573690 0.601860 -0.589424
O11   O     O_R   0.499990 0.426310 0.398140 -0.593613
O12   O     O_3   0.083627 0.653397 0.443734 -0.539293
Zn1   Zn    Zn3+2 0.500000 0.598370 0.500000 1.052028
Zn2   Zn    Zn3+2 0.500000 0.401630 0.500000 1.046695

loop_
_geom_bond_atom_site_label_1
_geom_bond_atom_site_label_2
_ccdc_geom_bond_type
C3    C42   A    
C28   O2    S    
C14   C18   A    
C43   C44   A    
O8    Zn1   S    
C15   C19   A    
C38   O4    S    
C34   C40   T    
C23   C29   S    
C36   C37   S    
C9    I1    S    
C22   N3    A    
C10   C15   A    
C38   C39   S    
N2    N4    A    
C1    C40   S    
O9    Zn2   S    
C38   H14   S    
C24   N4    A    
C35   H5    S    
C8    O10   A    
C13   C20   A    
C32   H24   S    
C37   H9    S    
O6    Zn1   S    
O1    Zn1   S    
C6    N5    T    
C27   C30   A    
C43   I7    S    
C33   H2    S    
C16   H18   S    
C39   H17   S    
C35   H4    S    
C17   C18   A    
C14   H1    S    
N1    N3    A    
C10   C21   A    
C25   C29   A    
C7    O11   A    
C3    C44   A    
C30   C34   S    
C19   C22   S    
C22   N2    A    
C4    C6    S    
N5    Zn2   S    
C12   O6    A    
C7    O8    A    
C11   C21   A    
O10   Zn1   S    
C2    C4    A    
C9    C14   A    
C12   C41   S    
C38   H13   S    
C11   C16   A    
C9    C20   A    
C31   C32   S    
C26   O4    S    
C39   H15   S    
O5    Zn2   S    
C35   H6    S    
C25   O3    S    
C8    C21   S    
C8    O9    A    
C44   I6    S    
C36   H7    S    
C2    I5    S    
C32   H23   S    
C37   H10   S    
C10   I2    S    
C4    C43   A    
C26   C30   A    
O11   Zn2   S    
C33   H3    S    
C18   C24   S    
C1    O1    A    
C32   H22   S    
C31   H21   S    
C28   C29   A    
C1    O7    A    
N6    Zn1   S    
C12   O5    A    
C42   I8    S    
C31   H20   S    
C3    C5    S    
C36   H8    S    
C13   I4    S    
C36   O3    S    
C25   C27   A    
C31   O12   S    
C26   C28   A    
C23   C41   T    
C13   C17   A    
C15   H12   S    
O7    Zn2   S    
C17   H19   S    
C5    N6    T    
C2    C42   A    
C16   C19   A    
C39   H16   S    
C33   C35   S    
C11   I3    S    
C33   O2    S    
C37   H11   S    
C24   N1    A    
C7    C20   S    
C27   O12   S    
