data_mof_unit_66302.cif
_audit_creation_date              2013-03-05T15:39:58-0500
_audit_creation_method            fapswitch 2.2
_symmetry_space_group_name_H-M    P1
_symmetry_Int_Tables_number       1
_space_group_crystal_system       triclinic
_cell_length_a                    19.51532
_cell_length_b                    18.901415
_cell_length_c                    18.932513
_cell_angle_alpha                 108.924646
_cell_angle_beta                  110.581103
_cell_angle_gamma                 110.100505
_cell_volume                      5294.49056482

loop_
_atom_site_label
_atom_site_type_symbol
_atom_site_description
_atom_site_fract_x
_atom_site_fract_y
_atom_site_fract_z
_atom_type_partial_charge
O1    O     O_R   0.411310 0.359450 0.448800 -0.576188
O2    O     O_R   0.410660 0.462490 0.551220 -0.511377
C1    C     C_R   0.384716 0.381873 0.501471 0.915744
O3    O     O_R   0.589930 0.448490 0.538390 -0.586293
O4    O     O_R   0.589280 0.551530 0.640800 -0.573563
C2    C     C_R   0.617329 0.500038 0.619041 0.815024
Cu1   Cu    Cu3+1 0.500390 0.438990 0.439360 1.111497
Cu2   Cu    Cu3+1 0.499610 0.561010 0.560640 1.124174
O5    O     O_R   0.589340 0.537510 0.448780 -0.533676
O6    O     O_R   0.588690 0.640550 0.551200 -0.599472
O7    O     O_R   0.410720 0.448470 0.359200 -0.558607
O8    O     O_R   0.410070 0.551510 0.461610 -0.541517
C3    C     C_R   0.616734 0.618514 0.500761 0.753547
C4    C     C_R   0.379468 0.496085 0.380376 0.794401
H1    H     H_    0.553139 0.198685 0.550370 0.214467
C5    C     C_R   0.769334 0.663256 0.765220 -0.143476
C6    C     C_R   0.833003 0.742693 0.841472 0.442255
C7    C     C_R   0.883589 0.742885 0.915284 -0.310558
C8    C     C_R   0.875334 0.664433 0.910977 0.397636
C9    C     C_R   0.816163 0.583900 0.829836 0.050958
C10   C     C_R   0.755939 0.582864 0.760327 -0.074048
C11   C     C_R   0.815849 0.504757 0.814181 -0.134775
C12   C     C_R   0.753149 0.426388 0.733245 -0.105504
C13   C     C_R   0.678693 0.422021 0.679617 -0.050440
C14   C     C_R   0.683626 0.501487 0.688106 -0.069048
C15   C     C_R   0.760079 0.350639 0.705160 0.431598
C16   C     C_R   0.687868 0.269984 0.637893 -0.137132
C17   C     C_R   0.609493 0.263066 0.597433 -0.255733
C18   C     C_R   0.603250 0.337961 0.618753 0.372074
H2    H     H_    0.731508 0.666030 0.709802 0.159242
H3    H     H_    0.929963 0.804344 0.976222 0.145394
H4    H     H_    0.692405 0.212008 0.617866 0.210005
C19   C     C_2   0.254310 0.256584 0.576291 0.179483
C20   C     C_2   0.178698 0.191657 0.502136 0.104134
C21   C     C_2   0.313532 0.330217 0.574859 0.443996
C22   C     C_2   0.327573 0.313651 0.508005 -0.172927
H5    H     H_    0.300146 0.246604 0.458573 0.159378
C23   C     C_2   0.167645 0.471380 0.236012 -0.215148
C24   C     C_2   0.183830 0.521905 0.200916 0.289302
H6    H     H_    0.102677 0.421170 0.209800 0.144071
C25   C     C_2   0.238835 0.481934 0.310820 0.342432
C26   C     C_2   0.307707 0.484225 0.307160 0.207052
C27   C     C_2   0.733353 0.765339 0.435443 0.209759
C28   C     C_2   0.818510 0.797822 0.483402 0.202594
C29   C     C_2   0.673606 0.686379 0.429054 0.381864
C30   C     C_2   0.680062 0.690233 0.503478 0.264937
O9    O     O_R   0.945860 0.359480 0.908360 -0.521896
O10   O     O_R   0.048900 0.462510 0.908320 -0.546204
C31   C     C_R   0.993561 0.381317 0.877076 0.814365
O11   O     O_R   0.855710 0.448510 0.907250 -0.554920
O12   O     O_R   0.958760 0.551540 0.907200 -0.563068
C32   C     C_R   0.879828 0.502734 0.880994 0.917857
Cu3   Cu    Cu3+1 0.935830 0.439030 0.996840 1.087084
Cu4   Cu    Cu3+1 0.057850 0.561040 0.996790 1.092834
O13   O     O_R   0.944780 0.537560 0.085320 -0.594063
O14   O     O_R   0.047820 0.640590 0.085270 -0.579007
O15   O     O_R   0.034920 0.448530 0.086440 -0.592787
O16   O     O_R   0.137970 0.551560 0.086390 -0.578135
C33   C     C_R   0.002887 0.618508 0.119150 0.758340
C34   C     C_R   0.115107 0.505618 0.120433 0.742677
O17   O     O_R   0.051300 0.089020 0.640330 -0.564552
O18   O     O_R   0.947570 0.089010 0.536620 -0.577404
C35   C     C_R   0.003759 0.120646 0.618101 0.772261
O19   O     O_R   0.140880 0.089030 0.551840 -0.541291
O20   O     O_R   0.037150 0.089020 0.448130 -0.592382
C36   C     C_R   0.116630 0.119259 0.500958 0.794649
Cu5   Cu    Cu3+1 0.061410 0.000010 0.561410 1.128060
Cu6   Cu    Cu3+1 0.938590 0.999990 0.438590 1.084002
O21   O     O_R   0.052430 0.910990 0.463380 -0.545291
O22   O     O_R   0.948700 0.910980 0.359670 -0.594609
O23   O     O_R   0.962850 0.910980 0.551870 -0.572988
O24   O     O_R   0.859120 0.910970 0.448160 -0.542072
C37   C     C_R   0.996631 0.879821 0.381887 0.739214
C38   C     C_R   0.882865 0.878506 0.496425 0.798096
C39   C     C_2   0.988055 0.246834 0.671760 -0.146069
C40   C     C_2   0.018079 0.196625 0.689237 0.284657
H7    H     H_    0.956800 0.235270 0.605664 0.158056
C41   C     C_2   0.999510 0.320941 0.743010 0.284264
C42   C     C_2   0.978691 0.309265 0.801457 0.148462
C43   C     C_2   0.989035 0.738786 0.314615 0.331186
C44   C     C_2   0.985078 0.807336 0.309410 0.224259
C45   C     C_2   0.978623 0.669384 0.239406 -0.144350
C46   C     C_2   0.020578 0.688591 0.198929 0.280341
H8    H     H_    0.935181 0.601967 0.217322 0.142210
O25   O     O_3   0.154809 0.199030 0.427845 -0.745405
H9    H     H_    0.103347 0.143096 0.377122 0.351866
O26   O     O_3   0.355935 0.415037 0.642973 -0.643389
H10   H     H_    0.333120 0.415250 0.682212 0.366091
O27   O     O_3   0.266489 0.592082 0.244005 -0.682046
H11   H     H_    0.268883 0.626936 0.214708 0.362774
O28   O     O_3   0.233857 0.486784 0.383129 -0.709457
H12   H     H_    0.179603 0.484201 0.373997 0.351418
N1    N     N_R   0.307599 0.461550 0.226534 0.135510
O29   O     O_R   0.378482 0.500406 0.228826 -0.253941
O30   O     O_R   0.241070 0.393405 0.153236 -0.321474
N2    N     N_R   0.699006 0.811906 0.402979 0.118340
O31   O     O_R   0.632430 0.769730 0.324575 -0.299672
O32   O     O_R   0.720211 0.889550 0.457762 -0.283504
O33   O     O_3   0.844377 0.749354 0.515685 -0.685441
H13   H     H_    0.907436 0.778613 0.547876 0.382823
O34   O     O_3   0.608797 0.612872 0.348774 -0.679315
H14   H     H_    0.617768 0.621391 0.303077 0.366231
O35   O     O_3   0.740192 0.767856 0.582466 -0.690957
H15   H     H_    0.739668 0.758169 0.630750 0.350735
O36   O     O_3   0.068924 0.221947 0.775957 -0.662353
H16   H     H_    0.078955 0.174821 0.778933 0.369078
N3    N     N_R   0.033405 0.404007 0.748136 0.111983
O37   O     O_R   0.990539 0.411968 0.683904 -0.328705
O38   O     O_R   0.114325 0.462063 0.802790 -0.274085
N4    N     N_R   0.929765 0.222136 0.784563 0.146151
O39   O     O_R   0.947357 0.205891 0.848389 -0.277278
O40   O     O_R   0.861478 0.162177 0.708207 -0.314717
N5    N     N_R   0.995056 0.726487 0.387276 0.107262
O41   O     O_R   0.031241 0.684016 0.407772 -0.304235
O42   O     O_R   0.950589 0.741727 0.421203 -0.368581
O43   O     O_3   0.959963 0.804168 0.229591 -0.699442
H17   H     H_    0.968312 0.861644 0.237737 0.341211
O44   O     O_3   0.084868 0.774368 0.237211 -0.692085
H18   H     H_    0.108795 0.779595 0.199731 0.348068
O45   O     O_3   0.842215 0.818808 0.842523 -0.687160
H19   H     H_    0.889844 0.869301 0.901099 0.342566
O46   O     O_3   0.921442 0.665506 0.986099 -0.723408
H20   H     H_    0.957799 0.726266 0.036341 0.340746
O47   O     O_3   0.836725 0.353690 0.736847 -0.734860
H21   H     H_    0.880725 0.409839 0.749738 0.322552
N6    N     N_R   0.519903 0.326585 0.590116 0.104531
O48   O     O_R   0.454044 0.255791 0.518656 -0.380231
O49   O     O_R   0.507435 0.373983 0.645886 -0.346696
N7    N     N_R   0.276559 0.260749 0.659153 0.114320
O50   O     O_R   0.224110 0.256380 0.687357 -0.331826
O51   O     O_R   0.355205 0.287311 0.713594 -0.263310

loop_
_geom_bond_atom_site_label_1
_geom_bond_atom_site_label_2
_geom_bond_distance
_ccdc_geom_bond_type
O26   H10   0.990935 S    
C8    O46   1.379083 S    
O34   H14   0.991233 S    
O13   C33   1.303188 A    
C26   N1    1.444465 S    
C25   C26   1.356697 D    
O36   H16   0.989720 S    
C21   C22   1.349411 D    
C39   C40   1.342765 D    
C20   C36   1.470446 S    
Cu1   Cu2   2.684283 S    
O9    C31   1.292224 A    
O25   H9    0.991031 S    
O10   Cu4   1.962582 S    
C15   C16   1.390717 A    
N1    O29   1.301397 A    
C46   O44   1.388666 S    
C17   C18   1.401524 A    
C33   C46   1.475300 S    
N5    O41   1.301041 A    
C23   C24   1.343555 D    
O7    C4    1.287562 A    
C2    C14   1.465427 S    
C35   C40   1.469462 S    
O16   C34   1.291296 A    
O43   H17   0.991228 S    
C7    C8    1.406979 A    
C12   C15   1.428554 A    
O17   C35   1.290380 A    
O5    C3    1.299494 A    
N4    O39   1.301462 A    
C6    O45   1.379731 S    
C13   C18   1.425381 A    
C21   O26   1.383800 S    
C8    C9    1.427678 A    
C5    C6    1.390305 A    
N2    O32   1.301642 A    
O11   C32   1.297097 A    
N3    O37   1.300497 A    
O21   C37   1.304426 A    
Cu6   O24   1.967461 S    
O9    Cu3   1.975929 S    
N1    O30   1.301883 A    
C18   N6    1.431711 S    
O44   H18   0.988945 S    
N3    O38   1.300863 A    
C15   O47   1.374022 S    
O3    Cu1   1.965567 S    
C37   C44   1.470208 S    
C27   N2    1.438240 S    
Cu3   O13   1.962682 S    
Cu4   O14   1.975928 S    
O11   Cu3   1.969506 S    
Cu5   Cu6   2.689294 S    
O19   Cu5   1.967463 S    
C13   C14   1.422769 A    
C23   C25   1.489524 S    
O24   C38   1.299116 A    
O28   H12   0.991765 S    
Cu3   O15   1.976558 S    
C41   C42   1.360545 D    
O15   C34   1.306997 A    
Cu3   Cu4   2.686486 S    
O12   C32   1.288035 A    
C41   N3    1.433268 S    
O1    C1    1.297792 A    
C20   O25   1.387740 S    
O19   C36   1.304140 A    
Cu1   O7    1.980488 S    
C27   C28   1.356238 D    
O18   C35   1.304375 A    
O23   C38   1.298728 A    
C27   C29   1.479599 S    
O17   Cu5   1.976562 S    
O33   H13   0.988942 S    
Cu2   O8    1.965564 S    
O20   Cu6   1.974304 S    
N2    O31   1.300599 A    
O22   C37   1.288990 A    
C6    C7    1.397049 A    
C4    C26   1.466542 S    
C43   N5    1.439722 S    
C28   C38   1.478420 S    
C39   H7    1.086297 S    
C29   O34   1.382394 S    
C43   C45   1.480322 S    
O10   C31   1.301636 A    
C25   O28   1.382093 S    
C9    C11   1.424949 A    
O20   C36   1.289187 A    
C45   H8    1.086274 S    
O3    C2    1.292133 A    
O35   H15   0.991529 S    
C31   C42   1.469744 S    
O45   H19   0.991804 S    
C11   C32   1.454052 S    
N7    O50   1.301676 A    
Cu4   O16   1.969621 S    
C19   N7    1.439897 S    
Cu1   O5    1.964149 S    
C10   C14   1.419224 A    
C22   H5    1.086575 S    
N6    O49   1.301377 A    
C42   N4    1.445321 S    
C16   H4    1.083144 S    
O1    Cu1   1.977536 S    
C28   O33   1.389891 S    
C11   C12   1.415314 A    
O2    Cu2   1.964149 S    
O8    C4    1.303311 A    
C43   C44   1.356751 D    
O6    C3    1.284922 A    
O4    Cu2   1.980489 S    
C5    C10   1.415801 A    
C30   O35   1.387673 S    
O14   C33   1.293097 A    
O18   Cu6   1.962003 S    
O12   Cu4   1.976465 S    
O2    C1    1.291847 A    
O46   H20   0.991962 S    
C23   H6    1.086061 S    
H1    C17   1.082641 S    
O4    C2    1.296628 A    
C1    C22   1.460744 S    
N6    O48   1.301498 A    
C24   C34   1.480015 S    
C44   O43   1.388463 S    
N7    O51   1.300979 A    
C19   C21   1.488075 S    
C19   C20   1.354887 D    
Cu5   O23   1.974303 S    
C39   C41   1.476066 S    
N4    O40   1.301883 A    
C12   C13   1.405338 A    
C29   C30   1.344938 D    
C9    C10   1.411938 A    
Cu2   O6    1.977535 S    
C45   C46   1.344149 D    
C16   C17   1.384595 A    
Cu6   O22   1.976561 S    
C3    C30   1.458141 S    
C7    H3    1.083289 S    
Cu5   O21   1.962005 S    
O27   H11   0.988904 S    
C5    H2    1.079922 S    
C24   O27   1.388996 S    
C40   O36   1.388425 S    
O47   H21   0.990717 S    
N5    O42   1.300882 A    
