data_mof_unit_9493.cif
_audit_creation_date              2012-12-11T20:00:42-0500
_audit_creation_method            fapswitch 2.2
_symmetry_space_group_name_H-M    P1
_symmetry_Int_Tables_number       1
_space_group_crystal_system       triclinic
_cell_length_a                    8.360642
_cell_length_b                    16.397192
_cell_length_c                    27.135048
_cell_angle_alpha                 71.374856
_cell_angle_beta                  97.51025
_cell_angle_gamma                 96.198118
_cell_volume                      3486.21755108

loop_
_atom_site_label
_atom_site_type_symbol
_atom_type_description
_atom_site_fract_x
_atom_site_fract_y
_atom_site_fract_z
_atom_type_partial_charge
Ba1   Ba    Ba6+2 0.337820 0.939830 0.518500 1.677750
Ba2   Ba    Ba6+2 0.851970 0.060110 0.481480 1.662582
C1    C     C_3   0.071899 0.539897 0.595348 -0.366715
C2    C     C_R   0.433986 0.390761 0.188031 0.697344
C3    C     C_2   0.251231 0.249005 0.271433 0.373845
C4    C     C_3   0.522654 0.565898 0.626581 1.048466
C5    C     C_3   0.213202 0.191829 0.325971 -0.125579
C6    C     C_1   0.482100 0.144586 0.341425 0.051933
C7    C     C_2   0.520919 0.191919 0.294188 -0.117873
C8    C     C_2   0.401247 0.249887 0.256446 0.168857
C9    C     C_R   0.527931 0.402501 0.104098 -0.198697
C10   C     C_R   0.540305 0.311960 0.121665 -0.080421
C11   C     C_R   0.596304 0.272752 0.088326 0.433497
C12   C     C_3   0.075246 0.634195 0.593635 0.358453
C13   C     C_R   0.473487 0.442372 0.137450 -0.098938
C14   C     C_2   0.363997 0.164975 0.361617 -0.338400
C15   C     C_2   0.845717 0.842706 0.638945 -0.244457
C16   C     C_3   0.498390 0.471639 0.626420 -0.246456
C17   C     C_R   0.649407 0.461595 0.967100 0.036799
C18   C     C_R   0.608739 0.594716 0.985753 0.037352
C19   C     C_R   0.648531 0.552941 0.951002 0.054269
C20   C     C_R   0.677444 0.422432 0.929815 -0.108581
C21   C     C_R   0.710808 0.471313 0.879569 -0.060800
C22   C     C_R   0.718143 0.561631 0.863978 -0.020647
C23   C     C_3   0.126761 0.041114 0.657512 0.909952
C24   C     C_R   0.687239 0.602838 0.899552 -0.086793
C25   C     C_R   0.694330 0.693711 0.883602 -0.035588
C26   C     C_R   0.734946 0.742043 0.832606 0.588475
C27   C     C_R   0.753444 0.611034 0.813082 0.573295
C28   C     C_3   0.573581 0.883508 0.386114 0.343213
C29   C     C_2   0.920482 0.727840 0.722593 -0.118755
C30   C     C_3   0.919056 0.757154 0.663707 -0.026157
C31   C     C_1   0.727257 0.862110 0.660462 -0.000626
C32   C     C_2   0.696358 0.820369 0.709662 -0.131611
C33   C     C_2   0.801378 0.750343 0.744381 0.195069
C34   C     C_3   0.992641 0.053293 0.687686 0.334676
C35   C     C_R   0.619171 0.412217 0.019268 -0.019197
C36   C     C_R   0.569563 0.453084 0.053043 0.045780
C37   C     C_R   0.560508 0.544041 0.035947 -0.016782
C38   C     C_R   0.638617 0.322844 0.038962 -0.155156
C39   C     C_R   0.460767 0.532816 0.119667 0.445515
C40   C     C_3   0.501670 0.818006 0.357844 0.689544
C41   C     C_R   0.620231 0.686183 0.968986 -0.102226
C42   C     C_R   0.662155 0.734282 0.919208 -0.065583
C43   C     C_R   0.500001 0.581358 0.069275 -0.156038
C44   C     C_2   0.395822 0.249464 0.504454 -0.282236
C45   C     C_3   0.715903 0.348350 0.366652 0.335785
C46   C     C_R   0.808007 0.758705 0.493590 -0.268580
C47   C     C_2   0.233531 0.321757 0.544704 -0.129333
C48   C     C_2   0.256048 0.252241 0.531521 0.061089
C49   C     C_2   0.505797 0.316405 0.492438 0.038701
C50   C     C_3   0.465054 0.403637 0.492925 -0.009356
C51   C     C_3   0.353350 0.398173 0.534604 -0.058516
C52   C     C_3   0.584830 0.115141 0.605736 0.383488
C53   C     C_2   0.608218 0.466265 0.495918 -0.105471
C54   C     C_2   0.583214 0.547042 0.492339 -0.102605
C55   C     C_R   0.848290 0.615458 0.463430 -0.017298
C56   C     C_3   0.743761 0.418016 0.314862 0.257762
C57   C     C_R   0.714511 0.615261 0.489731 0.018563
C58   C     C_R   0.958608 0.687187 0.451194 -0.160546
C59   C     C_R   0.934964 0.760374 0.464400 0.057690
C60   C     C_R   0.696105 0.686920 0.505955 0.066908
C61   C     C_3   0.594951 0.187770 0.630195 0.355005
C62   C     C_3   0.128008 0.982269 0.354013 0.306733
C63   C     C_3   0.139897 0.005904 0.295526 -0.383880
C64   C     C_3   0.716792 0.798733 0.315228 0.241202
C65   C     C_3   0.406919 0.674888 0.372517 0.161061
C66   C     C_3   0.491187 0.231789 0.691426 0.275313
C67   C     C_3   0.196504 0.385696 0.366029 0.759298
C68   C     C_3   0.207366 0.915701 0.723581 0.236472
C69   C     C_3   0.937899 0.091718 0.757952 0.181140
C70   C     C_3   0.821138 0.438898 0.232889 0.259264
C71   C     C_3   0.079153 0.443737 0.420048 0.141590
C72   C     C_3   0.498462 0.648879 0.680479 0.312991
C73   C     C_3   0.497824 0.142094 0.080787 0.245043
C74   C     C_3   0.030399 0.239401 0.214892 0.207798
C75   C     C_3   0.499307 0.640960 0.158325 0.213223
C76   C     C_3   0.785201 0.541425 0.669297 0.039718
C77   C     C_3   0.334213 0.417207 0.332115 -0.215471
C78   C     C_R   0.495775 0.262783 0.172000 0.592103
H1    H     H_    0.141722 0.674219 0.560261 0.095245
H2    H     H_    0.018422 0.018347 0.273734 0.118233
H3    H     H_    0.949037 0.653289 0.585970 -0.003507
H4    H     H_    0.949107 0.517722 0.581491 0.070283
H5    H     H_    0.912125 0.100260 0.659694 -0.018987
H6    H     H_    0.921770 0.990546 0.702812 -0.086325
H7    H     H_    0.106147 0.497528 0.635583 0.145765
H8    H     H_    0.569822 0.462199 0.597367 0.051700
H9    H     H_    0.815421 0.305430 0.377866 0.125163
H10   H     H_    0.602137 0.309167 0.361738 -0.026260
H11   H     H_    0.640711 0.459798 0.301911 0.032966
H12   H     H_    0.370371 0.829768 0.348629 -0.012123
H13   H     H_    0.854389 0.459141 0.321186 0.079001
H14   H     H_    0.434608 0.446207 0.353492 0.050953
H15   H     H_    0.294072 0.467244 0.295238 0.160576
H16   H     H_    0.375111 0.363206 0.322213 0.041246
H17   H     H_    0.637488 0.187797 0.282121 0.155385
H18   H     H_    0.000285 0.678486 0.745810 0.106453
H19   H     H_    0.731049 0.437532 0.852760 0.117150
H20   H     H_    0.690759 0.289385 0.017324 0.082771
H21   H     H_    0.601397 0.722996 0.994016 0.064885
H22   H     H_    0.668921 0.804020 0.908656 0.117651
H23   H     H_    0.459010 0.104102 0.589833 -0.009356
H24   H     H_    0.475250 0.648369 0.056286 0.071515
H25   H     H_    0.380099 0.168770 0.401218 0.080865
H26   H     H_    0.886427 0.885546 0.602544 0.087289
H27   H     H_    0.137990 0.319853 0.568650 0.085995
H28   H     H_    0.415932 0.189027 0.498681 0.051594
H29   H     H_    0.538293 0.426627 0.665270 0.039989
H30   H     H_    0.368819 0.453400 0.617982 0.073878
H31   H     H_    0.704080 0.876224 0.398233 -0.057648
H32   H     H_    0.509873 0.872233 0.421328 0.014731
H33   H     H_    0.794699 0.801182 0.351142 0.041530
H34   H     H_    0.664643 0.134411 0.573686 -0.027189
H35   H     H_    0.695023 0.730737 0.315198 0.032548
H36   H     H_    0.784293 0.834805 0.281337 0.056645
H37   H     H_    0.400911 0.687667 0.329506 0.051849
H38   H     H_    0.285391 0.678544 0.383671 0.045426
H39   H     H_    0.442846 0.607978 0.391162 0.081015
H40   H     H_    0.411381 0.278195 0.662285 0.024070
H41   H     H_    0.610950 0.264438 0.699534 -0.036911
H42   H     H_    0.433060 0.208278 0.728379 0.085756
H43   H     H_    0.188193 0.952194 0.286676 0.139041
H44   H     H_    0.222652 0.064216 0.282133 0.061085
H45   H     H_    0.546666 0.245936 0.600418 -0.113143
H46   H     H_    0.075206 0.003114 0.630881 -0.263243
H47   H     H_    0.158769 0.919881 0.758808 0.049744
H48   H     H_    0.314497 0.876938 0.737171 0.085426
H49   H     H_    0.116108 0.881480 0.702450 -0.026843
H50   H     H_    0.878565 0.027018 0.776745 0.084681
H51   H     H_    0.846614 0.136242 0.733360 0.048644
H52   H     H_    0.992947 0.118367 0.789540 0.057891
H53   H     H_    0.818663 0.408134 0.201825 0.055514
H54   H     H_    0.949096 0.459877 0.242584 0.094851
H55   H     H_    0.746754 0.495562 0.216958 -0.011887
H56   H     H_    0.723914 0.203960 0.641823 -0.020728
H57   H     H_    0.244410 0.340053 0.404020 -0.145054
H58   H     H_    0.170317 0.466960 0.446722 0.038468
H59   H     H_    0.040637 0.374781 0.438388 0.083501
H60   H     H_    0.972975 0.482215 0.413828 0.098667
H61   H     H_    0.628209 0.657425 0.692339 0.036149
H62   H     H_    0.433278 0.650822 0.713080 0.075990
H63   H     H_    0.464541 0.702959 0.645014 0.083688
H64   H     H_    0.375949 0.154173 0.088234 0.032997
H65   H     H_    0.511481 0.071737 0.097519 0.074078
H66   H     H_    0.506601 0.160144 0.038038 -0.015301
H67   H     H_    0.252044 0.977415 0.374316 0.012983
H68   H     H_    0.669770 0.353523 0.937667 0.064935
H69   H     H_    0.967626 0.187916 0.245166 0.049069
H70   H     H_    0.098821 0.210267 0.192942 0.025235
H71   H     H_    0.936055 0.276886 0.186739 0.075012
H72   H     H_    0.478287 0.701292 0.125638 0.021293
H73   H     H_    0.629251 0.627299 0.164000 -0.014194
H74   H     H_    0.471394 0.651955 0.194466 0.070644
H75   H     H_    0.824519 0.486895 0.659173 0.042991
H76   H     H_    0.722580 0.514190 0.705290 0.133247
H77   H     H_    0.893292 0.579637 0.679812 0.118807
H78   H     H_    0.067503 0.032940 0.362127 0.041850
H79   H     H_    0.591603 0.834579 0.724426 0.112713
H80   H     H_    0.057251 0.687146 0.429134 0.081968
H81   H     H_    0.789644 0.815711 0.503469 0.062685
H82   H     H_    0.730892 0.447474 0.500448 0.110339
H83   H     H_    0.459623 0.563546 0.489638 0.112883
H84   H     H_    0.154964 0.532747 0.568535 0.113444
N1    N     N_R   0.443626 0.302188 0.204471 -0.421611
N2    N     N_R   0.764109 0.700725 0.797628 -0.422386
O1    O     O_2   0.431310 0.922990 0.623550 -0.429065
O2    O     O_2   0.839916 0.308976 0.502019 -0.516797
O3    O     O_3   0.711858 0.385848 0.406105 -0.678004
O4    O     O_3   0.663280 0.983100 0.563360 -0.499747
O5    O     O_3   0.016420 0.932050 0.462720 -0.479831
O6    O     O_2   0.959730 0.164640 0.549160 -0.483089
O7    O     O_3   0.189142 0.124111 0.630374 -0.629219
O8    O     O_2   0.902269 0.213469 0.332605 -0.455752
O9    O     O_3   0.070731 0.347915 0.338905 -0.593763
O10   O     O_2   0.501156 0.184426 0.186777 -0.560412
O11   O     O_2   0.772917 0.573586 0.782246 -0.636636
O12   O     O_3   0.035961 0.903776 0.369668 -0.644785
O13   O     O_2   0.393518 0.424877 0.217929 -0.543268
O14   O     O_2   0.745833 0.820804 0.819689 -0.605931
O15   O     O_3   0.126250 0.812630 0.574830 -0.483364
O16   O     O_2   0.264786 0.781099 0.671311 -0.525503
O17   O     O_3   0.633657 0.040136 0.644364 -0.621105
O18   O     O_3   0.150104 0.646222 0.640904 -0.586634
O19   O     O_2   0.229950 0.835370 0.450810 -0.471450
O20   O     O_3   0.517580 0.797570 0.545130 -0.481145
O21   O     O_2   0.379217 0.706392 0.487542 -0.477577
O22   O     O_3   0.567756 0.835969 0.309380 -0.649446
O23   O     O_3   0.422292 0.614513 0.582768 -0.633384
O24   O     O_3   0.521148 0.731971 0.390436 -0.703402
O25   O     O_3   0.507339 0.160667 0.674447 -0.577688
O26   O     O_3   0.256893 0.998790 0.691817 -0.592224
O27   O     O_3   0.061175 0.085780 0.728686 -0.629230
O28   O     O_3   0.758325 0.377924 0.276831 -0.628104
O29   O     O_3   0.141416 0.460522 0.371782 -0.683836
O30   O     O_3   0.461310 0.567909 0.672556 -0.662218
O31   O     O_3   0.622000 0.185690 0.105217 -0.609052
O32   O     O_3   0.132418 0.295820 0.236832 -0.614371
O33   O     O_3   0.394302 0.572065 0.149936 -0.603854
O34   O     O_2   0.758370 0.077020 0.376420 -0.451018
O35   O     O_3   0.690028 0.594642 0.625900 -0.742648
O36   O     O_3   0.526390 0.016840 0.436620 -0.499978
O37   O     O_3   0.063420 0.187310 0.425160 -0.490682
O38   O     O_3   0.552425 0.965824 0.350500 -0.642285
O39   O     O_3   0.173250 0.067890 0.537260 -0.466538
O40   O     O_3   0.672100 0.202370 0.454860 -0.493924
P1    P     P_3+3 0.610630 0.953360 0.619150 1.010278
P2    P     P_3+3 0.057260 0.861390 0.437850 0.976458
P3    P     P_3+3 0.512508 0.698338 0.533508 0.959998
P4    P     P_3+3 0.579040 0.046590 0.380840 0.997250
P5    P     P_3+3 0.685641 0.302909 0.464726 0.890729
P6    P     P_3+3 0.116360 0.750802 0.639536 0.935394
P7    P     P_3+3 0.145180 0.151218 0.562327 0.962558
P8    P     P_3+3 0.071637 0.234984 0.357266 0.967125

loop_
_geom_bond_atom_site_label_1
_geom_bond_atom_site_label_2
_ccdc_geom_bond_type
C68   H47   S    
C21   H19   S    
C53   C54   D    
C64   H33   S    
C64   O22   S    
O17   P1    S    
O37   P8    S    
Ba2   O36   S    
C76   O35   S    
C19   C24   A    
C4    O30   S    
C46   C59   A    
C65   O24   S    
C68   O26   S    
C47   H27   S    
Ba1   O20   S    
C73   H65   S    
C29   H18   S    
C24   C25   A    
C11   O31   S    
O15   P6    S    
Ba2   O34   S    
C17   C19   A    
C56   H13   S    
C22   C24   A    
C32   C33   S    
C35   C38   A    
C70   O28   S    
C36   C37   A    
C30   P6    S    
C47   C51   S    
C76   H75   S    
C55   C57   A    
C71   H58   S    
Ba1   O1    S    
C68   H48   S    
O3    P5    S    
C52   H34   S    
Ba1   O4    S    
C67   O29   S    
C33   N2    S    
C62   O12   S    
C2    N1    Am   
Ba1   Ba2   S    
C63   H44   S    
Ba1   P2    S    
C34   O27   S    
C11   C38   A    
C17   C35   A    
C75   H73   S    
C69   H52   S    
C22   C27   A    
C9    C13   A    
C25   C42   A    
O21   P3    D    
C6    C7    D    
C44   H28   S    
C21   C22   A    
C16   H29   S    
Ba2   O40   S    
Ba1   O39   S    
C7    C8    S    
C50   C53   S    
C26   N2    Am   
Ba2   O5    S    
C37   C43   A    
C32   H79   S    
C72   H62   S    
O39   P7    S    
C6    C14   D    
C27   O11   D    
C45   H9    S    
O19   P2    D    
C15   C31   D    
C12   H3    S    
O36   P4    S    
C6    P4    S    
Ba1   O36   S    
O40   P5    S    
C75   H72   S    
C3    C8    D    
C45   O3    S    
C26   O14   D    
O18   P6    S    
C73   O31   S    
C73   H66   S    
C67   H57   S    
C4    C16   S    
C72   O30   S    
Ba2   P4    S    
C64   H35   S    
C1    H7    S    
C49   C50   S    
O9    P8    S    
C16   H30   S    
C52   H23   S    
C17   C20   A    
C78   O10   D    
C77   H14   S    
C66   H42   S    
C3    C5    S    
C18   C37   A    
Ba1   O15   S    
C70   H55   S    
C46   H81   S    
C71   H59   S    
C66   O25   S    
C34   H6    S    
C44   C49   D    
Ba1   O5    S    
C68   H49   S    
C16   H8    S    
O12   P2    S    
C58   C59   A    
O8    P8    D    
O1    P1    D    
C27   N2    Am   
C9    C36   A    
O7    P7    S    
C23   H46   S    
C41   H21   S    
C77   H15   S    
C35   C36   A    
C43   H24   S    
C49   P5    S    
C75   H74   S    
C65   H37   S    
C40   O24   S    
C76   H77   S    
C70   H54   S    
C29   C30   S    
C54   H83   S    
C74   H70   S    
C63   H2    S    
O16   P6    D    
C31   C32   D    
Ba2   O39   S    
C10   C11   A    
C75   O33   S    
C13   C39   A    
C61   H45   S    
C1    C12   S    
C64   H36   S    
C1    H84   S    
Ba2   O4    S    
C14   H25   S    
C5    C14   S    
C72   H61   S    
C20   H68   S    
C71   O29   S    
C41   C42   A    
C45   H10   S    
C29   C33   D    
C67   C77   S    
C72   H63   S    
C2    O13   D    
C62   H78   S    
O6    P7    D    
C78   N1    Am   
C25   C26   A    
C18   C41   A    
C50   C51   S    
C56   H11   S    
C40   O22   S    
C31   P1    S    
C57   C60   A    
C7    H17   S    
C23   C34   S    
C52   O17   S    
Ba2   O37   S    
C58   H80   S    
C53   H82   S    
C55   C58   A    
C23   O26   S    
O2    P5    D    
C66   H41   S    
C38   H20   S    
C12   O18   S    
C9    C10   A    
C3    O32   S    
C71   H60   S    
Ba1   O19   S    
C34   H5    S    
C28   O38   S    
C44   C48   S    
C39   O33   S    
C48   P7    S    
C54   C57   S    
C28   H31   S    
C62   C63   S    
C2    C13   A    
O38   P4    S    
C4    O35   S    
C46   C60   A    
C77   H16   S    
C62   H67   S    
C74   O32   S    
C15   H26   S    
C61   H56   S    
C69   H50   S    
C76   H76   S    
C70   H53   S    
C74   H71   S    
C74   H69   S    
C8    N1    S    
C61   O25   S    
C10   C78   A    
C4    O23   S    
C60   P3    S    
C56   O28   S    
C40   H12   S    
C63   H43   S    
Ba1   P1    S    
C65   H38   S    
O34   P4    D    
C5    P8    S    
C69   O27   S    
C73   H64   S    
C59   P2    S    
C69   H51   S    
C23   O7    S    
O4    P1    S    
C18   C19   A    
C47   C48   D    
C52   C61   S    
O20   P3    S    
C28   H32   S    
C1    H4    S    
C15   C30   S    
C39   C43   A    
C20   C21   A    
C28   C40   S    
O23   P3    S    
C67   O9    S    
C12   H1    S    
O5    P2    S    
C65   H39   S    
C66   H40   S    
Ba2   O6    S    
C45   C56   S    
C42   H22   S    
