data_mof_unit_37595.cif
_audit_creation_date              2013-03-05T15:41:11-0500
_audit_creation_method            fapswitch 2.2
_symmetry_space_group_name_H-M    P1
_symmetry_Int_Tables_number       1
_space_group_crystal_system       triclinic
_cell_length_a                    15.845833
_cell_length_b                    8.69759
_cell_length_c                    7.439912
_cell_angle_alpha                 102.525065
_cell_angle_beta                  94.096524
_cell_angle_gamma                 92.23232
_cell_volume                      996.850931313

loop_
_atom_site_label
_atom_site_type_symbol
_atom_site_description
_atom_site_fract_x
_atom_site_fract_y
_atom_site_fract_z
_atom_type_partial_charge
O1    O     O_R   0.506050 0.286130 0.619770 -0.578249
O2    O     O_R   0.490330 0.256780 0.308370 -0.599009
C1    C     C_R   0.494320 0.200417 0.455012 0.845435
O3    O     O_R   0.387300 0.514690 0.655770 -0.594843
O4    O     O_R   0.371580 0.485340 0.344370 -0.562656
C2    C     C_R   0.340345 0.501383 0.502757 0.822210
Cu1   Cu    Cu3+1 0.509300 0.517380 0.684380 0.950110
Cu2   Cu    Cu3+1 0.490700 0.482620 0.315620 0.948589
O5    O     O_R   0.509670 0.743220 0.691630 -0.598874
O6    O     O_R   0.493950 0.713870 0.380230 -0.574576
O7    O     O_R   0.628420 0.514660 0.655630 -0.561555
O8    O     O_R   0.612700 0.485310 0.344230 -0.599447
C3    C     C_R   0.505948 0.799494 0.544932 0.835747
C4    C     C_R   0.659629 0.499360 0.497397 0.825027
C5    C     C_3   0.048229 0.358230 0.563193 -0.410454
C6    C     C_3   0.043921 0.504098 0.307506 -0.353335
C7    C     C_3   0.946278 0.508346 0.305024 -0.366522
H1    H     H_    0.923448 0.245946 0.454852 0.182539
H2    H     H_    0.068519 0.250421 0.469564 0.220549
H3    H     H_    0.070293 0.603602 0.253310 0.195455
H4    H     H_    0.060617 0.394168 0.212136 0.168204
H5    H     H_    0.916588 0.406298 0.199444 0.152999
H6    H     H_    0.925662 0.617662 0.264095 0.186768
C8    C     C_1   0.749046 0.498826 0.492721 -0.175427
C9    C     C_3   0.083061 0.508424 0.505963 0.185991
C10   C     C_3   0.950171 0.353822 0.555501 -0.387463
C11   C     C_3   0.916959 0.502887 0.498006 0.260685
C12   C     C_3   0.955906 0.650686 0.639819 -0.408913
C13   C     C_3   0.054373 0.655214 0.644761 0.242938
C14   C     C_1   0.824652 0.499745 0.493257 -0.094095
C15   C     C_1   0.175425 0.508042 0.509057 -0.073614
C16   C     C_1   0.250957 0.505429 0.508277 -0.157411
H7    H     H_    0.079063 0.646942 0.786289 0.071893
H8    H     H_    0.936198 0.647581 0.779770 0.136786
H9    H     H_    0.074362 0.356385 0.705616 0.175028
H10   H     H_    0.929238 0.346851 0.693360 0.165698
H11   H     H_    0.930553 0.759023 0.604768 0.201943
C17   C     C_2   0.478751 0.034939 0.439369 -0.227523
C18   C     C_2   0.521293 0.965008 0.560837 -0.233003
N1    N     N_2   0.476670 0.456430 0.038530 -0.216618
H12   H     H_    0.435332 0.376487 0.948782 0.226634
N2    N     N_2   0.523330 0.543570 0.961470 -0.214998
H13   H     H_    0.564606 0.623626 0.051236 0.225495
C19   C     C_R   0.404719 0.956846 0.313505 0.112935
C20   C     C_R   0.329287 0.918022 0.386114 -0.145400
C21   C     C_R   0.261617 0.836762 0.268373 -0.111842
C22   C     C_R   0.268477 0.794931 0.077948 -0.083406
C23   C     C_R   0.343088 0.834299 0.004753 -0.086211
C24   C     C_R   0.411276 0.913820 0.122225 -0.094248
H14   H     H_    0.323530 0.948529 0.533682 0.139834
H15   H     H_    0.204143 0.805005 0.324755 0.189992
H16   H     H_    0.216223 0.731090 0.987391 0.145117
H17   H     H_    0.348413 0.801709 0.857329 0.150458
H18   H     H_    0.469904 0.937649 0.065293 0.120153
C25   C     C_R   0.598637 0.039287 0.677336 0.124270
C26   C     C_R   0.594791 0.106754 0.865577 -0.066298
C27   C     C_R   0.668050 0.175067 0.973964 -0.128425
C28   C     C_R   0.745317 0.177620 0.894641 -0.116462
C29   C     C_R   0.749461 0.111515 0.706854 -0.130313
C30   C     C_R   0.676417 0.042264 0.598354 -0.173558
H19   H     H_    0.534932 0.109609 0.926726 0.119628
H20   H     H_    0.664909 0.226344 0.119228 0.146805
H21   H     H_    0.801905 0.230928 0.978560 0.117231
H22   H     H_    0.809266 0.113548 0.645452 0.129063
H23   H     H_    0.680299 0.991099 0.453036 0.116949
N3    N     N_R   0.088609 0.804654 0.610107 0.110983
O9    O     O_R   0.146412 0.889352 0.726855 -0.406648
O10   O     O_R   0.057542 0.860254 0.471934 -0.418744

loop_
_geom_bond_atom_site_label_1
_geom_bond_atom_site_label_2
_geom_bond_distance
_ccdc_geom_bond_type
C19   C24   1.403294 A    
C9    C15   1.462264 S    
O4    Cu2   1.915241 S    
C2    C16   1.421528 S    
C25   C26   1.402843 A    
C17   C19   1.489792 S    
C6    H4    1.113507 S    
Cu2   N1    2.019430 S    
C24   H18   1.079216 S    
N3    O10   1.301860 A    
C7    H5    1.112848 S    
H1    C10   1.113271 S    
C6    H3    1.110616 S    
Cu2   O8    1.928371 S    
C18   C25   1.488067 S    
N1    N2    1.286530 D    
O2    C1    1.288078 A    
C10   C11   1.549970 S    
C12   H8    1.113732 S    
C29   C30   1.398357 A    
C26   H19   1.079750 S    
O1    C1    1.285754 A    
C7    H6    1.113106 S    
C25   C30   1.404495 A    
C19   C20   1.405161 A    
C11   C14   1.459625 S    
C5    H2    1.113563 S    
C22   C23   1.397458 A    
C29   H22   1.082177 S    
C22   H16   1.081681 S    
C20   H14   1.083480 S    
O3    Cu1   1.928370 S    
O4    C2    1.292448 A    
C12   H11   1.112819 S    
C5    H9    1.113425 S    
C12   C13   1.556858 S    
O8    C4    1.295350 A    
C30   H23   1.083358 S    
Cu1   O7    1.915241 S    
C27   C28   1.398073 A    
C9    C13   1.563157 S    
C23   H17   1.081999 S    
O7    C4    1.291711 A    
C8    C14   1.197481 T    
C3    C18   1.428362 S    
O3    C2    1.295412 A    
C5    C9    1.552777 S    
N2    H13   1.029100 S    
C4    C8    1.419959 S    
C13   N3    1.469884 S    
C7    C11   1.550055 S    
C28   H21   1.082078 S    
C13   H7    1.114962 S    
Cu1   Cu2   2.687575 S    
C17   C18   1.350695 D    
C26   C27   1.398423 A    
Cu2   O6    1.961673 S    
Cu1   N2    2.019429 S    
C10   H10   1.113409 S    
C6    C9    1.552219 S    
Cu1   O5    1.953044 S    
O5    C3    1.288015 A    
C21   C22   1.397449 A    
C23   C24   1.397988 A    
C5    C10   1.549444 S    
N1    H12   1.029091 S    
N3    O9    1.300896 A    
C27   H20   1.081556 S    
C28   C29   1.398027 A    
O1    Cu1   1.961673 S    
C21   H15   1.080238 S    
O2    Cu2   1.953043 S    
C15   C16   1.198367 T    
C1    C17   1.428795 S    
C6    C7    1.547989 S    
C11   C12   1.550312 S    
O6    C3    1.285368 A    
C20   C21   1.398179 A    
