data_mof_unit_17870.cif
_audit_creation_date              2012-12-10T18:11:55-0500
_audit_creation_method            fapswitch 2.2
_symmetry_space_group_name_H-M    P1
_symmetry_Int_Tables_number       1
_space_group_crystal_system       triclinic
_cell_length_a                    15.855096
_cell_length_b                    10.72598
_cell_length_c                    9.470954
_cell_angle_alpha                 89.456049
_cell_angle_beta                  90.693252
_cell_angle_gamma                 90.446266
_cell_volume                      1610.40619444

loop_
_atom_site_label
_atom_site_type_symbol
_atom_type_description
_atom_site_fract_x
_atom_site_fract_y
_atom_site_fract_z
_atom_type_partial_charge
C1    C     C_R   0.499491 0.259976 0.500567 0.745591
C2    C     C_3   0.492711 0.927368 0.654024 -0.367114
C3    C     C_3   0.422728 0.071906 0.414721 -0.383866
C4    C     C_R   0.339946 0.499983 0.499302 0.811315
C5    C     C_3   0.581661 0.073758 0.435502 -0.383477
C6    C     C_3   0.499202 0.121994 0.501501 0.165413
C7    C     C_3   0.499307 0.878221 0.500513 0.149098
C8    C     C_3   0.423015 0.928003 0.413655 -0.379442
C9    C     C_3   0.581879 0.929870 0.435506 -0.374933
C10   C     C_3   0.566647 0.587874 0.083421 0.284104
C11   C     C_3   0.559975 0.600402 0.916822 0.381946
C12   C     C_3   0.082944 0.498995 0.497944 0.079104
C13   C     C_3   0.521822 0.375698 0.085241 -0.408028
C14   C     C_3   0.417914 0.534247 0.082171 -0.313594
C15   C     C_3   0.524868 0.378483 0.917582 0.290670
C16   C     C_R   0.499652 0.740094 0.499865 0.762886
C17   C     C_3   0.416018 0.530531 0.914994 0.215119
C18   C     C_R   0.660021 0.499224 0.500639 0.835442
C19   C     C_3   0.972926 0.416751 0.600107 -0.303044
C20   C     C_3   0.027287 0.382802 0.470395 -0.282476
C21   C     C_1   0.250223 0.499850 0.497965 -0.188936
C22   C     C_1   0.749686 0.498131 0.501733 -0.170222
C23   C     C_3   0.972702 0.615352 0.529959 -0.310725
C24   C     C_3   0.029270 0.532580 0.625053 0.531827
C25   C     C_3   0.689853 0.701864 0.881812 0.055080
C26   C     C_3   0.768004 0.700319 0.790481 -0.795805
C27   C     C_3   0.002969 0.596509 0.851561 0.069488
C28   C     C_3   0.043554 0.632936 0.991591 -0.791316
C29   C     C_3   0.916878 0.498910 0.502824 0.105354
C30   C     C_3   0.027094 0.580827 0.400506 -0.279624
C31   C     C_3   0.970565 0.465549 0.376284 0.488127
C32   C     C_1   0.174643 0.499565 0.497680 -0.004246
C33   C     C_1   0.825241 0.498096 0.502301 0.002800
C34   C     C_3   0.493048 0.070085 0.654639 -0.379463
Cu1   Cu    Cu3+1 0.500040 0.499860 0.642410 1.014155
Cu2   Cu    Cu3+1 0.499960 0.500140 0.357590 0.933132
H1    H     H_    0.050383 0.288759 0.442937 0.151183
H2    H     H_    0.426113 0.895298 0.302660 0.169665
H3    H     H_    0.630049 0.550058 0.110680 0.149959
H4    H     H_    0.949792 0.351055 0.682482 0.151433
H5    H     H_    0.533194 0.693234 0.888396 0.116798
H6    H     H_    0.582105 0.341388 0.132015 0.177054
H7    H     H_    0.369065 0.467982 0.121407 0.150228
H8    H     H_    0.398565 0.627125 0.120630 0.179655
H9    H     H_    0.371283 0.454874 0.882393 0.101827
H10   H     H_    0.473068 0.306553 0.118441 0.157739
H11   H     H_    0.477788 0.308203 0.880641 0.113379
H12   H     H_    0.433722 0.892074 0.703599 0.193837
H13   H     H_    0.050443 0.645956 0.317827 0.152604
H14   H     H_    0.949207 0.709648 0.555373 0.147514
H15   H     H_    0.434355 0.103482 0.704907 0.155879
H16   H     H_    0.547492 0.103733 0.719591 0.200956
H17   H     H_    0.546715 0.893410 0.719359 0.160116
H18   H     H_    0.512750 0.749532 0.111299 0.305432
H19   H     H_    0.710903 0.705522 0.994044 0.167664
H20   H     H_    0.654478 0.788229 0.855000 0.124398
H21   H     H_    0.749489 0.709800 0.677549 0.235812
H22   H     H_    0.810172 0.779658 0.818564 0.192800
H23   H     H_    0.362860 0.105180 0.461023 0.148832
H24   H     H_    0.802746 0.611764 0.807112 0.248041
H25   H     H_    0.648774 0.372742 0.927292 0.338999
H26   H     H_    0.324404 0.646777 0.881746 0.319406
H27   H     H_    0.985864 0.408289 0.187373 0.311057
H28   H     H_    0.960774 0.514777 0.870708 0.150071
H29   H     H_    0.964947 0.676834 0.812667 0.140230
H30   H     H_    0.085336 0.715478 0.976629 0.244122
H31   H     H_    0.993735 0.656455 0.068091 0.216350
H32   H     H_    0.081401 0.554353 0.034836 0.239948
H33   H     H_    0.363114 0.891523 0.458829 0.154395
H34   H     H_    0.587570 0.109144 0.325148 0.169558
H35   H     H_    0.637302 0.108874 0.496377 0.162862
H36   H     H_    0.637332 0.895285 0.497103 0.151431
H37   H     H_    0.588420 0.896743 0.325319 0.209659
H38   H     H_    0.425167 0.107618 0.304096 0.165511
N1    N     N_3   0.501840 0.500250 0.143650 -0.164389
N2    N     N_3   0.501160 0.503300 0.856280 -0.167608
O1    O     O_R   0.500050 0.317570 0.620260 -0.571272
O2    O     O_3   0.641355 0.592413 0.857119 -0.562153
O3    O     O_3   0.603112 0.338687 0.866221 -0.685417
O4    O     O_3   0.385447 0.643942 0.859865 -0.728338
O5    O     O_3   0.936722 0.430399 0.245495 -0.734857
O6    O     O_3   0.066655 0.567241 0.754948 -0.578795
O7    O     O_R   0.499980 0.317810 0.379740 -0.600164
O8    O     O_R   0.379110 0.499870 0.620240 -0.553676
O9    O     O_R   0.379040 0.500110 0.379720 -0.593699
O10   O     O_R   0.500020 0.682190 0.620260 -0.558080
O11   O     O_R   0.499950 0.682430 0.379740 -0.535046
O12   O     O_R   0.620960 0.499890 0.620280 -0.470403
O13   O     O_R   0.620890 0.500130 0.379760 -0.574903
O14   O     O_3   0.564389 0.706351 0.144788 -0.751943

loop_
_geom_bond_atom_site_label_1
_geom_bond_atom_site_label_2
_ccdc_geom_bond_type
Cu2   O13   S    
C20   H1    S    
C1    O1    A    
Cu1   Cu2   S    
C9    H36   S    
C15   H11   S    
C3    C6    S    
C7    C8    S    
C8    H33   S    
C9    H37   S    
H27   O5    S    
C23   C29   S    
H26   O4    S    
C11   O2    S    
C17   H9    S    
H18   O14   S    
C11   N2    S    
C5    C6    S    
Cu1   O10   S    
Cu2   O7    S    
C29   C33   S    
C10   N1    S    
C3    H38   S    
C24   O6    S    
C2    C7    S    
C15   O3    S    
C13   N1    S    
C17   N2    S    
C23   C24   S    
C25   H20   S    
C2    C34   S    
C15   N2    S    
C12   C32   S    
C16   O10   A    
C14   C17   S    
C8    H2    S    
C13   H6    S    
Cu2   O11   S    
C21   C32   T    
Cu1   N2    S    
C1    C6    S    
C23   C30   S    
C28   H31   S    
C3    C8    S    
C19   H4    S    
C23   H14   S    
C4    O9    A    
C2    H12   S    
C25   C26   S    
C25   O2    S    
Cu1   O1    S    
C17   O4    S    
C18   O12   A    
C6    C34   S    
C10   H3    S    
C28   H30   S    
C5    C9    S    
C5    H34   S    
C27   H29   S    
Cu2   N1    S    
C16   O11   A    
Cu1   O12   S    
C4    O8    A    
C12   C20   S    
C34   H15   S    
C26   H22   S    
C7    C16   S    
C30   H13   S    
C10   C11   S    
C13   C15   S    
C19   C29   S    
C14   H8    S    
C7    C9    S    
C22   C33   T    
C12   C30   S    
C18   C22   S    
C18   O13   A    
C27   O6    S    
C25   H19   S    
C28   H32   S    
C2    H17   S    
Cu1   O8    S    
Cu2   O9    S    
C1    O7    A    
C12   C24   S    
C34   H16   S    
C31   O5    S    
C14   N1    S    
C19   C20   S    
C19   C24   S    
C29   C31   S    
C4    C21   S    
C30   C31   S    
H25   O3    S    
C11   H5    S    
C26   H21   S    
C27   H28   S    
C10   O14   S    
C5    H35   S    
C27   C28   S    
C13   H10   S    
C26   H24   S    
C14   H7    S    
C20   C31   S    
C3    H23   S    
