data_mof_unit_26459.cif
_audit_creation_date              2012-12-10T18:39:05-0500
_audit_creation_method            fapswitch 2.2
_symmetry_space_group_name_H-M    P1
_symmetry_Int_Tables_number       1
_space_group_crystal_system       triclinic
_cell_length_a                    13.857164
_cell_length_b                    15.160066
_cell_length_c                    17.408984
_cell_angle_alpha                 90.962822
_cell_angle_beta                  85.500926
_cell_angle_gamma                 88.982902
_cell_volume                      3644.75018223

loop_
_atom_site_label
_atom_site_type_symbol
_atom_type_description
_atom_site_fract_x
_atom_site_fract_y
_atom_site_fract_z
_atom_type_partial_charge
C1    C     C_R   0.499030 0.670138 0.499643 0.850788
C2    C     C_R   0.501157 0.329565 0.498903 0.852407
C3    C     C_R   0.425725 0.909531 0.529384 -0.265371
C4    C     C_R   0.585246 0.090685 0.503333 -0.255651
C5    C     C_R   0.418723 0.817707 0.529015 0.420390
C6    C     C_R   0.589006 0.182451 0.503881 0.436294
C7    C     C_R   0.497181 0.766461 0.495125 -0.178313
C8    C     C_R   0.503729 0.232510 0.494066 -0.215060
C9    C     C_R   0.574482 0.807641 0.454182 -0.327354
C10   C     C_R   0.418909 0.188772 0.478404 -0.308338
C11   C     C_R   0.574543 0.898918 0.445688 0.477003
C12   C     C_R   0.417493 0.097262 0.471619 0.455224
C13   C     C_R   0.500676 0.950722 0.486154 -0.037198
C14   C     C_R   0.501128 0.047549 0.486084 -0.046776
C15   C     C_R   0.899145 0.466282 0.437232 -0.328455
C16   C     C_R   0.103260 0.570095 0.532177 -0.334242
C17   C     C_R   0.797613 0.465247 0.438803 -0.136312
C18   C     C_R   0.204568 0.568030 0.533273 -0.132778
C19   C     C_R   0.784143 0.537334 0.560413 0.716274
C20   C     C_R   0.214107 0.432181 0.465047 0.718700
C21   C     C_R   0.885144 0.532792 0.564526 0.283955
C22   C     C_R   0.112477 0.427726 0.468115 0.274806
C23   C     C_R   0.486794 0.501538 0.650144 0.834722
C24   C     C_R   0.513271 0.500371 0.350062 0.797660
C25   C     C_R   0.945332 0.499234 0.500825 -0.011944
C26   C     C_R   0.054663 0.499009 0.500190 -0.005719
C27   C     C_R   0.479114 0.506951 0.734819 -0.142215
C28   C     C_R   0.522174 0.499659 0.265708 -0.127014
C29   C     C_R   0.563630 0.522140 0.772239 -0.238776
C30   C     C_R   0.440860 0.478710 0.226443 -0.260702
C31   C     C_R   0.560702 0.526788 0.851912 -0.159005
C32   C     C_R   0.447054 0.475251 0.146667 -0.155568
C33   C     C_R   0.473448 0.513604 0.896042 0.118993
C34   C     C_R   0.534608 0.493652 0.104583 0.120766
C35   C     C_R   0.388763 0.499173 0.859612 -0.239509
C36   C     C_R   0.616556 0.513066 0.143142 -0.252701
C37   C     C_R   0.389731 0.498701 0.779373 0.454477
C38   C     C_R   0.610804 0.518238 0.223593 0.429098
C39   C     C_2   0.467697 0.515694 0.980373 -0.198114
C40   C     C_2   0.542505 0.492011 0.020222 -0.194797
Cu1   Cu    Cu3+1 0.403570 0.500010 0.500000 1.003632
Cu2   Cu    Cu3+1 0.596430 0.499990 0.500000 1.004037
H1    H     H_    0.632589 0.531138 0.740059 0.223668
H2    H     H_    0.372507 0.463335 0.257394 0.196978
H3    H     H_    0.940954 0.441770 0.385978 0.218003
H4    H     H_    0.063517 0.627199 0.556557 0.219930
H5    H     H_    0.764055 0.437617 0.390070 0.199303
H6    H     H_    0.240326 0.620836 0.561020 0.189032
H7    H     H_    0.611887 0.472771 0.990902 0.146399
H8    H     H_    0.398737 0.535407 0.010240 0.142702
H9    H     H_    0.321621 0.487267 0.893731 0.136821
H10   H     H_    0.684943 0.525182 0.110793 0.137900
H11   H     H_    0.383619 0.456419 0.118261 0.141947
H12   H     H_    0.626814 0.541223 0.878436 0.139923
H13   H     H_    0.371446 0.948942 0.563341 0.195665
H14   H     H_    0.648365 0.052820 0.517256 0.194954
H15   H     H_    0.633682 0.768455 0.426201 0.180642
H16   H     H_    0.352976 0.225529 0.470450 0.230240
N1    N     N_R   0.741310 0.499980 0.500000 -0.242924
N2    N     N_R   0.258690 0.500020 0.500000 -0.234310
O1    O     O_R   0.418570 0.628550 0.499990 -0.575912
O2    O     O_R   0.581430 0.371450 0.500010 -0.570504
O3    O     O_R   0.581440 0.628540 0.499990 -0.556854
O4    O     O_R   0.418560 0.371460 0.500010 -0.531173
O5    O     O_R   0.409120 0.500020 0.613600 -0.564718
O6    O     O_R   0.590880 0.499980 0.386400 -0.565219
O7    O     O_R   0.571990 0.500010 0.613600 -0.534188
O8    O     O_R   0.428010 0.499990 0.386400 -0.566291
F1    F     F_    0.729643 0.580754 0.617410 -0.662149
F2    F     F_    0.267537 0.367679 0.426338 -0.677571
O9    O     O_3   0.923457 0.564127 0.630513 -0.597984
C41   C     C_3   0.946265 0.492493 0.677524 0.061377
H17   H     H_    0.010700 0.510744 0.707921 0.171894
H18   H     H_    0.966767 0.430276 0.644515 0.110121
C42   C     C_3   0.862018 0.475911 0.737548 -0.318500
H19   H     H_    0.840658 0.538603 0.768888 0.241694
H20   H     H_    0.798901 0.451934 0.708173 0.224186
C43   C     C_3   0.889600 0.407237 0.795426 -0.930744
H21   H     H_    0.910028 0.343610 0.765384 0.261706
H22   H     H_    0.826900 0.396371 0.837732 0.259043
H23   H     H_    0.951293 0.430432 0.826992 0.256456
O10   O     O_3   0.071271 0.352624 0.439996 -0.603424
C44   C     C_3   0.048377 0.294090 0.501182 0.054140
H24   H     H_    0.968576 0.286179 0.507053 0.159968
H25   H     H_    0.070226 0.317039 0.558634 0.111503
C45   C     C_3   0.097143 0.204430 0.481534 -0.293964
H26   H     H_    0.073633 0.179039 0.425884 0.221649
H27   H     H_    0.176801 0.212496 0.475292 0.250218
C46   C     C_3   0.072640 0.137315 0.544064 -0.898014
H28   H     H_    0.098043 0.160308 0.599811 0.259785
H29   H     H_    0.109229 0.073239 0.527577 0.270118
H30   H     H_    0.993302 0.127231 0.551108 0.248483
O11   O     O_3   0.693750 0.534032 0.260592 -0.605812
C47   C     C_3   0.711969 0.625420 0.260324 0.050212
H31   H     H_    0.650058 0.663233 0.290603 0.124073
H32   H     H_    0.724485 0.649129 0.200185 0.136818
C48   C     C_3   0.802887 0.641869 0.302558 -0.311790
H33   H     H_    0.789359 0.622986 0.363720 0.236696
H34   H     H_    0.863696 0.600276 0.275671 0.225519
C49   C     C_3   0.832131 0.738373 0.300148 -0.926089
H35   H     H_    0.840402 0.761379 0.239788 0.254908
H36   H     H_    0.902349 0.745648 0.326037 0.261978
H37   H     H_    0.777207 0.780152 0.334058 0.271509
O12   O     O_3   0.304429 0.482334 0.745801 -0.602730
C50   C     C_3   0.254208 0.562943 0.735228 0.085772
H38   H     H_    0.210266 0.552603 0.685560 0.174511
H39   H     H_    0.303388 0.618737 0.720213 0.140424
C51   C     C_3   0.184155 0.587434 0.805265 -0.406261
H40   H     H_    0.137376 0.530416 0.820166 0.228215
H41   H     H_    0.225287 0.604310 0.855469 0.214713
C52   C     C_3   0.120389 0.667076 0.789057 -0.905266
H42   H     H_    0.165756 0.725705 0.777126 0.257932
H43   H     H_    0.069294 0.682056 0.840147 0.262868
H44   H     H_    0.077827 0.653457 0.738878 0.265596
O13   O     O_3   0.340881 0.778390 0.569005 -0.608497
C53   C     C_3   0.252809 0.803045 0.537750 0.031404
H45   H     H_    0.236123 0.752880 0.493720 0.154660
H46   H     H_    0.253927 0.867949 0.508575 0.146558
C54   C     C_3   0.171433 0.807169 0.602355 -0.348492
H47   H     H_    0.164720 0.741975 0.630068 0.213886
H48   H     H_    0.189313 0.856477 0.646780 0.230098
C55   C     C_3   0.074709 0.833145 0.572002 -0.890001
H49   H     H_    0.078242 0.900535 0.547983 0.255230
H50   H     H_    0.016823 0.832643 0.619847 0.270268
H51   H     H_    0.055974 0.785856 0.526338 0.253362
O14   O     O_3   0.674146 0.221729 0.521263 -0.594400
C56   C     C_3   0.732814 0.236187 0.452413 0.087167
H52   H     H_    0.778440 0.293451 0.463706 0.178185
H53   H     H_    0.690190 0.253978 0.402848 0.122442
C57   C     C_3   0.800821 0.157237 0.430956 -0.397267
H54   H     H_    0.842204 0.140382 0.481000 0.232168
H55   H     H_    0.758417 0.099158 0.415416 0.235888
C58   C     C_3   0.871457 0.177844 0.362166 -0.909820
H56   H     H_    0.831333 0.190796 0.310599 0.255567
H57   H     H_    0.921569 0.120617 0.349266 0.261298
H58   H     H_    0.914701 0.236542 0.374870 0.273204
O15   O     O_3   0.652133 0.935363 0.403018 -0.627102
C59   C     C_3   0.623262 0.968921 0.332664 0.039760
H59   H     H_    0.686482 0.003366 0.304756 0.178203
H60   H     H_    0.564720 0.019732 0.341904 0.127796
C60   C     C_3   0.594085 0.895798 0.277146 -0.393467
H61   H     H_    0.651029 0.843297 0.271273 0.227049
H62   H     H_    0.525251 0.866008 0.300088 0.200292
C61   C     C_3   0.579952 0.932197 0.197574 -0.902862
H63   H     H_    0.524313 0.985994 0.201859 0.252401
H64   H     H_    0.555718 0.878738 0.159607 0.256372
H65   H     H_    0.649145 0.958152 0.171310 0.258507
O16   O     O_3   0.330443 0.057839 0.459320 -0.627763
C62   C     C_3   0.330387 0.027762 0.381956 0.020906
H66   H     H_    0.272836 0.977852 0.380061 0.166628
H67   H     H_    0.399110 0.993347 0.360714 0.127345
C63   C     C_3   0.307074 0.103372 0.328489 -0.339159
H68   H     H_    0.241153 0.139871 0.352697 0.237764
H69   H     H_    0.368233 0.149890 0.323887 0.217181
C64   C     C_3   0.289782 0.068855 0.248009 -0.905242
H70   H     H_    0.354555 0.031748 0.222431 0.251665
H71   H     H_    0.275052 0.125179 0.210405 0.263780
H72   H     H_    0.226384 0.024874 0.250584 0.253925

loop_
_geom_bond_atom_site_label_1
_geom_bond_atom_site_label_2
_ccdc_geom_bond_type
O11   C47   S    
C64   H71   S    
C41   H18   S    
Cu1   Cu2   S    
C52   H42   S    
Cu1   O1    S    
C20   F2    S    
C48   H33   S    
C53   H45   S    
C50   H39   S    
C33   C39   S    
C21   O9    S    
C34   C40   S    
C22   O10   S    
C10   H16   S    
C62   H67   S    
C43   H22   S    
C15   C25   A    
C27   C29   A    
C1    O1    A    
C40   H7    S    
C4    H14   S    
C51   H40   S    
C7    C9    A    
C23   O7    A    
C3    H13   S    
C53   H46   S    
C58   H58   S    
C31   C33   A    
C23   C27   S    
C20   N2    A    
Cu2   O2    S    
C9    H15   S    
C3    C13   A    
C24   O6    A    
C1    C7    S    
C13   C14   S    
C29   H1    S    
C64   H72   S    
C30   H2    S    
C41   C42   S    
C1    O3    A    
O12   C50   S    
C48   H34   S    
C2    O4    A    
Cu1   O8    S    
C54   H48   S    
C16   C26   A    
C50   C51   S    
C45   H27   S    
C61   H65   S    
C17   H5    S    
O16   C62   S    
C6    O14   S    
C4    C6    A    
C62   C63   S    
C16   H4    S    
C39   C40   D    
C5    C7    A    
C43   H21   S    
C61   H63   S    
Cu1   O5    S    
C47   C48   S    
C19   N1    A    
C25   C26   S    
C59   C60   S    
C49   H37   S    
C18   H6    S    
C32   C34   A    
C57   H55   S    
C42   H19   S    
C56   H53   S    
C42   H20   S    
C44   H24   S    
C63   C64   S    
C28   C38   A    
C39   H8    S    
C49   H36   S    
C52   H43   S    
C16   C18   A    
C46   H30   S    
C47   H32   S    
C9    C11   A    
C10   C12   A    
C17   N1    A    
C61   H64   S    
C44   H25   S    
C63   H69   S    
C35   H9    S    
Cu2   O7    S    
C59   H60   S    
C19   F1    S    
C57   C58   S    
C46   H29   S    
C15   H3    S    
C55   H50   S    
C56   H52   S    
C46   H28   S    
C32   H11   S    
C48   C49   S    
C58   H57   S    
C50   H38   S    
C54   C55   S    
C18   N2    A    
C15   C17   A    
C21   C25   A    
C35   C37   A    
C45   H26   S    
C2    C8    S    
C24   C28   S    
Cu1   N2    S    
C20   C22   A    
C41   H17   S    
C3    C5    A    
C45   C46   S    
C36   H10   S    
Cu2   N1    S    
C37   O12   S    
C6    C8    A    
C54   H47   S    
C53   C54   S    
C60   C61   S    
O15   C59   S    
C51   C52   S    
C12   O16   S    
C55   H51   S    
C60   H62   S    
C57   H54   S    
C11   O15   S    
C56   C57   S    
O9    C41   S    
C29   C31   A    
C62   H66   S    
C36   C38   A    
C30   C32   A    
C11   C13   A    
C43   H23   S    
C23   O5    A    
C58   H56   S    
C27   C37   A    
O14   C56   S    
C38   O11   S    
C28   C30   A    
C49   H35   S    
C33   C35   A    
C51   H41   S    
C52   H44   S    
C34   C36   A    
C31   H12   S    
C4    C14   A    
C47   H31   S    
C42   C43   S    
C59   H59   S    
C24   O8    A    
C2    O2    A    
C12   C14   A    
C44   C45   S    
C63   H68   S    
C8    C10   A    
O10   C44   S    
C22   C26   A    
C64   H70   S    
Cu2   O6    S    
Cu1   O4    S    
C55   H49   S    
C60   H61   S    
Cu2   O3    S    
C5    O13   S    
O13   C53   S    
C19   C21   A    
