data_mof_unit_62210.cif
_audit_creation_date              2012-12-10T18:00:49-0500
_audit_creation_method            fapswitch 2.2
_symmetry_space_group_name_H-M    P1
_symmetry_Int_Tables_number       1
_space_group_crystal_system       triclinic
_cell_length_a                    30.640043
_cell_length_b                    30.774585
_cell_length_c                    24.834028
_cell_angle_alpha                 89.974807
_cell_angle_beta                  128.508967
_cell_angle_gamma                 90.014915
_cell_volume                      18323.9457206

loop_
_atom_site_label
_atom_site_type_symbol
_atom_type_description
_atom_site_fract_x
_atom_site_fract_y
_atom_site_fract_z
_atom_type_partial_charge
C1    C     C_R   0.809431 0.809287 0.500282 0.812329
C2    C     C_R   0.538295 0.751281 0.070352 0.521492
C3    C     C_R   0.905402 0.091829 0.497899 -0.109929
C4    C     C_R   0.652521 0.587223 0.540939 -0.004371
C5    C     C_R   0.348559 0.585182 0.465109 -0.023883
C6    C     C_R   0.150750 0.096278 0.554939 0.054692
C7    C     C_R   0.847460 0.087167 0.459230 -0.005814
C8    C     C_3   0.688158 0.552660 0.541451 0.796979
C9    C     C_3   0.318064 0.550613 0.474002 0.800516
C10   C     C_3   0.197593 0.063908 0.583942 0.798980
C11   C     C_3   0.811971 0.052616 0.459088 0.796953
C12   C     C_3   0.720342 0.589365 0.538103 -0.473670
C13   C     C_R   0.962866 0.251467 0.929963 0.524016
C14   C     C_3   0.286681 0.587394 0.478629 -0.472009
C15   C     C_3   0.231793 0.100240 0.583711 -0.504389
C16   C     C_3   0.779870 0.089327 0.462531 -0.472426
C17   C     C_R   0.438939 0.558037 0.499571 0.815135
C18   C     C_R   0.561082 0.558048 0.500406 0.816600
C19   C     C_R   0.938894 0.058033 0.499582 0.816288
C20   C     C_R   0.060351 0.058959 0.500352 0.821664
C21   C     C_R   0.940409 0.940397 0.499861 0.801792
C22   C     C_R   0.059041 0.940091 0.500014 0.806182
C23   C     C_R   0.440683 0.440242 0.499845 0.804995
C24   C     C_R   0.032358 0.251520 0.069984 0.524407
C25   C     C_R   0.559435 0.440273 0.500128 0.798650
C26   C     C_R   0.816595 0.750133 0.632591 0.877149
C27   C     C_R   0.183816 0.749955 0.367769 0.927500
C28   C     C_R   0.316489 0.250052 0.632619 0.870579
C29   C     C_R   0.683514 0.250064 0.367380 0.874531
C30   C     C_R   0.653217 0.780699 0.257546 0.331697
C31   C     C_R   0.346880 0.777497 0.744512 0.328825
C32   C     C_R   0.155353 0.276341 0.256121 0.331595
C33   C     C_R   0.846915 0.280338 0.742678 0.326719
C34   C     C_R   0.620134 0.780054 0.185380 0.324744
C35   C     C_R   0.839250 0.849358 0.442678 0.014314
C36   C     C_R   0.382009 0.776461 0.816833 0.321875
C37   C     C_R   0.120287 0.275664 0.183820 0.324519
C38   C     C_R   0.880123 0.279615 0.814879 0.325815
C39   C     C_R   0.575347 0.750499 0.146713 -0.276793
C40   C     C_R   0.429565 0.749379 0.853793 -0.281383
C41   C     C_R   0.071046 0.250486 0.146472 -0.277008
C42   C     C_R   0.925368 0.250433 0.853511 -0.278224
C43   C     C_R   0.566369 0.719142 0.180616 0.362128
C44   C     C_R   0.438540 0.719772 0.817910 0.361812
C45   C     C_R   0.059332 0.222972 0.181768 0.359876
C46   C     C_R   0.099999 0.837756 0.461344 0.082605
C47   C     C_R   0.934352 0.219234 0.819454 0.362031
C48   C     C_R   0.601908 0.718242 0.253742 0.323873
C49   C     C_R   0.401077 0.719078 0.744741 0.330466
C50   C     C_R   0.096817 0.221699 0.254998 0.329812
C51   C     C_R   0.898560 0.218277 0.746291 0.325655
C52   C     C_3   0.675392 0.850120 0.297186 -0.273640
C53   C     C_3   0.318244 0.846597 0.706201 -0.271144
C54   C     C_3   0.187900 0.344359 0.297258 -0.277521
C55   C     C_3   0.824329 0.349802 0.703287 -0.273285
C56   C     C_3   0.931156 0.783252 0.498059 -0.264116
C57   C     C_R   0.347381 0.344525 0.447969 0.007584
C58   C     C_3   0.015296 0.740577 0.409145 -0.262713
C59   C     C_3   0.447143 0.284382 0.526288 -0.261332
C60   C     C_3   0.617860 0.252296 0.598212 -0.304035
C61   C     C_3   0.777799 0.818392 0.719985 -0.255660
C62   C     C_3   0.246080 0.775084 0.283010 -0.261092
C63   C     C_3   0.280516 0.323354 0.718124 -0.253727
C64   C     C_3   0.720045 0.322792 0.281772 -0.254707
C65   C     C_3   0.001858 0.673568 0.840837 0.115695
C66   C     C_3   0.008236 0.647941 0.898289 -0.376410
C67   C     C_3   0.010935 0.599153 0.889779 -0.908274
C68   C     C_R   0.660528 0.349232 0.557755 0.039573
C69   C     C_3   0.974110 0.715751 0.161410 0.120036
C70   C     C_3   0.954771 0.681439 0.105959 -0.375282
C71   C     C_3   0.931821 0.641266 0.116728 -0.914754
C72   C     C_3   0.496645 0.169516 0.847230 0.114590
C73   C     C_3   0.500364 0.148925 0.906230 -0.381563
C74   C     C_3   0.502307 0.099452 0.904415 -0.906523
C75   C     C_3   0.502430 0.170344 0.152771 0.116497
C76   C     C_3   0.498018 0.149548 0.093428 -0.382257
C77   C     C_3   0.495402 0.100109 0.095118 -0.905542
C78   C     C_3   0.952373 0.767028 0.701657 -0.252107
C79   C     C_R   0.842004 0.842911 0.500198 -0.051589
C80   C     C_3   0.064386 0.810170 0.293434 -0.213760
C81   C     C_3   0.454534 0.259053 0.703572 -0.246602
C82   C     C_3   0.545679 0.260028 0.296573 -0.223080
C83   C     C_3   0.701578 0.495943 0.614335 0.102922
C84   C     C_3   0.738738 0.484229 0.690822 -0.347346
C85   C     C_3   0.719332 0.443031 0.704349 -0.924938
C86   C     C_3   0.302924 0.494224 0.399912 0.100043
C87   C     C_3   0.261804 0.482157 0.323662 -0.352445
C88   C     C_3   0.284075 0.446139 0.304553 -0.906825
C89   C     C_3   0.209863 0.010531 0.660775 0.109490
C90   C     C_R   0.157372 0.843137 0.499375 -0.135205
C91   C     C_3   0.225399 0.005352 0.731972 -0.355090
C92   C     C_3   0.214133 0.959147 0.742907 -0.913137
C93   C     C_3   0.798346 0.996008 0.385996 0.104153
C94   C     C_3   0.760958 0.984468 0.309447 -0.348324
C95   C     C_3   0.780241 0.943396 0.295531 -0.922850
C96   C     C_3   0.632809 0.540566 0.419483 -0.006425
C97   C     C_3   0.584855 0.511310 0.364873 -0.312201
C98   C     C_3   0.553209 0.530929 0.293091 -0.937880
C99   C     C_3   0.382152 0.543702 0.597249 -0.008309
C100  C     C_3   0.433298 0.516738 0.651627 -0.315134
C101  C     C_R   0.342231 0.342813 0.499886 -0.061014
C102  C     C_3   0.470285 0.540668 0.720308 -0.931310
C103  C     C_3   0.169232 0.036158 0.475231 -0.025420
C104  C     C_3   0.128733 0.001318 0.424386 -0.310182
C105  C     C_3   0.107601 0.011359 0.351515 -0.922453
C106  C     C_3   0.867655 0.040641 0.581120 -0.005436
C107  C     C_3   0.915722 0.011457 0.635745 -0.312093
C108  C     C_3   0.947642 0.031249 0.707433 -0.938436
C109  C     C_3   0.661264 0.790741 0.134573 0.097873
C110  C     C_3   0.724067 0.795418 0.192927 -0.338500
C111  C     C_3   0.757946 0.781831 0.169772 -0.926965
C112  C     C_R   0.190951 0.809393 0.500700 0.831453
C113  C     C_R   0.657919 0.342771 0.500243 -0.020623
C114  C     C_3   0.345117 0.780389 0.873656 0.095856
C115  C     C_3   0.281475 0.782362 0.819792 -0.323953
C116  C     C_3   0.253107 0.762472 0.847173 -0.935011
C117  C     C_3   0.158711 0.276750 0.128737 0.096874
C118  C     C_3   0.222317 0.277290 0.183824 -0.333172
C119  C     C_3   0.250974 0.256333 0.157539 -0.923606
C120  C     C_3   0.838286 0.288928 0.865003 0.104084
C121  C     C_3   0.775489 0.292162 0.805585 -0.343466
C122  C     C_3   0.741220 0.277547 0.827734 -0.947874
C123  C     C_3   0.527425 0.648698 0.148683 0.138070
C124  C     C_R   0.872104 0.872486 0.554973 -0.240571
C125  C     C_3   0.569598 0.632039 0.138916 -0.405674
C126  C     C_3   0.580684 0.583589 0.154848 -0.929575
C127  C     C_3   0.480493 0.650492 0.848940 0.138292
C128  C     C_3   0.441894 0.632436 0.863791 -0.408249
C129  C     C_3   0.431432 0.583952 0.847966 -0.934621
C130  C     C_3   0.008733 0.157362 0.150737 0.137589
C131  C     C_3   0.044293 0.133287 0.135758 -0.407498
C132  C     C_3   0.047716 0.084852 0.151220 -0.925915
C133  C     C_3   0.973508 0.148892 0.851481 0.139823
C134  C     C_3   0.931649 0.132227 0.861802 -0.407985
C135  C     C_R   0.181297 0.883340 0.531409 -0.197842
C136  C     C_3   0.920734 0.083731 0.846308 -0.929354
C137  C     C_3   0.627317 0.656302 0.318829 -0.368099
C138  C     C_3   0.377009 0.657356 0.679973 -0.378724
C139  C     C_3   0.116299 0.160360 0.318841 -0.386367
C140  C     C_3   0.873267 0.156363 0.681277 -0.370407
C141  C     C_R   0.364410 0.376934 0.547751 -0.230510
C142  C     C_R   0.627652 0.372194 0.445245 -0.228726
C143  C     C_R   0.904648 0.904518 0.555187 -0.189626
C144  C     C_R   0.149176 0.914941 0.532622 -0.241254
C145  C     C_R   0.397195 0.408865 0.548222 -0.196866
C146  C     C_R   0.594966 0.404157 0.444794 -0.178533
C147  C     C_R   0.905263 0.908393 0.499219 -0.066014
C148  C     C_R   0.309490 0.309292 0.500214 0.801963
C149  C     C_R   0.092485 0.907445 0.499124 -0.061429
C150  C     C_R   0.405918 0.407964 0.498986 -0.072818
C151  C     C_R   0.594264 0.408035 0.500675 -0.056000
C152  C     C_R   0.869874 0.881926 0.441796 0.014516
C153  C     C_R   0.067644 0.869971 0.459407 0.054415
C154  C     C_R   0.377776 0.377020 0.446725 0.006786
C155  C     C_R   0.629627 0.381632 0.558166 0.019934
C156  C     C_3   0.882094 0.855219 0.402280 -0.560062
C157  C     C_3   0.031225 0.837546 0.459045 -0.587213
C158  C     C_3   0.397963 0.348292 0.417777 -0.546818
C159  C     C_R   0.690750 0.309278 0.500200 0.800804
C160  C     C_3   0.617338 0.354364 0.597036 -0.530237
C161  C     C_3   0.848185 0.819026 0.403115 0.370452
C162  C     C_3   0.067880 0.802124 0.463087 0.353561
C163  C     C_3   0.364768 0.311804 0.419799 0.382647
C164  C     C_3   0.651770 0.318593 0.597017 0.342825
C165  C     C_R   0.682999 0.749284 0.367636 0.950685
C166  C     C_R   0.316965 0.749341 0.632424 0.949676
C167  C     C_R   0.183080 0.249407 0.367617 0.943674
C168  C     C_R   0.817069 0.249226 0.632396 0.947927
C169  C     C_R   0.837151 0.762845 0.746187 0.435719
C170  C     C_R   0.645338 0.749232 0.291790 -0.331038
C171  C     C_R   0.166761 0.744994 0.256044 0.426982
C172  C     C_R   0.337136 0.265369 0.745767 0.438904
C173  C     C_R   0.662974 0.265149 0.254227 0.438888
C174  C     C_R   0.873896 0.760775 0.818139 -0.327047
C175  C     C_R   0.129684 0.743059 0.184013 -0.322064
C176  C     C_R   0.373629 0.264089 0.817746 -0.326156
C177  C     C_R   0.626461 0.263875 0.182245 -0.326434
C178  C     C_R   0.929338 0.747041 0.854314 -0.164156
C179  C     C_R   0.071726 0.746525 0.147172 -0.162115
C180  C     C_R   0.428327 0.248770 0.854202 -0.163891
C181  C     C_R   0.355597 0.748460 0.708376 -0.334721
C182  C     C_R   0.571631 0.248866 0.145813 -0.163201
C183  C     C_R   0.947652 0.733604 0.816915 0.383929
C184  C     C_R   0.050677 0.750296 0.184083 0.381632
C185  C     C_R   0.446129 0.232508 0.817660 0.384396
C186  C     C_R   0.553686 0.232931 0.182377 0.384748
C187  C     C_R   0.911859 0.737918 0.744665 0.313433
C188  C     C_R   0.088099 0.754870 0.256278 0.295873
C189  C     C_R   0.410753 0.235639 0.745384 0.314746
C190  C     C_R   0.589129 0.236015 0.254656 0.311555
C191  C     C_R   0.855595 0.750323 0.708758 -0.295302
C192  C     C_R   0.144566 0.248799 0.291719 -0.330790
C193  C     C_R   0.145735 0.749835 0.292286 -0.282606
C194  C     C_R   0.355169 0.250261 0.708828 -0.299886
C195  C     C_R   0.644833 0.250311 0.291178 -0.298859
C196  C     C_R   0.034464 0.746487 0.070707 0.463958
C197  C     C_R   0.966748 0.746795 0.930714 0.462682
C198  C     C_R   0.534191 0.249527 0.069815 0.452986
C199  C     C_R   0.465777 0.249463 0.930202 0.453287
C200  C     C_R   0.682911 0.619598 0.538998 -0.015447
C201  C     C_R   0.318473 0.617529 0.467584 -0.000599
C202  C     C_R   0.182081 0.128387 0.554434 -0.024456
C203  C     C_R   0.854873 0.249086 0.708302 -0.332331
C204  C     C_R   0.817112 0.119545 0.461228 -0.015685
C205  C     C_R   0.657820 0.657908 0.502399 -0.066169
C206  C     C_R   0.342095 0.657741 0.497481 -0.065063
C207  C     C_R   0.157119 0.158568 0.501310 -0.064270
C208  C     C_R   0.842184 0.157905 0.497611 -0.067990
C209  C     C_R   0.601318 0.665006 0.471069 -0.174377
C210  C     C_R   0.396684 0.666350 0.521757 -0.172708
C211  C     C_R   0.098722 0.159600 0.452517 -0.201692
C212  C     C_R   0.898641 0.165031 0.528738 -0.172456
C213  C     C_R   0.690384 0.690693 0.499846 0.805479
C214  C     C_R   0.469002 0.750728 0.930348 0.518367
C215  C     C_R   0.309652 0.690662 0.500177 0.820705
C216  C     C_R   0.190526 0.190823 0.500026 0.807518
C217  C     C_R   0.809630 0.190691 0.500174 0.805763
C218  C     C_R   0.569605 0.631807 0.469990 -0.200299
C219  C     C_R   0.428469 0.633234 0.522818 -0.198053
C220  C     C_R   0.066855 0.126781 0.452070 -0.206876
C221  C     C_R   0.930335 0.131828 0.529807 -0.195851
C222  C     C_R   0.594561 0.591842 0.502067 -0.109225
C223  C     C_R   0.405351 0.591744 0.497698 -0.105130
C224  C     C_R   0.093168 0.093481 0.501632 -0.126778
Cu1   Cu    Cu3+1 0.780910 0.719090 0.500000 0.986205
Cu2   Cu    Cu3+1 0.534240 0.500000 0.568430 0.927158
Cu3   Cu    Cu3+1 0.965760 1.000000 0.431570 0.936509
Cu4   Cu    Cu3+1 0.034240 0.000000 0.568430 0.928153
Cu5   Cu    Cu3+1 0.219090 0.719090 0.500000 0.968470
Cu6   Cu    Cu3+1 0.280910 0.219090 0.500000 0.992173
Cu7   Cu    Cu3+1 0.719090 0.219090 0.500000 0.982888
Cu8   Cu    Cu3+1 0.719070 0.780890 0.500010 0.970441
Cu9   Cu    Cu3+1 0.280930 0.780890 0.499990 0.959270
Cu10  Cu    Cu3+1 0.219070 0.280890 0.500010 0.978107
Cu11  Cu    Cu3+1 0.780930 0.280890 0.499990 0.972813
Cu12  Cu    Cu3+1 0.465760 0.500000 0.431570 0.931372
H1    H     H_    0.858410 0.769691 0.845667 0.199711
H2    H     H_    0.471306 0.639715 0.544366 0.151089
H3    H     H_    0.459830 0.161535 0.043526 0.250298
H4    H     H_    0.534881 0.158713 0.097151 0.215875
H5    H     H_    0.533628 0.087272 0.144135 0.259565
H6    H     H_    0.492383 0.086135 0.051681 0.260813
H7    H     H_    0.458210 0.089854 0.090002 0.258866
H8    H     H_    0.987724 0.780583 0.752519 0.172503
H9    H     H_    0.918757 0.791738 0.671432 0.120904
H10   H     H_    0.968149 0.759540 0.672824 0.174952
H11   H     H_    0.039362 0.824903 0.241104 0.160239
H12   H     H_    0.106723 0.824940 0.327262 0.122069
H13   H     H_    0.022002 0.126942 0.412401 0.168905
H14   H     H_    0.042942 0.818378 0.315094 0.220614
H15   H     H_    0.490360 0.272121 0.754560 0.171189
H16   H     H_    0.423039 0.285020 0.672241 0.125160
H17   H     H_    0.470681 0.248735 0.676138 0.171449
H18   H     H_    0.509514 0.272834 0.245581 0.169198
H19   H     H_    0.577249 0.286086 0.327078 0.122096
H20   H     H_    0.530164 0.250128 0.324910 0.190863
H21   H     H_    0.699948 0.467936 0.584799 0.181227
H22   H     H_    0.659118 0.503258 0.596721 0.164949
H23   H     H_    0.782286 0.479349 0.710114 0.230605
H24   H     H_    0.974398 0.137061 0.556452 0.157082
H25   H     H_    0.738551 0.511574 0.719918 0.227092
H26   H     H_    0.675380 0.446429 0.683960 0.275734
H27   H     H_    0.745836 0.437087 0.760625 0.258796
H28   H     H_    0.723408 0.414728 0.680141 0.254412
H29   H     H_    0.310822 0.465262 0.431599 0.183576
H30   H     H_    0.342392 0.505059 0.411394 0.157056
H31   H     H_    0.221848 0.471269 0.311263 0.227080
H32   H     H_    0.253255 0.511375 0.292075 0.231177
H33   H     H_    0.324499 0.455786 0.317391 0.276638
H34   H     H_    0.253796 0.439788 0.248398 0.256035
H35   H     H_    0.764215 0.592848 0.585711 0.208413
H36   H     H_    0.289380 0.415781 0.332022 0.255022
H37   H     H_    0.235257 0.987326 0.656223 0.159992
H38   H     H_    0.164804 0.003109 0.621588 0.184765
H39   H     H_    0.270377 0.012918 0.772021 0.230614
H40   H     H_    0.200595 0.028537 0.737502 0.228843
H41   H     H_    0.169129 0.951216 0.704280 0.269118
H42   H     H_    0.226033 0.956289 0.795111 0.258912
H43   H     H_    0.239018 0.935433 0.738345 0.256237
H44   H     H_    0.800181 0.967891 0.415536 0.183880
H45   H     H_    0.840719 0.003441 0.403380 0.163860
H46   H     H_    0.241335 0.588559 0.434442 0.210524
H47   H     H_    0.717481 0.979517 0.290379 0.230578
H48   H     H_    0.760986 0.011930 0.280367 0.226970
H49   H     H_    0.824160 0.946842 0.315802 0.276176
H50   H     H_    0.753630 0.937630 0.239208 0.258335
H51   H     H_    0.776201 0.914975 0.319615 0.255621
H52   H     H_    0.663471 0.542102 0.409518 0.155042
H53   H     H_    0.615768 0.573587 0.413845 0.153670
H54   H     H_    0.601864 0.479213 0.365738 0.215812
H55   H     H_    0.555523 0.506550 0.376475 0.239895
H56   H     H_    0.534711 0.562708 0.290338 0.262189
H57   H     H_    0.267767 0.111358 0.636026 0.205971
H58   H     H_    0.519065 0.508667 0.254589 0.259490
H59   H     H_    0.581696 0.535614 0.280207 0.249544
H60   H     H_    0.355114 0.546058 0.612720 0.151319
H61   H     H_    0.396499 0.576746 0.596825 0.154623
H62   H     H_    0.419505 0.485574 0.659280 0.208158
H63   H     H_    0.458042 0.509507 0.633918 0.246507
H64   H     H_    0.485814 0.571554 0.714563 0.265082
H65   H     H_    0.506652 0.520025 0.758818 0.258160
H66   H     H_    0.446558 0.547893 0.739369 0.249246
H67   H     H_    0.207083 0.035281 0.478497 0.164644
H68   H     H_    0.735925 0.092762 0.415057 0.209040
H69   H     H_    0.148760 0.068244 0.454527 0.157642
H70   H     H_    0.150094 0.969290 0.440439 0.229160
H71   H     H_    0.092567 0.999420 0.424493 0.232991
H72   H     H_    0.084649 0.042727 0.333483 0.252122
H73   H     H_    0.078821 0.985218 0.316095 0.259437
H74   H     H_    0.143051 0.013170 0.350034 0.253570
H75   H     H_    0.837126 0.042196 0.591297 0.154582
H76   H     H_    0.884619 0.073667 0.586535 0.153209
H77   H     H_    0.898790 0.979407 0.635253 0.216172
H78   H     H_    0.944859 0.006581 0.623867 0.240078
H79   H     H_    0.716081 0.592277 0.490551 0.151341
H80   H     H_    0.966090 0.062977 0.709828 0.262496
H81   H     H_    0.981845 0.009024 0.745957 0.259365
H82   H     H_    0.919351 0.036078 0.720580 0.249561
H83   H     H_    0.650524 0.808238 0.088582 0.176509
H84   H     H_    0.650410 0.755915 0.119279 0.113300
H85   H     H_    0.733985 0.829764 0.210614 0.239436
H86   H     H_    0.736404 0.774511 0.236853 0.233797
H87   H     H_    0.749065 0.747428 0.152485 0.260309
H88   H     H_    0.803127 0.785108 0.213464 0.263622
H89   H     H_    0.747712 0.802909 0.126960 0.261404
H90   H     H_    0.295684 0.592696 0.528813 0.144045
H91   H     H_    0.357581 0.796107 0.921658 0.177715
H92   H     H_    0.359136 0.745859 0.887225 0.112080
H93   H     H_    0.268010 0.816763 0.805215 0.244060
H94   H     H_    0.268002 0.764185 0.773074 0.236696
H95   H     H_    0.265521 0.727890 0.861313 0.259487
H96   H     H_    0.207135 0.764077 0.806817 0.260993
H97   H     H_    0.264709 0.780654 0.893058 0.263126
H98   H     H_    0.147710 0.291901 0.081085 0.177647
H99   H     H_    0.143295 0.242542 0.115010 0.112920
H100  H     H_    0.237040 0.311388 0.199196 0.240194
H101  H     H_    0.242277 0.096070 0.548587 0.166765
H102  H     H_    0.234341 0.259096 0.229902 0.237472
H103  H     H_    0.237278 0.222037 0.142580 0.260588
H104  H     H_    0.296863 0.256865 0.198808 0.263394
H105  H     H_    0.240959 0.274498 0.112411 0.262240
H106  H     H_    0.847622 0.306555 0.910149 0.176590
H107  H     H_    0.850398 0.254364 0.881351 0.112252
H108  H     H_    0.764426 0.326304 0.787038 0.242051
H109  H     H_    0.764551 0.271120 0.762443 0.223453
H110  H     H_    0.751282 0.243334 0.845923 0.262027
H111  H     H_    0.696115 0.279745 0.783254 0.253053
H112  H     H_    0.146600 0.738416 0.157014 0.198127
H113  H     H_    0.784339 0.092309 0.510213 0.150835
H114  H     H_    0.749900 0.298720 0.869631 0.266183
H115  H     H_    0.486842 0.632911 0.108409 0.151686
H116  H     H_    0.537491 0.637373 0.197404 0.184266
H117  H     H_    0.552620 0.637129 0.084814 0.248306
H118  H     H_    0.609988 0.649476 0.173108 0.203522
H119  H     H_    0.599933 0.577491 0.209592 0.249090
H120  H     H_    0.609834 0.572112 0.145547 0.263961
H121  H     H_    0.541194 0.564891 0.121285 0.260549
H122  H     H_    0.522211 0.635647 0.887324 0.153587
H123  H     H_    0.468145 0.639209 0.799048 0.182858
H124  H     H_    0.872670 0.869402 0.598866 0.134360
H125  H     H_    0.461719 0.637070 0.918945 0.248967
H126  H     H_    0.400925 0.649240 0.832398 0.202615
H127  H     H_    0.408157 0.578285 0.792097 0.247660
H128  H     H_    0.406075 0.571350 0.862495 0.264714
H129  H     H_    0.471539 0.565903 0.877546 0.261074
H130  H     H_    0.965232 0.145535 0.112611 0.151937
H131  H     H_    0.019818 0.148078 0.200793 0.185303
H132  H     H_    0.025080 0.137040 0.080636 0.248867
H133  H     H_    0.087334 0.146494 0.167223 0.203997
H134  H     H_    0.067818 0.079677 0.206460 0.253818
H135  H     H_    0.225131 0.889569 0.557968 0.156235
H136  H     H_    0.072978 0.068172 0.139376 0.264178
H137  H     H_    0.005331 0.070277 0.119145 0.259784
H138  H     H_    0.014189 0.133171 0.891612 0.152585
H139  H     H_    0.963159 0.137505 0.802644 0.183918
H140  H     H_    0.948827 0.137475 0.915942 0.248129
H141  H     H_    0.891160 0.149544 0.827651 0.201879
H142  H     H_    0.901269 0.077481 0.791538 0.248874
H143  H     H_    0.891826 0.072259 0.856017 0.263581
H144  H     H_    0.960324 0.065144 0.879818 0.261085
H145  H     H_    0.660792 0.663568 0.373509 0.196541
H146  H     H_    0.358697 0.377670 0.586628 0.145125
H147  H     H_    0.645841 0.647231 0.293459 0.153690
H148  H     H_    0.605304 0.627290 0.317760 0.173377
H149  H     H_    0.340059 0.664557 0.626863 0.196331
H150  H     H_    0.363506 0.645643 0.710021 0.151717
H151  H     H_    0.399032 0.630152 0.676790 0.174629
H152  H     H_    0.155392 0.166931 0.370694 0.194008
H153  H     H_    0.126191 0.145863 0.286495 0.157380
H154  H     H_    0.093400 0.135468 0.324843 0.180554
H155  H     H_    0.839418 0.163690 0.626729 0.196618
H156  H     H_    0.855252 0.146993 0.707159 0.151830
H157  H     H_    0.627179 0.369096 0.401423 0.130429
H158  H     H_    0.895272 0.127522 0.681889 0.174266
H159  H     H_    0.930535 0.925205 0.599783 0.151085
H160  H     H_    0.168489 0.944969 0.559620 0.168540
H161  H     H_    0.416455 0.433638 0.587508 0.161124
H162  H     H_    0.569145 0.424852 0.400160 0.148302
H163  H     H_    0.861424 0.868502 0.349906 0.182515
H164  H     H_    0.358797 0.275129 0.845196 0.198184
H165  H     H_    0.033975 0.839502 0.505791 0.152139
H166  H     H_    0.379686 0.358060 0.364418 0.180109
H167  H     H_    0.637083 0.367391 0.649302 0.169395
H168  H     H_    0.927255 0.849569 0.431939 0.193192
H169  H     H_    0.988290 0.837953 0.409244 0.221373
H170  H     H_    0.444044 0.345309 0.452345 0.193276
H171  H     H_    0.572171 0.346654 0.566276 0.204099
H172  H     H_    0.808368 0.812779 0.351045 0.129404
H173  H     H_    0.093681 0.783689 0.512552 0.085999
H174  H     H_    0.328417 0.301295 0.367308 0.121855
H175  H     H_    0.641374 0.274677 0.154770 0.197840
H176  H     H_    0.691771 0.310847 0.648498 0.109505
H177  H     H_    0.710907 0.872316 0.332370 0.167845
H178  H     H_    0.651858 0.846522 0.317501 0.168349
H179  H     H_    0.648658 0.865594 0.245498 0.203244
H180  H     H_    0.281909 0.868785 0.680728 0.169360
H181  H     H_    0.333294 0.846592 0.675395 0.160005
H182  H     H_    0.350940 0.859915 0.758489 0.196562
H183  H     H_    0.226458 0.363983 0.330734 0.167983
H184  H     H_    0.166965 0.344462 0.321192 0.165521
H185  H     H_    0.160954 0.360342 0.245956 0.203020
H186  H     H_    0.581089 0.695186 0.444456 0.168902
H187  H     H_    0.788690 0.371924 0.668192 0.165240
H188  H     H_    0.847870 0.346513 0.682941 0.168827
H189  H     H_    0.850985 0.365174 0.755041 0.204105
H190  H     H_    0.938291 0.811878 0.529787 0.160726
H191  H     H_    0.960040 0.783936 0.485395 0.145199
H192  H     H_    0.941698 0.754058 0.530299 0.179138
H193  H     H_    0.985011 0.750732 0.417372 0.154390
H194  H     H_    0.047658 0.718808 0.451435 0.146461
H195  H     H_    0.992030 0.721695 0.360571 0.191468
H196  H     H_    0.447956 0.314794 0.550901 0.156721
H197  H     H_    0.415686 0.697815 0.543042 0.169149
H198  H     H_    0.479482 0.285197 0.519151 0.163902
H199  H     H_    0.458368 0.257532 0.562656 0.171503
H200  H     H_    0.601137 0.267106 0.622938 0.144000
H201  H     H_    0.660071 0.238447 0.637907 0.159437
H202  H     H_    0.589802 0.225137 0.565346 0.190808
H203  H     H_    0.733052 0.827524 0.686435 0.183731
H204  H     H_    0.798174 0.838173 0.703601 0.148098
H205  H     H_    0.795667 0.826457 0.773780 0.148475
H206  H     H_    0.292157 0.771839 0.318107 0.186283
H207  H     H_    0.235853 0.805767 0.296815 0.155421
H208  H     H_    0.078134 0.184370 0.412898 0.184909
H209  H     H_    0.232056 0.776992 0.229643 0.152679
H210  H     H_    0.302015 0.341239 0.701593 0.145827
H211  H     H_    0.298566 0.332437 0.771644 0.146765
H212  H     H_    0.236253 0.333839 0.684108 0.184446
H213  H     H_    0.764388 0.333073 0.315803 0.184242
H214  H     H_    0.698651 0.340931 0.298216 0.146591
H215  H     H_    0.702103 0.331774 0.228243 0.147013
H216  H     H_    0.038301 0.666412 0.842673 0.168539
H217  H     H_    0.964348 0.661922 0.789709 0.155013
H218  H     H_    0.047090 0.658198 0.948955 0.251236
H219  H     H_    0.918862 0.195237 0.555209 0.170783
H220  H     H_    0.972199 0.654741 0.897437 0.217293
H221  H     H_    0.972021 0.587927 0.839989 0.259163
H222  H     H_    0.015643 0.581560 0.932178 0.264778
H223  H     H_    0.047215 0.591310 0.891586 0.257865
H224  H     H_    0.937791 0.725563 0.158480 0.169450
H225  H     H_    0.005043 0.701165 0.213435 0.157421
H226  H     H_    0.921611 0.695391 0.054430 0.252101
H227  H     H_    0.990410 0.671580 0.107476 0.217716
H228  H     H_    0.964577 0.626174 0.167417 0.258015
H229  H     H_    0.918040 0.617141 0.075685 0.265096
H230  H     H_    0.525517 0.637014 0.443214 0.154297
H231  H     H_    0.895519 0.650118 0.114376 0.257833
H232  H     H_    0.533089 0.158543 0.851188 0.169866
H233  H     H_    0.458863 0.157343 0.796739 0.150819
H234  H     H_    0.538568 0.160676 0.956311 0.249712
H235  H     H_    0.463456 0.158504 0.902156 0.216159
H236  H     H_    0.464038 0.086859 0.855215 0.259361
H237  H     H_    0.504844 0.085628 0.947605 0.261027
H238  H     H_    0.539513 0.088778 0.909862 0.258299
H239  H     H_    0.466036 0.159760 0.149197 0.171477
H240  H     H_    0.540223 0.157965 0.203089 0.151480
N1    N     N_R   0.524210 0.713563 0.035027 -0.253159
N2    N     N_R   0.978774 0.753063 0.032988 -0.186617
N3    N     N_R   0.521999 0.249720 0.967190 -0.182970
N4    N     N_R   0.477974 0.250195 0.032827 -0.182503
N5    N     N_R   0.055698 0.740737 0.036825 -0.262267
N6    N     N_R   0.945635 0.753078 0.964596 -0.261765
N7    N     N_R   0.555537 0.249688 0.035605 -0.258895
N8    N     N_R   0.444435 0.250101 0.964412 -0.258396
N9    N     N_R   0.490401 0.713305 0.966667 -0.245553
N10   N     N_R   0.011625 0.213879 0.034170 -0.252581
N11   N     N_R   0.977728 0.213850 0.965784 -0.253107
N12   N     N_R   0.483254 0.788781 0.965572 -0.200001
N13   N     N_R   0.517452 0.789077 0.034313 -0.200282
N14   N     N_R   0.983292 0.289439 0.965579 -0.198904
N15   N     N_R   0.017616 0.289449 0.034341 -0.198408
N16   N     N_R   0.022596 0.741026 0.968384 -0.185356
O1    O     O_R   0.821190 0.768980 0.500000 -0.544574
O2    O     O_R   0.074010 0.954920 0.557790 -0.605857
O3    O     O_R   0.425990 0.454920 0.442210 -0.596553
O4    O     O_R   0.574010 0.454920 0.557790 -0.601730
O5    O     O_R   0.983760 0.954940 0.557800 -0.598610
O6    O     O_R   0.016240 0.954940 0.442200 -0.583916
O7    O     O_R   0.483760 0.454940 0.557800 -0.598431
O8    O     O_R   0.516240 0.454940 0.442200 -0.595160
O9    O     O_R   0.768960 0.821170 0.500020 -0.601430
O10   O     O_R   0.231040 0.821170 0.499980 -0.603960
O11   O     O_R   0.268960 0.321170 0.500020 -0.603875
O12   O     O_R   0.178810 0.768980 0.500000 -0.568799
O13   O     O_R   0.731040 0.321170 0.499980 -0.604985
O14   O     O_R   0.726180 0.723900 0.400140 -0.596686
O15   O     O_R   0.273820 0.723900 0.599860 -0.604797
O16   O     O_R   0.226180 0.223900 0.400140 -0.594354
O17   O     O_R   0.773820 0.223900 0.599860 -0.605129
O18   O     O_R   0.673950 0.776090 0.400160 -0.585651
O19   O     O_R   0.326050 0.776090 0.599840 -0.585838
O20   O     O_R   0.173950 0.276090 0.400160 -0.584062
O21   O     O_R   0.826050 0.276090 0.599840 -0.583276
O22   O     O_R   0.731010 0.678810 0.499990 -0.613714
O23   O     O_R   0.321190 0.268980 0.500000 -0.541130
O24   O     O_R   0.268990 0.678810 0.500010 -0.613379
O25   O     O_R   0.231010 0.178810 0.499990 -0.616117
O26   O     O_R   0.768990 0.178810 0.500010 -0.613188
O27   O     O_R   0.678790 0.731000 0.500010 -0.576881
O28   O     O_R   0.321210 0.731000 0.499990 -0.578491
O29   O     O_R   0.178790 0.231000 0.500010 -0.567861
O30   O     O_R   0.821210 0.231000 0.499990 -0.575915
O31   O     O_R   0.826030 0.723890 0.599860 -0.545479
O32   O     O_R   0.173970 0.723890 0.400140 -0.554790
O33   O     O_R   0.326030 0.223890 0.599860 -0.543418
O34   O     O_R   0.678810 0.268980 0.500000 -0.539405
O35   O     O_R   0.673970 0.223890 0.400140 -0.541899
O36   O     O_R   0.773800 0.776080 0.599870 -0.560671
O37   O     O_R   0.226200 0.776080 0.400130 -0.584790
O38   O     O_R   0.273800 0.276080 0.599870 -0.557777
O39   O     O_R   0.726200 0.276080 0.400130 -0.557551
O40   O     O_R   0.425940 0.545090 0.442170 -0.593656
O41   O     O_R   0.574060 0.545090 0.557830 -0.593553
O42   O     O_R   0.925940 0.045090 0.442170 -0.594781
O43   O     O_R   0.074060 0.045090 0.557830 -0.590276
O44   O     O_3   0.696741 0.810022 0.295486 -0.597108
O45   O     O_R   0.483700 0.545120 0.557760 -0.583744
O46   O     O_3   0.300925 0.804706 0.708691 -0.575542
O47   O     O_3   0.202772 0.301987 0.292590 -0.589793
O48   O     O_3   0.803212 0.309524 0.704836 -0.600345
O49   O     O_3   0.875437 0.779113 0.437143 -0.542642
O50   O     O_3   0.039801 0.776812 0.402646 -0.540537
O51   O     O_3   0.394319 0.275058 0.463061 -0.537459
O52   O     O_3   0.618990 0.282530 0.556463 -0.533428
O53   O     O_3   0.781767 0.773485 0.712230 -0.545779
O54   O     O_3   0.223312 0.738446 0.291648 -0.561141
O55   O     O_3   0.282305 0.277985 0.711429 -0.542530
O56   O     O_R   0.516300 0.545120 0.442240 -0.584165
O57   O     O_3   0.717904 0.277472 0.288568 -0.543455
O58   O     O_3   0.001764 0.718910 0.851026 -0.582602
O59   O     O_3   0.993759 0.753391 0.149510 -0.582714
O60   O     O_3   0.499286 0.215464 0.852624 -0.582754
O61   O     O_3   0.500337 0.216293 0.147438 -0.582602
O62   O     O_3   0.932050 0.728348 0.709350 -0.555253
O63   O     O_3   0.067810 0.764535 0.291436 -0.547488
O64   O     O_3   0.430570 0.222678 0.710831 -0.550566
O65   O     O_3   0.569238 0.223389 0.289268 -0.553932
O66   O     O_3   0.725313 0.532195 0.606569 -0.627870
O67   O     O_R   0.983700 0.045120 0.557760 -0.585033
O68   O     O_3   0.278488 0.527242 0.412539 -0.623077
O69   O     O_3   0.221873 0.053331 0.653294 -0.626449
O70   O     O_3   0.774630 0.032097 0.394084 -0.628165
O71   O     O_3   0.658783 0.522250 0.485499 -0.644207
O72   O     O_3   0.352463 0.522569 0.532499 -0.639422
O73   O     O_3   0.184761 0.026817 0.541102 -0.671844
O74   O     O_3   0.841521 0.022251 0.515126 -0.642740
O75   O     O_3   0.630283 0.810204 0.152929 -0.578802
O76   O     O_3   0.370713 0.803934 0.850961 -0.575211
O77   O     O_3   0.133133 0.301834 0.150040 -0.576337
O78   O     O_R   0.016300 0.045120 0.442240 -0.587856
O79   O     O_3   0.869395 0.309180 0.847374 -0.578559
O80   O     O_3   0.517908 0.694236 0.140186 -0.576350
O81   O     O_3   0.488221 0.696266 0.855987 -0.572115
O82   O     O_3   0.007013 0.203185 0.142974 -0.575764
O83   O     O_3   0.982925 0.194447 0.859696 -0.575187
O84   O     O_3   0.589057 0.691281 0.286848 -0.561142
O85   O     O_3   0.413252 0.693639 0.709589 -0.555530
O86   O     O_3   0.082983 0.198262 0.290104 -0.565102
O87   O     O_3   0.911373 0.191442 0.713055 -0.559392
O88   O     O_R   0.925990 0.954920 0.442210 -0.598538

loop_
_geom_bond_atom_site_label_1
_geom_bond_atom_site_label_2
_ccdc_geom_bond_type
C75   O61   S    
C198  N4    A    
C64   H215  S    
C101  C148  S    
C169  O53   S    
C142  C146  A    
C172  C194  A    
Cu9   O37   S    
C74   H238  S    
Cu4   O67   S    
C114  C115  S    
C211  C220  A    
Cu12  O56   S    
Cu5   O15   S    
C49   O85   S    
C158  H166  S    
C128  H126  S    
C140  O87   S    
C61   O53   S    
C106  H75   S    
C156  H168  S    
C58   H193  S    
C199  N3    A    
C106  C107  S    
C129  H128  S    
C177  C182  A    
C14   C201  S    
C81   H17   S    
C45   O82   S    
C78   H9    S    
C198  N7    A    
C122  H114  S    
C54   O47   S    
C149  C153  A    
C110  C111  S    
C53   H180  S    
C84   H23   S    
C56   H190  S    
C189  C194  A    
C152  C156  S    
C103  H69   S    
C52   H177  S    
C169  C174  A    
C138  H150  S    
C3    C19   S    
C151  C155  A    
C60   H200  S    
C63   H210  S    
C40   C44   A    
C126  H119  S    
Cu12  O3    S    
C141  C145  A    
C87   H32   S    
C59   H199  S    
C156  H163  S    
C31   C181  A    
C89   H37   S    
C24   C41   S    
C127  O81   S    
C75   H240  S    
C81   H15   S    
C104  C105  S    
C119  H105  S    
C6    C224  A    
C68   C164  S    
Cu7   O17   S    
C211  H208  S    
C109  H84   S    
C104  H71   S    
C116  H95   S    
Cu6   O23   S    
C164  H176  S    
C99   H60   S    
C138  O85   S    
C123  O80   S    
C30   C34   A    
C150  C154  A    
C33   C203  A    
C29   O39   A    
C75   C76   S    
C66   H218  S    
C102  H66   S    
Cu11  O39   S    
C123  H116  S    
Cu3   Cu4   S    
C55   H187  S    
C208  C212  A    
C16   H68   S    
Cu3   O6    S    
Cu8   O36   S    
C20   C224  S    
C80   H11   S    
C114  H92   S    
C111  H89   S    
C8    O71   S    
C16   H113  S    
C11   O74   S    
C125  H117  S    
C21   O88   A    
C1    C79   S    
C82   H19   S    
C137  H148  S    
C35   C152  A    
C86   H30   S    
C137  O84   S    
Cu8   O9    S    
C208  C217  S    
C46   C153  A    
C122  H111  S    
C12   H79   S    
C65   O58   S    
Cu4   O5    S    
C72   C73   S    
Cu7   O35   S    
C134  C136  S    
C26   C191  S    
C157  H165  S    
C154  C158  S    
C95   H50   S    
C57   C154  A    
C3    C7    A    
C33   C38   A    
C82   O65   S    
C76   H4    S    
C52   O44   S    
C52   H179  S    
C130  C131  S    
C56   H192  S    
C14   H90   S    
C119  H104  S    
C45   C50   A    
Cu6   O16   S    
N12   N13   A    
Cu5   O32   S    
Cu1   O31   S    
Cu6   Cu10  S    
C62   H209  S    
C139  H153  S    
C60   H202  S    
N10   N11   A    
C132  H137  S    
C61   H203  S    
Cu2   O4    S    
C38   O79   S    
C115  H94   S    
C88   H33   S    
C91   H40   S    
C81   O64   S    
C40   C214  S    
C41   C45   A    
C31   C36   A    
C106  O74   S    
Cu10  O29   S    
C25   O4    A    
C97   H55   S    
C16   C204  S    
C173  O57   S    
C157  C162  S    
Cu12  O40   S    
C140  H155  S    
C215  O24   A    
C168  O21   A    
C136  H143  S    
C23   O3    A    
C98   H59   S    
C139  O86   S    
C133  H138  S    
C171  C193  A    
C128  C129  S    
C97   C98   S    
C99   O72   S    
C113  C142  A    
C35   C161  S    
C76   H3    S    
C26   O36   A    
C71   H228  S    
C102  H64   S    
C48   O84   S    
N2    N6    A    
C115  C116  S    
C22   O6    A    
Cu2   Cu12  S    
C83   H22   S    
C112  O12   A    
C58   O50   S    
C107  H77   S    
C207  C216  S    
C167  O20   A    
C105  H73   S    
C196  N5    A    
C30   C170  A    
C58   H195  S    
C28   C194  S    
C107  C108  S    
C172  O55   S    
C173  C177  A    
C70   H226  S    
C175  H112  S    
C30   O44   S    
C145  C150  A    
C66   C67   S    
Cu2   O45   S    
C34   O75   S    
C67   H222  S    
C80   H14   S    
C207  C211  A    
C53   H181  S    
Cu2   O7    S    
C69   C70   S    
Cu5   Cu9   S    
C63   H211  S    
C168  O17   A    
C132  H134  S    
C108  H81   S    
Cu1   Cu8   S    
Cu9   O19   S    
C34   C39   A    
C171  O54   S    
C204  C208  A    
C78   O62   S    
C174  H1    S    
C91   C92   S    
C73   H235  S    
C54   H184  S    
C29   C195  S    
C55   H189  S    
C210  C219  A    
C165  O14   A    
C62   H207  S    
C22   O2    A    
C161  H172  S    
C110  H86   S    
C98   H56   S    
C120  O79   S    
C5    C9    S    
C17   C223  S    
Cu1   O1    S    
C206  C210  A    
C83   C84   S    
C57   C163  S    
C8    C12   S    
C12   C200  S    
C15   H101  S    
C189  O64   S    
C32   C37   A    
C113  C159  S    
C100  H63   S    
C112  O10   A    
C176  H164  S    
C158  C163  S    
C49   C181  A    
C190  C195  A    
C210  H197  S    
C178  C197  S    
C156  C161  S    
C202  C207  A    
C114  O76   S    
C169  C191  A    
C157  H169  S    
Cu2   O41   S    
C120  C121  S    
C165  O18   A    
C25   O8    A    
C99   H61   S    
C77   H7    S    
C188  O63   S    
C137  H145  S    
C166  O15   A    
C188  C193  A    
C118  H100  S    
C185  C189  A    
C56   O49   S    
C126  H121  S    
C32   O47   S    
C57   C101  A    
C79   C124  A    
C163  H174  S    
C25   C151  S    
C17   O45   A    
C33   O48   S    
C11   O70   S    
C103  O73   S    
C117  C118  S    
C63   O55   S    
C90   C135  A    
C106  H76   S    
C58   H194  S    
C121  H109  S    
C129  H127  S    
C95   H51   S    
C141  H146  S    
C184  O59   S    
C35   C79   A    
C78   H10   S    
C197  N16   A    
Cu3   O78   S    
C52   H178  S    
C130  H131  S    
C164  O52   S    
C146  C151  A    
C4    C200  A    
C31   O46   S    
C138  H151  S    
C130  H130  S    
Cu7   Cu11  S    
C117  H99   S    
C10   O69   S    
C18   O56   A    
C132  H136  S    
C2    N1    A    
C126  H120  S    
C172  C176  A    
C87   H31   S    
C94   H47   S    
C206  C215  S    
C87   C88   S    
C200  C205  A    
Cu10  O11   S    
C13   N11   A    
C73   C74   S    
C2    N13   A    
C28   O38   A    
C27   O32   A    
C75   H239  S    
C85   H26   S    
Cu11  O21   S    
C68   C155  A    
C64   H213  S    
C109  O75   S    
C124  H124  S    
C136  H142  S    
C109  H83   S    
C65   H217  S    
C160  C164  S    
C94   H48   S    
C116  H96   S    
Cu7   O26   S    
C85   H27   S    
C179  C184  A    
C86   O68   S    
C19   O67   A    
C123  C125  S    
Cu11  O13   S    
C148  O23   A    
Cu10  O20   S    
C32   C192  A    
C26   O31   A    
C182  C186  A    
C83   O66   S    
C218  H230  S    
C92   H42   S    
C13   C42   S    
C28   O33   A    
C134  H141  S    
C74   H236  S    
C123  H115  S    
C215  O28   A    
C116  H97   S    
C80   H12   S    
C124  C143  A    
C70   C71   S    
Cu6   O33   S    
C221  H24   S    
C50   C192  A    
C174  C178  A    
C178  C183  A    
C68   C113  A    
Cu12  O8    S    
C22   C149  S    
C205  C213  S    
C3    C221  A    
C1    O9    A    
C220  H13   S    
C82   H20   S    
C72   H232  S    
N4    N8    A    
C74   H237  S    
C61   H205  S    
C51   C203  A    
C179  C196  S    
C146  H162  S    
Cu3   O42   S    
C140  H158  S    
C216  O29   A    
C67   H223  S    
Cu5   O24   S    
C96   H53   S    
C217  O30   A    
C162  H173  S    
C128  H125  S    
C86   C87   S    
C47   C51   A    
C183  O58   S    
C129  H129  S    
C95   H49   S    
C214  N9    A    
Cu3   O88   S    
C108  H80   S    
C196  N2    A    
C13   N14   A    
C143  C147  A    
C9    C14   S    
C7    C204  A    
C183  C187  A    
C213  O22   A    
C11   C16   S    
C119  H103  S    
C20   O43   A    
C19   O42   A    
C138  H149  S    
C51   O87   S    
C84   C85   S    
C50   O86   S    
C121  C122  S    
C62   O54   S    
C160  H171  S    
C43   O80   S    
C48   C170  A    
C115  H93   S    
C88   H34   S    
C23   C150  S    
C89   H38   S    
Cu9   O28   S    
C96   O71   S    
C133  C134  S    
C77   H5    S    
C84   H25   S    
C81   H16   S    
C100  H62   S    
C127  C128  S    
C121  H108  S    
C21   C147  S    
C117  H98   S    
C131  H133  S    
C165  C170  S    
C136  H144  S    
C80   O63   S    
Cu5   O12   S    
C130  O82   S    
C111  H87   S    
C6    C10   S    
C69   O59   S    
C6    C202  A    
C64   O57   S    
C46   C90   A    
C44   O81   S    
C187  O62   S    
C199  N8    A    
C143  H159  S    
C27   O37   A    
Cu1   O22   S    
C197  N6    A    
Cu11  O30   S    
C91   H39   S    
C72   H233  S    
C56   H191  S    
C109  C110  S    
C120  H107  S    
C5    C201  A    
Cu1   O14   S    
C55   H188  S    
C92   H43   S    
C4    C222  A    
C96   H52   S    
C83   H21   S    
C201  C206  A    
C114  H91   S    
Cu4   O43   S    
C153  C157  S    
C94   C95   S    
C18   C222  S    
C8    O66   S    
C158  H170  S    
C105  H72   S    
C219  C223  A    
C125  H118  S    
C186  O61   S    
C133  O83   S    
C59   H196  S    
C103  C104  S    
C160  H167  S    
C82   H18   S    
C186  C190  A    
C122  H110  S    
C86   H29   S    
C1    O1    A    
C70   H227  S    
C190  O65   S    
C148  O11   A    
C44   C49   A    
C209  H186  S    
Cu4   O2    S    
C93   C94   S    
C67   H221  S    
C89   O69   S    
C18   O41   A    
C140  H156  S    
C182  C198  S    
C90   C112  S    
C4    C8    S    
C93   H45   S    
C166  O19   A    
C185  O60   S    
C14   H46   S    
C12   H35   S    
C7    C11   S    
C167  C192  S    
C72   O60   S    
C108  H82   S    
C144  H160  S    
C209  C218  A    
C162  O50   S    
C219  H2    S    
C38   C42   A    
C71   H231  S    
C10   C15   S    
C212  H219  S    
C47   O83   S    
C55   O48   S    
N3    N7    A    
C73   H234  S    
C54   H185  S    
C23   O7    A    
C60   H201  S    
C17   O40   A    
C21   O5    A    
C97   H54   S    
C139  H154  S    
C92   H41   S    
C10   O73   S    
C118  C119  S    
C61   H204  S    
C127  H123  S    
C101  C141  A    
C2    C39   S    
C88   H36   S    
C127  H122  S    
C93   H44   S    
C173  C195  A    
C217  O26   A    
C43   C48   A    
C187  C191  A    
Cu10  O38   S    
C142  H157  S    
C102  H65   S    
C117  O77   S    
C111  H88   S    
C37   C41   A    
C98   H58   S    
C166  C181  S    
C133  H139  S    
C218  C222  A    
C212  C221  A    
C59   H198  S    
C39   C43   A    
C9    O72   S    
C77   H6    S    
C36   C40   A    
C76   C77   S    
C69   H224  S    
C78   H8    S    
C135  H135  S    
C175  C179  A    
C171  C175  A    
C177  H175  S    
C66   H220  S    
C184  C188  A    
C93   O70   S    
C110  H85   S    
C144  C149  A    
Cu8   O27   S    
C105  H74   S    
C176  C180  A    
C99   C100  S    
C205  C209  A    
C214  N12   A    
C96   C97   S    
C100  C102  S    
C53   O46   S    
C213  O27   A    
C27   C193  S    
C134  H140  S    
C135  C144  A    
C5    C223  A    
C216  O25   A    
C24   N10   A    
C46   C162  S    
C53   H182  S    
C89   C91   S    
C63   H212  S    
Cu7   O34   S    
C220  C224  A    
C15   C202  S    
C104  H70   S    
C15   H57   S    
C155  C160  S    
N5    N16   A    
C69   H225  S    
C71   H229  S    
C64   H214  S    
C54   H183  S    
C168  C203  S    
C131  H132  S    
C62   H206  S    
C65   H216  S    
C139  H152  S    
C159  O34   A    
C147  C152  A    
Cu6   O25   S    
C180  C199  S    
C137  H147  S    
C107  H78   S    
C125  C126  S    
C59   O51   S    
C103  H67   S    
C161  O49   S    
C42   C47   A    
Cu9   O10   S    
C163  O51   S    
C180  C185  A    
C120  H106  S    
C118  H102  S    
C29   O35   A    
C60   O52   S    
Cu8   O18   S    
C159  O13   A    
C9    O68   S    
C145  H161  S    
C65   C66   S    
N14   N15   A    
N1    N9    A    
C24   N15   A    
C36   O76   S    
C85   H28   S    
C20   O78   A    
C37   O77   S    
C167  O16   A    
C131  C132  S    
