data_mof_unit_6925.cif
_audit_creation_date              2012-12-10T17:54:23-0500
_audit_creation_method            fapswitch 2.2
_symmetry_space_group_name_H-M    P1
_symmetry_Int_Tables_number       1
_space_group_crystal_system       triclinic
_cell_length_a                    27.413822
_cell_length_b                    10.674495
_cell_length_c                    9.968778
_cell_angle_alpha                 91.726696
_cell_angle_beta                  89.53513
_cell_angle_gamma                 91.014778
_cell_volume                      2915.28484345

loop_
_atom_site_label
_atom_site_type_symbol
_atom_type_description
_atom_site_fract_x
_atom_site_fract_y
_atom_site_fract_z
_atom_type_partial_charge
C1    C     C_R   0.495674 0.260068 0.498140 0.938098
C2    C     C_R   0.270950 0.436716 0.470150 0.006290
C3    C     C_R   0.253335 0.535529 0.553816 0.137540
C4    C     C_R   0.102983 0.540749 0.637938 -0.058123
C5    C     C_R   0.130674 0.437105 0.672241 -0.021545
C6    C     C_R   0.107339 0.330693 0.722746 -0.156990
C7    C     C_R   0.126470 0.648494 0.589202 -0.123951
C8    C     C_R   0.353537 0.515188 0.506899 -0.204773
C9    C     C_R   0.647380 0.488883 0.502740 -0.226303
C10   C     C_R   0.977945 0.406350 0.643429 0.033586
C11   C     C_R   0.972851 0.635448 0.640022 0.062551
C12   C     C_R   0.406199 0.501496 0.500914 0.926886
C13   C     C_R   0.950014 0.515407 0.633436 0.080788
C14   C     C_R   0.955901 0.289497 0.610791 -0.233656
C15   C     C_R   0.906567 0.278629 0.578560 -0.006540
C16   C     C_R   0.877296 0.386886 0.580148 -0.068493
C17   C     C_R   0.899251 0.504911 0.612128 -0.063115
C18   C     C_R   0.870799 0.613544 0.619996 -0.023796
C19   C     C_R   0.820673 0.602805 0.599048 0.538005
C20   C     C_R   0.827216 0.383576 0.547845 0.520998
C21   C     C_R   0.717925 0.419075 0.623747 -0.104568
C22   C     C_R   0.667791 0.418676 0.604815 0.567437
C23   C     C_R   0.505290 0.739787 0.502384 0.985939
C24   C     C_R   0.678144 0.553087 0.412461 -0.157027
C25   C     C_R   0.729057 0.546054 0.425983 0.000577
C26   C     C_R   0.748790 0.482978 0.534809 0.128031
C27   C     C_R   0.028196 0.418849 0.673994 0.032164
C28   C     C_R   0.051711 0.535074 0.648032 0.002597
C29   C     C_R   0.024187 0.643848 0.626301 -0.090721
C30   C     C_R   0.056547 0.320435 0.724205 -0.029686
C31   C     C_R   0.099180 0.754378 0.563240 -0.186975
C32   C     C_R   0.943406 0.741672 0.656190 -0.121900
C33   C     C_R   0.892961 0.730440 0.648395 -0.142086
C34   C     C_R   0.594067 0.498380 0.499807 0.940215
C35   C     C_R   0.048875 0.753552 0.583050 0.598188
C36   C     C_R   0.451328 0.110818 0.720972 -0.073062
C37   C     C_R   0.455052 0.060968 0.848791 0.587704
C38   C     C_R   0.486341 0.962228 0.868808 -0.261911
C39   C     C_R   0.508961 0.902979 0.758977 0.644036
C40   C     C_R   0.500947 0.944378 0.627421 -0.095527
C41   C     C_R   0.480182 0.061544 0.613313 -0.164164
C42   C     C_R   0.491238 0.125384 0.494084 -0.295781
C43   C     C_R   0.509681 0.060644 0.380512 0.576183
C44   C     C_R   0.518369 0.935010 0.386510 0.545019
C45   C     C_R   0.181252 0.442136 0.653783 0.536638
C46   C     C_R   0.511934 0.874499 0.508258 -0.294637
C47   C     C_R   0.423753 0.379760 0.131944 -0.037014
C48   C     C_R   0.378738 0.364741 0.068228 -0.087200
C49   C     C_R   0.371057 0.424401 0.948462 -0.163919
C50   C     C_R   0.410418 0.480793 0.882721 -0.133047
C51   C     C_R   0.458023 0.471409 0.931674 0.138302
C52   C     C_R   0.461461 0.448317 0.070781 0.155373
C53   C     C_R   0.538809 0.542507 0.073361 -0.073969
C54   C     C_R   0.539964 0.537433 0.930895 0.011651
C55   C     C_R   0.176571 0.645119 0.561184 0.568573
C56   C     C_R   0.285757 0.625741 0.607685 -0.177779
C57   C     C_R   0.335295 0.617619 0.581691 0.563529
C58   C     C_R   0.321509 0.422787 0.452438 -0.144291
H1    H     H_    0.272491 0.701583 0.671906 0.197233
H2    H     H_    0.116552 0.837997 0.524680 0.221157
H3    H     H_    0.958619 0.833734 0.679105 0.213261
H4    H     H_    0.871554 0.814437 0.660092 0.205614
H5    H     H_    0.491951 0.928966 0.968977 0.234868
H6    H     H_    0.569910 0.578706 0.128712 0.168633
H7    H     H_    0.429111 0.336768 0.226734 0.191880
H8    H     H_    0.348846 0.315166 0.115323 0.171598
H9    H     H_    0.334638 0.429257 0.907931 0.179060
H10   H     H_    0.401624 0.549565 0.811761 0.220713
H11   H     H_    0.128580 0.253688 0.758124 0.199129
H12   H     H_    0.977552 0.206016 0.600646 0.174139
N1    N     N_R   0.202664 0.541338 0.590477 -0.338134
N2    N     N_R   0.800252 0.490003 0.560054 -0.343053
N3    N     N_R   0.499540 0.498800 0.142780 -0.125748
N4    N     N_R   0.499520 0.498720 0.857170 -0.134375
O1    O     O_R   0.500000 0.316780 0.614690 -0.605304
O2    O     O_2   0.805304 0.275999 0.504161 -0.533672
O3    O     O_2   0.198775 0.743334 0.502407 -0.538907
O4    O     O_2   0.792420 0.704491 0.616065 -0.532571
O5    O     O_R   0.500000 0.316750 0.385360 -0.571855
O6    O     O_R   0.428760 0.500030 0.614650 -0.628236
O7    O     O_R   0.428750 0.500010 0.385320 -0.652260
O8    O     O_R   0.500000 0.683250 0.614640 -0.570117
O9    O     O_R   0.500000 0.683220 0.385310 -0.562596
O10   O     O_R   0.571250 0.499990 0.614680 -0.576893
O11   O     O_R   0.571240 0.499970 0.385350 -0.625524
O12   O     O_2   0.208801 0.347637 0.696031 -0.548774
Zn1   Zn    Zn3+2 0.500000 0.500020 0.653130 1.036404
Zn2   Zn    Zn3+2 0.500000 0.499980 0.346870 1.026071
C59   C     C_1   0.340217 0.306852 0.394767 0.172706
N5    N     N_1   0.354911 0.213002 0.351185 -0.175033
C60   C     C_1   0.658217 0.634623 0.313815 0.248438
N6    N     N_1   0.642805 0.701057 0.235586 -0.134986
C61   C     C_1   0.761411 0.605947 0.330649 0.266228
N7    N     N_1   0.787273 0.653714 0.254588 -0.157269
F1    F     F_    0.024761 0.855994 0.543996 -0.677115
F2    F     F_    0.519895 0.118175 0.263496 -0.590846
C62   C     C_1   0.412111 0.195405 0.697573 0.317219
N8    N     N_1   0.379892 0.261038 0.679524 -0.196742
F3    F     F_    0.428916 0.108821 0.954026 -0.635085
C63   C     C_1   0.237163 0.349093 0.404727 0.259184
N9    N     N_1   0.210175 0.279164 0.352451 -0.158872
F4    F     F_    0.542572 0.815322 0.783332 -0.654706
F5    F     F_    0.534067 0.873276 0.273363 -0.607285
C64   C     C_1   0.583763 0.584888 0.869075 0.419892
N10   N     N_1   0.619486 0.624508 0.822768 -0.131843
F6    F     F_    0.638679 0.351747 0.688798 -0.644080
C65   C     C_1   0.737249 0.357275 0.738383 0.345877
N11   N     N_1   0.752742 0.307866 0.830182 -0.151365
C66   C     C_1   0.887891 0.153977 0.545685 0.312237
N12   N     N_1   0.873162 0.054010 0.519454 -0.139618
C67   C     C_1   0.035207 0.214203 0.791305 0.188449
N13   N     N_1   0.018257 0.129147 0.845252 -0.163369
F7    F     F_    0.365873 0.707509 0.634271 -0.668108

loop_
_geom_bond_atom_site_label_1
_geom_bond_atom_site_label_2
_ccdc_geom_bond_type
C10   C27   A    
C6    H11   S    
C21   C26   A    
C25   C61   S    
C61   N7    T    
C23   O8    A    
C45   N1    A    
C26   N2    S    
C41   C42   A    
C15   C66   S    
C67   N13   T    
C51   N4    A    
C7    C55   A    
C62   N8    T    
C19   N2    A    
C53   C54   A    
C40   C46   A    
C23   O9    A    
C54   C64   S    
C28   C29   A    
C32   H3    S    
O6    Zn1   S    
C5    C6    A    
C55   O3    S    
C53   H6    S    
C9    C22   A    
O8    Zn1   S    
C56   C57   A    
C20   O2    S    
C18   C19   A    
O5    Zn2   S    
C8    C58   A    
C54   N4    A    
C33   H4    S    
C65   N11   T    
O10   Zn1   S    
C36   C62   S    
N4    Zn1   S    
C18   C33   A    
C8    C12   S    
O9    Zn2   S    
C2    C63   S    
C23   C46   S    
C21   C22   A    
C27   C30   A    
C14   H12   S    
C36   C41   A    
C34   O10   A    
C4    C7    A    
C64   N10   T    
C4    C28   A    
C44   F5    S    
C44   C46   A    
C17   C18   A    
C7    C31   A    
C51   C52   A    
C1    O1    A    
C24   C25   A    
C52   N3    A    
C10   C14   A    
C60   N6    T    
C16   C17   A    
C57   F7    S    
C25   C26   A    
C22   F6    S    
C5    C45   A    
C34   O11   A    
C31   H2    S    
C19   O4    S    
C3    N1    S    
C43   C44   A    
N3    Zn2   S    
C37   C38   A    
C8    C57   A    
C43   F2    S    
C3    C56   A    
C47   C48   A    
C16   C20   A    
C50   C51   A    
C21   C65   S    
O1    Zn1   S    
C48   C49   A    
C6    C30   A    
C11   C32   A    
C9    C34   S    
C1    O5    A    
C31   C35   A    
C42   C43   A    
C24   C60   S    
C39   C40   A    
C39   F4    S    
C38   H5    S    
O11   Zn2   S    
C36   C37   A    
C49   H9    S    
C53   N3    A    
C4    C5    A    
C10   C13   A    
C2    C58   A    
C9    C24   A    
C47   C52   A    
C35   F1    S    
C29   C35   A    
C56   H1    S    
C13   C17   A    
C30   C67   S    
C32   C33   A    
C2    C3    A    
C66   N12   T    
C11   C13   A    
C37   F3    S    
C38   C39   A    
C12   O6    A    
C63   N9    T    
C12   O7    A    
C45   O12   S    
C58   C59   S    
O7    Zn2   S    
C1    C42   S    
C11   C29   A    
C49   C50   A    
C27   C28   A    
C14   C15   A    
C20   N2    A    
C40   C41   A    
C48   H8    S    
C59   N5    T    
C50   H10   S    
C47   H7    S    
C55   N1    A    
C15   C16   A    
