data_mof_unit_13223.cif
_audit_creation_date              2012-12-10T17:43:23-0500
_audit_creation_method            fapswitch 2.2
_symmetry_space_group_name_H-M    P1
_symmetry_Int_Tables_number       1
_space_group_crystal_system       triclinic
_cell_length_a                    15.037846
_cell_length_b                    13.855488
_cell_length_c                    10.719319
_cell_angle_alpha                 89.875107
_cell_angle_beta                  88.129457
_cell_angle_gamma                 90.754561
_cell_volume                      2232.05055698

loop_
_atom_site_label
_atom_site_type_symbol
_atom_type_description
_atom_site_fract_x
_atom_site_fract_y
_atom_site_fract_z
_atom_type_partial_charge
C1    C     C_R   0.328934 0.499430 0.503752 0.929829
C2    C     C_R   0.670811 0.500216 0.501660 0.952627
C3    C     C_R   0.952672 0.511786 0.510473 -0.090712
C4    C     C_R   0.046314 0.512036 0.511406 -0.085983
C5    C     C_R   0.909348 0.530113 0.397761 -0.096604
C6    C     C_R   0.089983 0.483124 0.620162 -0.086718
C7    C     C_R   0.946400 0.467991 0.730410 -0.288400
C8    C     C_R   0.051970 0.563994 0.294040 -0.280407
C9    C     C_R   0.039551 0.467969 0.732610 0.487060
C10   C     C_R   0.959397 0.561082 0.291233 0.488447
C11   C     C_R   0.433765 0.793258 0.563359 0.562759
C12   C     C_R   0.554547 0.207200 0.417064 0.562365
C13   C     C_R   0.567181 0.795158 0.438039 0.562423
C14   C     C_R   0.447215 0.204992 0.584581 0.564867
C15   C     C_R   0.563566 0.897950 0.426690 -0.237639
C16   C     C_R   0.439703 0.102135 0.577571 -0.229536
C17   C     C_R   0.438370 0.895910 0.575031 -0.230657
C18   C     C_R   0.562004 0.104418 0.424024 -0.234915
C19   C     C_R   0.500621 0.948532 0.500242 -0.122402
C20   C     C_R   0.500602 0.051684 0.500296 -0.125084
C21   C     C_R   0.623634 0.951534 0.347766 0.402582
C22   C     C_R   0.375284 0.048452 0.649102 0.415709
C23   C     C_R   0.380776 0.947235 0.657352 0.399263
C24   C     C_R   0.627909 0.052940 0.355028 0.407648
C25   C     C_R   0.498557 0.500517 0.259368 0.871785
C26   C     C_R   0.500638 0.500466 0.740394 0.858778
C27   C     C_3   0.452395 0.581144 0.043231 -0.306696
C28   C     C_3   0.544909 0.426581 0.957591 -0.331361
C29   C     C_3   0.537295 0.586763 0.957008 -0.282264
C30   C     C_3   0.458531 0.421472 0.041449 -0.321424
C31   C     C_3   0.416552 0.499472 0.960116 0.546413
C32   C     C_3   0.580247 0.509806 0.037949 0.579125
C33   C     C_3   0.500675 0.503160 0.876933 -0.090671
C34   C     C_3   0.496608 0.503135 0.122325 -0.082516
C35   C     C_R   0.816964 0.514892 0.393897 0.377575
C36   C     C_R   0.183010 0.469401 0.612602 0.328435
C37   C     C_R   0.767279 0.500541 0.504789 -0.301661
C38   C     C_R   0.231998 0.499019 0.505230 -0.284300
C39   C     C_R   0.809360 0.478633 0.615661 0.374385
C40   C     C_R   0.188953 0.530271 0.398967 0.379588
C41   C     C_R   0.902595 0.486197 0.619694 -0.018077
C42   C     C_R   0.095978 0.536241 0.401294 -0.022111
Cu1   Cu    Cu3+1 0.500000 0.597420 0.500000 1.026123
Cu2   Cu    Cu3+1 0.500000 0.402580 0.500000 1.013790
H1    H     H_    0.415412 0.643680 0.082016 0.159015
H2    H     H_    0.584472 0.364639 0.923309 0.133825
H3    H     H_    0.570286 0.653719 0.920609 0.146808
H4    H     H_    0.422440 0.356053 0.076362 0.137832
H5    H     H_    0.908435 0.451161 0.815385 0.179583
H6    H     H_    0.089126 0.585866 0.210302 0.183521
N1    N     N_R   0.500000 0.743810 0.500000 -0.282104
N2    N     N_R   0.500000 0.256190 0.500000 -0.280298
O1    O     O_R   0.370260 0.582280 0.500030 -0.549622
O2    O     O_R   0.629740 0.417720 0.499970 -0.567135
O3    O     O_R   0.629740 0.582280 0.499970 -0.559246
O4    O     O_R   0.370260 0.417720 0.500030 -0.580255
O5    O     O_R   0.499980 0.582260 0.316850 -0.555132
O6    O     O_R   0.500020 0.417740 0.683150 -0.548072
O7    O     O_R   0.500020 0.582260 0.683150 -0.598259
O8    O     O_R   0.499980 0.417740 0.316850 -0.577117
O9    O     O_3   0.330487 0.491918 0.911667 -0.560511
C43   C     C_3   0.299172 0.585153 0.884951 -0.231475
H7    H     H_    0.281769 0.624366 0.972495 0.131451
H8    H     H_    0.237384 0.579021 0.832213 0.226660
H9    H     H_    0.347946 0.627793 0.826422 0.191593
O10   O     O_3   0.665504 0.521544 0.086237 -0.552018
C44   C     C_3   0.729775 0.516999 0.988052 -0.234946
H10   H     H_    0.715237 0.566627 0.909772 0.164412
H11   H     H_    0.736223 0.441533 0.955135 0.172201
H12   H     H_    0.795105 0.539425 0.023691 0.234141
O11   O     O_3   0.776473 0.498273 0.282027 -0.494008
C45   C     C_3   0.788552 0.399624 0.251786 -0.165574
H13   H     H_    0.770246 0.350471 0.331279 0.152945
H14   H     H_    0.858336 0.386620 0.219313 0.133050
H15   H     H_    0.744728 0.379102 0.175102 0.202647
O12   O     O_3   0.226975 0.426410 0.708819 -0.519750
C46   C     C_3   0.214779 0.325626 0.699754 -0.053556
H16   H     H_    0.245281 0.297812 0.611273 0.152598
H17   H     H_    0.143332 0.303820 0.706056 0.110008
H18   H     H_    0.247407 0.291035 0.779268 0.227378
O13   O     O_3   0.758760 0.446588 0.717915 -0.613868
C47   C     C_3   0.756583 0.344508 0.716678 -0.372920
H19   H     H_    0.822432 0.314561 0.738792 0.166059
H20   H     H_    0.734887 0.314938 0.625976 0.180937
H21   H     H_    0.707988 0.318569 0.789490 0.168092
O14   O     O_3   0.237957 0.550924 0.290587 -0.597548
C48   C     C_3   0.248361 0.464162 0.223327 -0.368277
H22   H     H_    0.183757 0.426196 0.208831 0.169203
H23   H     H_    0.295226 0.415201 0.269408 0.162453
H24   H     H_    0.276832 0.481963 0.130301 0.236580
O15   O     O_3   0.081517 0.446164 0.842260 -0.550632
C49   C     C_3   0.061799 0.516442 0.933731 -0.294103
H25   H     H_    0.994857 0.503107 0.977555 0.189794
H26   H     H_    0.067230 0.591344 0.895806 0.138985
H27   H     H_    0.110983 0.510360 0.008029 0.198790
O16   O     O_3   0.918343 0.584574 0.181967 -0.580723
C50   C     C_3   0.914140 0.685898 0.172785 -0.292769
H28   H     H_    0.981764 0.718980 0.161762 0.138986
H29   H     H_    0.877668 0.717390 0.254728 0.178550
H30   H     H_    0.877015 0.704458 0.088461 0.187250
O17   O     O_3   0.362626 0.742430 0.617039 -0.539058
C51   C     C_3   0.286588 0.757168 0.544724 -0.212295
H31   H     H_    0.232446 0.708153 0.579932 0.165304
H32   H     H_    0.299724 0.740328 0.444275 0.158124
H33   H     H_    0.261367 0.831826 0.552485 0.148402
O18   O     O_3   0.602574 0.259051 0.327010 -0.529485
C52   C     C_3   0.563754 0.243306 0.210095 -0.235029
H34   H     H_    0.593068 0.296261 0.142635 0.177708
H35   H     H_    0.490350 0.252830 0.214832 0.128215
H36   H     H_    0.578025 0.170654 0.172038 0.158798
O19   O     O_3   0.639668 0.746416 0.388649 -0.498186
C53   C     C_3   0.712570 0.761840 0.467319 -0.190597
H37   H     H_    0.767897 0.714934 0.435523 0.168681
H38   H     H_    0.695446 0.742827 0.566340 0.119139
H39   H     H_    0.738050 0.837318 0.463198 0.143292
O20   O     O_3   0.403547 0.254409 0.679145 -0.529979
C54   C     C_3   0.446945 0.237299 0.792147 -0.229482
H40   H     H_    0.519656 0.253023 0.783170 0.126336
H41   H     H_    0.436940 0.162303 0.826584 0.148532
H42   H     H_    0.417613 0.285202 0.864368 0.197787
O21   O     O_3   0.681644 0.905796 0.265179 -0.541564
C55   C     C_3   0.638319 0.891980 0.151782 -0.229914
H43   H     H_    0.620617 0.962200 0.109068 0.132319
H44   H     H_    0.577957 0.845151 0.164687 0.151650
H45   H     H_    0.684486 0.854920 0.085412 0.178119
O22   O     O_3   0.307579 0.094468 0.714983 -0.550428
C56   C     C_3   0.228673 0.084306 0.648208 -0.313372
H46   H     H_    0.208374 0.007315 0.637990 0.180083
H47   H     H_    0.235771 0.119392 0.554818 0.132245
H48   H     H_    0.174074 0.120434 0.701171 0.167893
O23   O     O_3   0.326944 0.899512 0.745299 -0.545692
C57   C     C_3   0.376190 0.885788 0.853487 -0.262578
H49   H     H_    0.396883 0.956090 0.894321 0.142036
H50   H     H_    0.435346 0.840016 0.834181 0.146184
H51   H     H_    0.333225 0.847542 0.924236 0.173920
O24   O     O_3   0.696884 0.100599 0.291234 -0.546149
C58   C     C_3   0.766452 0.116052 0.374245 -0.267291
H52   H     H_    0.792505 0.046444 0.408937 0.149269
H53   H     H_    0.744977 0.162483 0.454044 0.139507
H54   H     H_    0.821886 0.154299 0.323377 0.170687

loop_
_geom_bond_atom_site_label_1
_geom_bond_atom_site_label_2
_ccdc_geom_bond_type
C12   O18   S    
C48   H22   S    
O22   C56   S    
C27   C29   S    
C31   O9    S    
C19   C20   A    
C9    O15   S    
C6    C9    A    
C53   H38   S    
O13   C47   S    
C39   C41   A    
C46   H16   S    
C15   C19   A    
C58   H53   S    
C28   H2    S    
C17   C23   A    
C29   H3    S    
C18   C24   A    
C30   H4    S    
C35   C37   A    
C1    O4    A    
C8    C42   A    
C29   C32   S    
C2    O3    A    
C54   H41   S    
C30   C31   S    
C22   O22   S    
C27   H1    S    
C29   C33   S    
O20   C54   S    
C51   H33   S    
C40   O14   S    
C1    O1    A    
C43   H8    S    
C36   O12   S    
C50   H29   S    
C13   N1    A    
Cu1   O1    S    
C14   N2    A    
O19   C53   S    
Cu2   O6    S    
C57   H49   S    
C52   H34   S    
C31   C33   S    
C25   O8    A    
C26   O7    A    
Cu1   O7    S    
C25   C34   S    
C24   O24   S    
C40   C42   A    
O10   C44   S    
C35   O11   S    
C52   H35   S    
O9    C43   S    
C25   O5    A    
C45   H15   S    
C53   H37   S    
C12   N2    A    
C50   H28   S    
C46   H17   S    
C27   C34   S    
C37   C39   A    
C58   H54   S    
C30   C34   S    
C27   C31   S    
C44   H10   S    
O17   C51   S    
C28   C32   S    
O12   C46   S    
C7    H5    S    
C45   H14   S    
C2    O2    A    
C54   H42   S    
O15   C49   S    
O14   C48   S    
O24   C58   S    
C49   H27   S    
C3    C4    A    
C44   H11   S    
C32   C34   S    
Cu1   Cu2   S    
C56   H47   S    
C43   H7    S    
Cu2   O4    S    
C26   C33   S    
C10   O16   S    
C16   C20   A    
O16   C50   S    
C49   H26   S    
C23   O23   S    
C11   O17   S    
C51   H32   S    
C26   O6    A    
C39   O13   S    
O21   C55   S    
C1    C38   S    
C4    C6    A    
C28   C33   S    
C47   H20   S    
C13   C15   A    
C52   H36   S    
C14   C16   A    
C21   C24   A    
C55   H44   S    
C56   H46   S    
C8    H6    S    
C50   H30   S    
C32   O10   S    
C46   H18   S    
Cu1   O3    S    
C7    C9    A    
C3    C41   A    
C16   C22   A    
C43   H9    S    
C8    C10   A    
C45   H13   S    
C3    C5    A    
C11   C17   A    
Cu2   N2    S    
C47   H21   S    
C58   H52   S    
C44   H12   S    
C55   H45   S    
C48   H23   S    
C56   H48   S    
C5    C10   A    
C13   O19   S    
C54   H40   S    
C36   C38   A    
C38   C40   A    
C2    C37   S    
Cu1   N1    S    
C4    C42   A    
Cu2   O8    S    
C57   H51   S    
C14   O20   S    
C5    C35   A    
C28   C30   S    
C49   H25   S    
C17   C19   A    
C6    C36   A    
C18   C20   A    
C7    C41   A    
C21   O21   S    
C51   H31   S    
C11   N1    A    
Cu1   O5    S    
Cu2   O2    S    
C15   C21   A    
O11   C45   S    
C57   H50   S    
C47   H19   S    
O18   C52   S    
C48   H24   S    
C12   C18   A    
C22   C23   A    
C55   H43   S    
C53   H39   S    
O23   C57   S    
