data_mof_unit_38581.cif
_audit_creation_date              2012-12-10T17:20:25-0500
_audit_creation_method            fapswitch 2.2
_symmetry_space_group_name_H-M    P1
_symmetry_Int_Tables_number       1
_space_group_crystal_system       triclinic
_cell_length_a                    11.694628
_cell_length_b                    10.766281
_cell_length_c                    9.655249
_cell_angle_alpha                 89.344063
_cell_angle_beta                  89.953788
_cell_angle_gamma                 93.502681
_cell_volume                      1213.31788464

loop_
_atom_site_label
_atom_site_type_symbol
_atom_type_description
_atom_site_fract_x
_atom_site_fract_y
_atom_site_fract_z
_atom_type_partial_charge
C1    C     C_R   0.498005 0.262771 0.500688 0.842958
C2    C     C_R   0.218083 0.050528 0.311405 -0.098248
C3    C     C_R   0.218143 0.921406 0.308667 -0.114169
C4    C     C_R   0.307586 0.860778 0.369685 -0.152232
C5    C     C_R   0.399877 0.929201 0.433383 0.093894
C6    C     C_R   0.400274 0.060450 0.435708 0.060535
C7    C     C_R   0.491957 0.128360 0.501920 -0.150310
C8    C     C_R   0.579411 0.066989 0.568577 0.255833
C9    C     C_R   0.577384 0.938643 0.567323 -0.174537
C10   C     C_R   0.490218 0.870128 0.498767 -0.114841
C11   C     C_R   0.692652 0.623464 0.132187 0.307242
C12   C     C_R   0.284260 0.499421 0.500036 0.792790
C13   C     C_R   0.790396 0.646082 0.050219 -0.179821
C14   C     C_R   0.777989 0.663000 0.909742 -0.215345
C15   C     C_R   0.672047 0.637610 0.850250 -0.092993
C16   C     C_R   0.584829 0.568706 0.923080 0.126462
C17   C     C_R   0.588985 0.566285 0.072385 0.132999
C18   C     C_R   0.419394 0.433962 0.075731 -0.072107
C19   C     C_R   0.420807 0.430918 0.928918 0.355675
C20   C     C_R   0.495767 0.736675 0.499519 0.817281
C21   C     C_R   0.715686 0.499575 0.500024 0.863004
C22   C     C_1   0.162476 0.499529 0.500077 -0.143803
C23   C     C_1   0.059919 0.499634 0.500058 0.023536
C24   C     C_1   0.940030 0.499674 0.500033 0.030706
C25   C     C_1   0.837473 0.499622 0.500023 -0.115066
C26   C     C_R   0.307572 0.119796 0.374931 -0.135312
Cu1   Cu    Cu3+1 0.499990 0.499990 0.640660 1.014737
Cu2   Cu    Cu3+1 0.500010 0.500010 0.359340 0.985063
H1    H     H_    0.848504 0.703911 0.848458 0.173170
H2    H     H_    0.663190 0.670174 0.746420 0.190007
H3    H     H_    0.302113 0.219622 0.377505 0.134080
H4    H     H_    0.147838 0.097223 0.265262 0.155401
H5    H     H_    0.147974 0.867873 0.260365 0.149069
H6    H     H_    0.302627 0.760260 0.367917 0.138805
H7    H     H_    0.645981 0.891848 0.617452 0.168971
H8    H     H_    0.354150 0.378651 0.132246 0.161172
H9    H     H_    0.871357 0.678487 0.095928 0.181556
N1    N     N_R   0.501070 0.501210 0.147910 -0.210210
N2    N     N_R   0.501110 0.501290 0.852040 -0.211768
O1    O     O_R   0.499990 0.319640 0.618810 -0.509717
O2    O     O_R   0.500000 0.319660 0.381240 -0.585374
O3    O     O_R   0.337190 0.500000 0.618790 -0.529666
O4    O     O_R   0.337200 0.500030 0.381210 -0.603166
O5    O     O_R   0.500000 0.680340 0.618760 -0.610224
O6    O     O_R   0.500010 0.680360 0.381190 -0.533815
O7    O     O_R   0.662800 0.499970 0.618790 -0.582017
O8    O     O_R   0.662810 0.500000 0.381210 -0.556022
Br1   Br    Br    0.707436 0.154297 0.656910 -0.469746
Br2   Br    Br    0.309993 0.317523 0.844651 -0.473172
Br3   Br    Br    0.706764 0.750029 0.270639 -0.521265

loop_
_geom_bond_atom_site_label_1
_geom_bond_atom_site_label_2
_ccdc_geom_bond_type
C23   C24   S    
C8    Br1   S    
Cu2   O8    S    
C6    C7    A    
C9    C10   A    
C19   Br2   S    
Cu2   O4    S    
C13   H9    S    
C20   O6    A    
Cu2   N1    S    
Cu1   O1    S    
C2    C3    A    
C18   N1    A    
C26   H3    S    
C2    C26   A    
C11   Br3   S    
C13   C14   A    
C11   C13   A    
Cu1   O3    S    
C6    C26   A    
C19   N2    A    
Cu1   O7    S    
C1    O2    A    
C20   O5    A    
C18   C19   A    
C12   O4    A    
C17   N1    A    
C22   C23   T    
C5    C6    A    
C4    H6    S    
Cu2   O6    S    
C16   C17   A    
C3    H5    S    
C14   H1    S    
C5    C10   A    
C3    C4    A    
C12   C22   S    
Cu2   O2    S    
C7    C8    A    
C24   C25   T    
C15   H2    S    
C2    H4    S    
C21   O7    A    
C10   C20   S    
Cu1   Cu2   S    
C9    H7    S    
C21   C25   S    
C14   C15   A    
C4    C5    A    
C12   O3    A    
C16   N2    A    
C1    O1    A    
C1    C7    S    
C18   H8    S    
Cu1   O5    S    
C11   C17   A    
C15   C16   A    
Cu1   N2    S    
C8    C9    A    
C21   O8    A    
