data_mof_unit_55421.cif
_audit_creation_date              2012-12-10T18:15:10-0500
_audit_creation_method            fapswitch 2.2
_symmetry_space_group_name_H-M    P1
_symmetry_Int_Tables_number       1
_space_group_crystal_system       triclinic
_cell_length_a                    12.570862
_cell_length_b                    13.319607
_cell_length_c                    23.363323
_cell_angle_alpha                 90.006342
_cell_angle_beta                  101.233834
_cell_angle_gamma                 83.783904
_cell_volume                      3813.53608024

loop_
_atom_site_label
_atom_site_type_symbol
_atom_type_description
_atom_site_fract_x
_atom_site_fract_y
_atom_site_fract_z
_atom_type_partial_charge
C1    C     C_R   0.441356 0.690097 0.487691 0.882340
C2    C     C_R   0.568602 0.406446 0.887659 0.547505
C3    C     C_R   0.461691 0.402416 0.753713 0.064763
C4    C     C_R   0.499994 0.499513 0.610200 0.877116
C5    C     C_R   0.463254 0.410070 0.694569 -0.317615
C6    C     C_R   0.501954 0.493733 0.672395 -0.092886
C7    C     C_R   0.543045 0.569151 0.709971 -0.020477
C8    C     C_R   0.543257 0.560304 0.769267 -0.159957
C9    C     C_R   0.502053 0.477965 0.791099 0.251648
C10   C     C_R   0.530211 0.566230 0.240390 -0.160369
C11   C     C_R   0.530346 0.570195 0.299573 -0.243517
C12   C     C_R   0.353971 0.617639 0.014369 -0.249666
C13   C     C_R   0.502279 0.488564 0.328428 -0.131298
C14   C     C_R   0.470032 0.402398 0.297549 -0.124943
C15   C     C_R   0.462936 0.400907 0.237076 0.508142
C16   C     C_R   0.559566 0.309826 0.507585 0.870920
C17   C     C_R   0.497011 0.481941 0.209061 0.169103
C18   C     C_R   0.720140 0.059780 0.553715 0.040224
C19   C     C_R   0.592199 0.202717 0.514842 -0.066775
C20   C     C_R   0.298769 0.833388 0.458036 -0.195387
C21   C     C_R   0.266016 0.936483 0.454708 -0.144493
C22   C     C_R   0.342998 0.004452 0.468664 -0.147559
C23   C     C_R   0.355625 0.620636 0.954982 0.504859
C24   C     C_R   0.455968 0.970387 0.481149 0.032397
C25   C     C_R   0.489905 0.866840 0.476789 0.004063
C26   C     C_R   0.536927 0.035453 0.500112 0.052522
C27   C     C_R   0.644549 0.995173 0.526115 0.064624
C28   C     C_R   0.501014 0.497004 0.390050 0.892440
C29   C     C_R   0.676792 0.894242 0.516963 -0.399178
C30   C     C_R   0.603600 0.838153 0.480474 0.501546
C31   C     C_R   0.514554 0.138876 0.492394 -0.221895
C32   C     C_R   0.693601 0.163985 0.547347 -0.266004
C33   C     C_R   0.410006 0.797401 0.471790 -0.110944
C34   C     C_R   0.424977 0.547481 0.931711 -0.127304
C35   C     C_R   0.083837 0.360979 0.410635 -0.266457
C36   C     C_R   0.798495 0.636618 0.562915 0.012362
C37   C     C_R   0.895270 0.679224 0.564558 -0.437886
C38   C     C_R   0.974584 0.633517 0.534761 0.558273
C39   C     C_R   0.956823 0.540163 0.507333 -0.076144
C40   C     C_R   0.568464 0.409993 0.127897 0.591269
C41   C     C_R   0.852321 0.507011 0.501124 0.087785
C42   C     C_R   0.037552 0.481919 0.482532 -0.157349
C43   C     C_R   0.006521 0.408473 0.440680 -0.013705
C44   C     C_R   0.900453 0.380535 0.431883 0.444624
C45   C     C_R   0.497029 0.476369 0.969637 -0.077118
C46   C     C_R   0.825677 0.428330 0.462812 -0.300685
C47   C     C_R   0.150208 0.486557 0.502084 0.667626
C48   C     C_R   0.191072 0.383853 0.424399 -0.125874
C49   C     C_R   0.425722 0.546917 0.111685 0.498764
C50   C     C_R   0.425071 0.547410 0.051993 -0.057232
C51   C     C_R   0.497465 0.476513 0.029888 -0.089912
C52   C     C_R   0.569461 0.405467 0.067889 -0.123863
C53   C     C_1   0.445769 0.314911 0.327297 0.219633
C54   C     C_3   0.321153 0.342511 0.172997 0.065448
C55   C     C_3   0.238821 0.295220 0.201980 -0.335014
C56   C     C_R   0.568363 0.404748 0.947359 -0.047543
C57   C     C_3   0.122951 0.318731 0.166834 -0.961852
C58   C     C_1   0.822257 0.021805 0.590837 0.133990
C59   C     C_3   0.340073 0.778971 0.913756 0.153678
C60   C     C_3   0.318939 0.858504 0.958813 -0.419380
C61   C     C_3   0.364598 0.956622 0.947473 -0.894953
C62   C     C_3   0.724722 0.802627 0.417856 0.096912
C63   C     C_3   0.733794 0.754248 0.359491 -0.383292
C64   C     C_3   0.782015 0.643923 0.366681 -0.765022
C65   C     C_3   0.881024 0.213284 0.427960 0.055546
C66   C     C_3   0.866604 0.124305 0.387028 -0.270851
C67   C     C_R   0.637669 0.333013 0.984814 -0.273495
C68   C     C_3   0.885004 0.024291 0.421239 -1.022195
C69   C     C_3   0.207457 0.450579 0.599960 0.073526
C70   C     C_3   0.104190 0.431950 0.622391 -0.441050
C71   C     C_3   0.132376 0.366075 0.677878 -0.879847
C72   C     C_3   0.105769 0.746671 0.565297 0.150454
C73   C     C_3   0.074369 0.857699 0.547035 -0.406892
C74   C     C_3   0.141427 0.926785 0.588009 -0.898996
C75   C     C_3   0.814280 0.250751 0.078804 0.104657
C76   C     C_3   0.852535 0.145939 0.058725 -0.340985
C77   C     C_3   0.975343 0.132570 0.060950 -0.945165
C78   C     C_R   0.640446 0.333287 0.045088 0.498797
C79   C     C_1   0.416166 0.318417 0.775188 0.193328
C80   C     C_1   0.580668 0.657973 0.688500 0.172755
C81   C     C_R   0.425169 0.542715 0.871727 0.516889
H1    H     H_    0.297414 0.671887 0.030945 0.201336
H2    H     H_    0.061890 0.307130 0.376799 0.197860
H3    H     H_    0.735924 0.674499 0.583585 0.172207
H4    H     H_    0.903990 0.750603 0.585933 0.163760
H5    H     H_    0.746430 0.403882 0.454238 0.228579
H6    H     H_    0.689081 0.275377 0.967267 0.193023
H7    H     H_    0.433214 0.351401 0.665535 0.150393
H8    H     H_    0.573362 0.618330 0.798729 0.141496
H9    H     H_    0.554269 0.629279 0.218526 0.167492
H10   H     H_    0.318706 0.310297 0.128947 0.174781
H11   H     H_    0.295477 0.425238 0.166127 0.151888
H12   H     H_    0.549745 0.637615 0.322974 0.183195
H13   H     H_    0.260274 0.211989 0.205727 0.241836
H14   H     H_    0.241773 0.325406 0.246518 0.221286
H15   H     H_    0.097904 0.401415 0.165375 0.276510
H16   H     H_    0.065608 0.280504 0.187699 0.266653
H17   H     H_    0.118080 0.291559 0.121566 0.266713
H18   H     H_    0.306294 0.811979 0.869425 0.194791
H19   H     H_    0.429727 0.760613 0.916111 0.112538
H20   H     H_    0.229666 0.874370 0.956947 0.247179
H21   H     H_    0.358316 0.829592 0.003315 0.223316
H22   H     H_    0.454103 0.942693 0.949819 0.265859
H23   H     H_    0.751247 0.214539 0.567725 0.163534
H24   H     H_    0.348717 0.012326 0.981012 0.273467
H25   H     H_    0.324738 0.988963 0.903750 0.268841
H26   H     H_    0.804533 0.786365 0.448413 0.160471
H27   H     H_    0.708853 0.885633 0.408441 0.111436
H28   H     H_    0.652735 0.762484 0.330017 0.218094
H29   H     H_    0.788434 0.795957 0.338449 0.183936
H30   H     H_    0.867265 0.637958 0.391653 0.249498
H31   H     H_    0.782310 0.610774 0.323105 0.244566
H32   H     H_    0.732923 0.600488 0.389957 0.303473
H33   H     H_    0.817391 0.216781 0.455293 0.151253
H34   H     H_    0.762051 0.865597 0.528577 0.152522
H35   H     H_    0.963434 0.199852 0.456822 0.134885
H36   H     H_    0.782826 0.133304 0.359996 0.238139
H37   H     H_    0.926172 0.123102 0.357489 0.225743
H38   H     H_    0.968479 0.013990 0.448401 0.264235
H39   H     H_    0.876142 0.960937 0.390424 0.262515
H40   H     H_    0.824430 0.022535 0.449930 0.270934
H41   H     H_    0.264317 0.478530 0.637306 0.201707
H42   H     H_    0.247942 0.378137 0.586437 0.131295
H43   H     H_    0.060802 0.505153 0.632152 0.244090
H44   H     H_    0.049287 0.392476 0.588967 0.214408
H45   H     H_    0.437910 0.170783 0.466285 0.167329
H46   H     H_    0.176986 0.292521 0.669644 0.260434
H47   H     H_    0.056171 0.351614 0.692253 0.273400
H48   H     H_    0.183653 0.404846 0.713391 0.274504
H49   H     H_    0.195549 0.729797 0.569577 0.196797
H50   H     H_    0.088604 0.730768 0.609232 0.126137
H51   H     H_    0.088239 0.868803 0.502169 0.228609
H52   H     H_    0.986235 0.878432 0.545940 0.226257
H53   H     H_    0.129832 0.916234 0.633459 0.278969
H54   H     H_    0.114793 0.006749 0.574041 0.263782
H55   H     H_    0.229428 0.910128 0.586654 0.265332
H56   H     H_    0.236722 0.781822 0.451893 0.180697
H57   H     H_    0.859513 0.261499 0.123828 0.185458
H58   H     H_    0.835957 0.310249 0.050777 0.112649
H59   H     H_    0.831933 0.087237 0.087315 0.244349
H60   H     H_    0.809611 0.134656 0.013327 0.222481
H61   H     H_    0.998591 0.191704 0.033685 0.268187
H62   H     H_    0.999344 0.057353 0.043985 0.274703
H63   H     H_    0.019983 0.136897 0.106669 0.269175
H64   H     H_    0.311595 0.082527 0.471718 0.127005
H65   H     H_    0.180095 0.963926 0.444728 0.138822
H66   H     H_    0.250639 0.350389 0.400280 0.172742
N1    N     N_R   0.496879 0.479304 0.148034 -0.352534
N2    N     N_R   0.497734 0.474597 0.851567 -0.355881
N3    N     N_R   0.222200 0.444670 0.469780 -0.153125
N4    N     N_R   0.776960 0.554790 0.529910 -0.103187
N5    N     N_1   0.426477 0.244746 0.350944 -0.234482
N6    N     N_1   0.903413 0.992092 0.621459 -0.210143
N7    N     N_1   0.379598 0.251092 0.792427 -0.192549
N8    N     N_1   0.610591 0.729211 0.671306 -0.209412
O1    O     O_R   0.366740 0.627150 0.485570 -0.598612
O2    O     O_R   0.410990 0.482290 0.406510 -0.619937
O3    O     O_R   0.589070 0.517660 0.425810 -0.622925
O4    O     O_2   0.639151 0.347158 0.166226 -0.484940
O5    O     O_3   0.428187 0.317961 0.205936 -0.620286
O6    O     O_3   0.285294 0.693230 0.920075 -0.598804
O7    O     O_3   0.639785 0.767064 0.442300 -0.594665
O8    O     O_3   0.870237 0.303547 0.394490 -0.632572
O9    O     O_3   0.188506 0.526962 0.555652 -0.627177
O10   O     O_3   0.056426 0.685696 0.520414 -0.636843
O11   O     O_3   0.701830 0.255969 0.080780 -0.591044
O12   O     O_2   0.355554 0.613220 0.133493 -0.576572
O13   O     O_2   0.353401 0.604689 0.833418 -0.531512
O14   O     O_2   0.639523 0.341254 0.865691 -0.558479
O15   O     O_R   0.544830 0.662520 0.504870 -0.580196
O16   O     O_R   0.410930 0.482340 0.574190 -0.604257
O17   O     O_R   0.589010 0.517710 0.593490 -0.611324
O18   O     O_R   0.455170 0.337480 0.495130 -0.630317
O19   O     O_R   0.633260 0.372850 0.514430 -0.649293
Zn1   Zn    Zn3+2 0.381090 0.476380 0.487110 0.974175
Zn2   Zn    Zn3+2 0.618910 0.523620 0.512890 0.969847

loop_
_geom_bond_atom_site_label_1
_geom_bond_atom_site_label_2
_ccdc_geom_bond_type
C16   O18   A    
C38   O10   S    
C66   C68   S    
O1    Zn1   S    
C4    O16   A    
C48   N3    A    
C27   C29   A    
C59   H18   S    
C72   O10   S    
C40   O4    S    
C69   O9    S    
C43   C44   A    
C19   C31   A    
C1    C33   S    
C7    C8    A    
C39   C41   A    
O15   Zn2   S    
C12   C23   A    
C9    N2    S    
C26   C27   A    
C37   C38   A    
C80   N8    T    
C45   C51   A    
C3    C9    A    
C37   H4    S    
C36   C37   A    
C61   H22   S    
C24   C26   A    
C49   O12   S    
C68   H38   S    
C5    C6    A    
C60   H21   S    
C64   H31   S    
C62   H27   S    
C69   H42   S    
C10   C17   A    
C48   H66   S    
C1    O15   A    
C65   H33   S    
C77   H61   S    
C5    H7    S    
C18   C58   S    
C57   H16   S    
C45   C56   A    
C8    C9    A    
C57   H15   S    
C74   H55   S    
C53   N5    T    
C41   C46   A    
C32   H23   S    
C13   C28   S    
C70   C71   S    
N4    Zn2   S    
C44   O8    S    
C29   C30   A    
C35   C43   A    
C22   H64   S    
C76   H60   S    
C11   H12   S    
C2    N2    A    
C76   H59   S    
N3    Zn1   S    
C29   H34   S    
C73   H51   S    
C3    C79   S    
C59   C60   S    
C13   C14   A    
C59   H19   S    
C71   H46   S    
C67   C78   A    
C55   H13   S    
C52   C78   A    
C35   C48   A    
C44   C46   A    
C15   O5    S    
C39   C42   A    
O18   Zn1   S    
C73   C74   S    
C78   O11   S    
C40   N1    A    
C51   C52   A    
C17   N1    S    
C76   C77   S    
C55   H14   S    
C35   H2    S    
C64   H30   S    
C62   H26   S    
C40   C52   A    
O16   Zn1   S    
C66   H36   S    
C49   N1    A    
C60   C61   S    
C20   H56   S    
C63   H28   S    
C1    O1    A    
C75   C76   S    
C77   H62   S    
C54   H11   S    
C62   C63   S    
C59   O6    S    
C58   N6    T    
C71   H48   S    
C47   N3    A    
C23   C34   A    
C19   C32   A    
C74   H54   S    
C65   O8    S    
C28   O3    A    
C50   C51   A    
C12   H1    S    
C34   C45   A    
C24   C25   A    
C61   H25   S    
O2    Zn1   S    
C47   O9    S    
C70   H44   S    
O3    Zn2   S    
C34   C81   A    
C73   H52   S    
C49   C50   A    
C55   C57   S    
C65   H35   S    
C22   C24   A    
C71   H47   S    
C4    C6    S    
C18   C32   A    
C42   C43   A    
C20   C33   A    
C60   H20   S    
C61   H24   S    
C72   H50   S    
C16   O19   A    
C25   C30   A    
C15   C17   A    
C54   C55   S    
C64   H32   S    
C4    O17   A    
C18   C27   A    
C72   C73   S    
C3    C5    A    
C75   H57   S    
C68   H40   S    
C12   C50   A    
C36   N4    A    
C72   H49   S    
C6    C7    A    
C41   N4    A    
C56   C67   A    
C67   H6    S    
C21   H65   S    
C63   H29   S    
C77   H63   S    
C54   H10   S    
C75   H58   S    
C68   H39   S    
C79   N7    T    
C11   C13   A    
C38   C39   A    
C69   H41   S    
C36   H3    S    
C16   C19   S    
C81   N2    A    
C57   H17   S    
C74   H53   S    
C28   O2    A    
C81   O13   S    
C75   O11   S    
C42   C47   A    
C62   O7    S    
C69   C70   S    
O19   Zn2   S    
C10   C11   A    
C2    O14   S    
C54   O5    S    
C63   C64   S    
C70   H43   S    
C26   C31   A    
C14   C53   S    
C20   C21   A    
C10   H9    S    
C65   C66   S    
C66   H37   S    
C30   O7    S    
C14   C15   A    
C2    C56   A    
C8    H8    S    
C31   H45   S    
C23   O6    S    
C21   C22   A    
O17   Zn2   S    
C25   C33   A    
C7    C80   S    
C46   H5    S    
