data_mof_unit_24856.cif
_audit_creation_date              2012-12-11T15:06:36-0500
_audit_creation_method            fapswitch 2.2
_symmetry_space_group_name_H-M    P1
_symmetry_Int_Tables_number       1
_space_group_crystal_system       triclinic
_cell_length_a                    7.237131
_cell_length_b                    14.950758
_cell_length_c                    22.421999
_cell_angle_alpha                 90.046612
_cell_angle_beta                  89.625958
_cell_angle_gamma                 90.432501
_cell_volume                      2425.95209091

loop_
_atom_site_label
_atom_site_type_symbol
_atom_type_description
_atom_site_fract_x
_atom_site_fract_y
_atom_site_fract_z
_atom_type_partial_charge
O1    O     O_R   0.390810 0.844810 0.447340 -0.530926
O2    O     O_R   0.109190 0.155190 0.947340 -0.538188
O3    O     O_R   0.890810 0.655190 0.552660 -0.529857
O4    O     O_R   0.609190 0.344810 0.052660 -0.534274
O5    O     O_R   0.720550 0.655820 0.440420 -0.535645
O6    O     O_R   0.779450 0.344180 0.940420 -0.540177
O7    O     O_R   0.220550 0.844180 0.559580 -0.537237
O8    O     O_R   0.279450 0.155820 0.059580 -0.542162
C1    C     C_R   0.551464 0.626449 0.426394 0.673482
C2    C     C_R   0.949251 0.373023 0.926140 0.682206
C3    C     C_R   0.051451 0.873149 0.573880 0.676410
C4    C     C_R   0.446793 0.126653 0.073721 0.682795
O9    O     O_R   0.720530 0.844130 0.440420 -0.541291
O10   O     O_R   0.779470 0.155870 0.940420 -0.532330
O11   O     O_R   0.220530 0.655870 0.559580 -0.541047
O12   O     O_R   0.279470 0.344130 0.059580 -0.535133
O13   O     O_R   0.890830 0.844810 0.552660 -0.535220
O14   O     O_R   0.609170 0.155190 0.052660 -0.529555
O15   O     O_R   0.390830 0.655190 0.447340 -0.535706
O16   O     O_R   0.109170 0.344810 0.947340 -0.532763
C5    C     C_R   0.553285 0.873659 0.426522 0.681373
C6    C     C_R   0.947655 0.126371 0.926468 0.679958
C7    C     C_R   0.051676 0.626861 0.573758 0.681995
C8    C     C_R   0.448417 0.373903 0.073337 0.671119
O17   O     O_3   0.557310 0.749980 0.536820 -0.372947
O18   O     O_3   0.942690 0.250020 0.036820 -0.373704
O19   O     O_3   0.057310 0.750020 0.463180 -0.372709
O20   O     O_3   0.442690 0.249980 0.963180 -0.374447
V1    V     V_3+5 0.832160 0.749980 0.493170 1.426589
V2    V     V_3+5 0.667840 0.250020 0.993170 1.436712
V3    V     V_3+5 0.332160 0.750020 0.506830 1.421721
V4    V     V_3+5 0.167840 0.249980 0.006830 1.427167
C9    C     C_R   0.054663 0.601318 0.865086 -0.172711
C10   C     C_R   0.449220 0.397930 0.364417 -0.161348
C11   C     C_R   0.390705 0.897168 0.140168 -0.171357
C12   C     C_R   0.943611 0.100518 0.635268 -0.160440
H1    H     H_    0.012581 0.545351 0.952084 0.112762
H2    H     H_    0.467999 0.455133 0.451690 0.112208
H3    H     H_    0.363145 0.954002 0.052975 0.119923
H4    H     H_    0.985240 0.045063 0.548149 0.120075
H5    H     H_    0.145565 0.720058 0.782428 0.119576
H6    H     H_    0.376259 0.277508 0.281197 0.125355
H7    H     H_    0.377858 0.775379 0.225674 0.126375
H8    H     H_    0.851171 0.218258 0.718165 0.118539
H9    H     H_    0.089051 0.666594 0.882994 0.104814
H10   H     H_    0.410196 0.332856 0.381924 0.116133
H11   H     H_    0.350160 0.831119 0.124849 0.110229
H12   H     H_    0.907960 0.165406 0.617459 0.111715
C13   C     C_R   0.966595 0.447247 0.883256 -0.032464
C14   C     C_R   0.536391 0.551886 0.383543 -0.033852
C15   C     C_R   0.450346 0.052795 0.117173 -0.030688
C16   C     C_R   0.035115 0.947448 0.616873 -0.037621
C17   C     C_R   0.022822 0.462831 0.591199 0.288348
C18   C     C_R   0.500696 0.537382 0.090525 0.298941
C19   C     C_R   0.596371 0.036491 0.406151 0.292325
C20   C     C_R   0.976989 0.961744 0.909542 0.305025
C21   C     C_R   0.010867 0.389585 0.629599 -0.131220
C22   C     C_R   0.546722 0.607530 0.129139 -0.134623
C23   C     C_R   0.607727 0.108194 0.366463 -0.132803
C24   C     C_R   0.983722 0.888529 0.870188 -0.135882
C25   C     C_R   0.011336 0.401104 0.691158 -0.236907
C26   C     C_R   0.551923 0.595184 0.190518 -0.242206
C27   C     C_R   0.574749 0.096507 0.305905 -0.239408
C28   C     C_R   0.983010 0.900563 0.808701 -0.234656
C29   C     C_R   0.023424 0.486676 0.716957 0.082289
C30   C     C_R   0.507157 0.511916 0.216529 0.081443
C31   C     C_R   0.523788 0.012239 0.282506 0.081815
C32   C     C_R   0.974093 0.986069 0.783237 0.081145
C33   C     C_R   0.050613 0.561443 0.678164 0.034888
C34   C     C_R   0.462194 0.439080 0.177618 0.037169
C35   C     C_R   0.510998 0.938237 0.322854 0.034962
C36   C     C_R   0.947435 0.060406 0.822232 0.034802
C37   C     C_R   0.015305 0.499925 0.780211 0.089323
C38   C     C_R   0.506730 0.498540 0.279916 0.089114
C39   C     C_R   0.485298 0.999071 0.220366 0.089136
C40   C     C_R   0.983757 0.999529 0.720009 0.089302
C41   C     C_R   0.056825 0.586027 0.803327 0.143383
C42   C     C_R   0.458308 0.412775 0.302680 0.139603
C43   C     C_R   0.432532 0.912350 0.200423 0.143211
C44   C     C_R   0.941593 0.085203 0.697015 0.137959
C45   C     C_R   0.101738 0.656246 0.764719 -0.208202
C46   C     C_R   0.415273 0.342620 0.263861 -0.213095
C47   C     C_R   0.420075 0.841269 0.240691 -0.212655
C48   C     C_R   0.895782 0.154894 0.735763 -0.209783
C49   C     C_R   0.091081 0.645454 0.703219 -0.178118
C50   C     C_R   0.418548 0.355140 0.202486 -0.179197
C51   C     C_R   0.459846 0.853622 0.300681 -0.178458
C52   C     C_R   0.906765 0.144153 0.797270 -0.175701
C53   C     C_R   0.967974 0.430979 0.821473 -0.219057
C54   C     C_R   0.547987 0.567500 0.321812 -0.214408
C55   C     C_R   0.494612 0.068838 0.177204 -0.218798
C56   C     C_R   0.033209 0.931176 0.678692 -0.212968
C57   C     C_R   0.010149 0.532528 0.904568 -0.153519
C58   C     C_R   0.484466 0.467243 0.404331 -0.180826
C59   C     C_R   0.398342 0.966923 0.099082 -0.162695
C60   C     C_R   0.989226 0.032226 0.595672 -0.172018
C61   C     C_R   0.042730 0.549800 0.615137 -0.151527
C62   C     C_R   0.463219 0.451362 0.114528 -0.152267
C63   C     C_R   0.550756 0.950243 0.384577 -0.149849
C64   C     C_R   0.956434 0.048730 0.885303 -0.152976
H13   H     H_    0.932883 0.364209 0.807076 0.094198
H14   H     H_    0.582747 0.634670 0.308227 0.094749
H15   H     H_    0.531915 0.136532 0.188743 0.096383
H16   H     H_    0.069304 0.864843 0.693150 0.094066
H17   H     H_    0.011831 0.341759 0.717908 0.126111
H18   H     H_    0.593065 0.652513 0.216378 0.128107
H19   H     H_    0.591027 0.155117 0.278542 0.128062
H20   H     H_    0.980033 0.841444 0.781592 0.126634
H21   H     H_    0.003786 0.322555 0.611458 0.128578
H22   H     H_    0.583875 0.672640 0.111491 0.130345
H23   H     H_    0.645633 0.174079 0.382665 0.133933
H24   H     H_    0.990005 0.820693 0.886415 0.122630
H25   H     H_    0.121117 0.702902 0.675392 0.108783
H26   H     H_    0.383332 0.298410 0.174659 0.111506
H27   H     H_    0.448275 0.796019 0.329709 0.112446
H28   H     H_    0.876668 0.201393 0.825138 0.108298
N1    N     N_2   0.024625 0.447056 0.528473 -0.528381
H29   H     H_    0.094980 0.493801 0.503102 0.252483
C65   C     C_3   0.846955 0.423062 0.503879 -0.531407
H30   H     H_    0.862066 0.409667 0.455372 0.203935
H31   H     H_    0.748323 0.478856 0.510402 0.192204
H32   H     H_    0.791378 0.361643 0.525573 0.197616
N2    N     N_2   0.501036 0.553541 0.027587 -0.519965
H33   H     H_    0.498870 0.498179 0.000239 0.257316
C66   C     C_3   0.378319 0.623191 0.007360 -0.566301
H34   H     H_    0.382902 0.627035 0.957902 0.203002
H35   H     H_    0.421461 0.689414 0.025009 0.197088
H36   H     H_    0.234254 0.608327 0.021816 0.192375
N3    N     N_2   0.634664 0.052531 0.467599 -0.533693
H37   H     H_    0.687780 0.999415 0.490957 0.258757
C67   C     C_3   0.489096 0.097777 0.499897 -0.546385
H38   H     H_    0.534567 0.111226 0.546285 0.202771
H39   H     H_    0.362599 0.055156 0.501404 0.195453
H40   H     H_    0.456951 0.162785 0.478508 0.200248
N4    N     N_2   0.980614 0.949036 0.973126 -0.518498
H41   H     H_    0.030038 0.001733 0.998152 0.256830
C68   C     C_3   0.024462 0.862214 0.997759 -0.575850
H42   H     H_    0.025591 0.866268 0.047230 0.202712
H43   H     H_    0.163195 0.840564 0.982192 0.189791
H44   H     H_    0.917419 0.812183 0.985192 0.209274

loop_
_geom_bond_atom_site_label_1
_geom_bond_atom_site_label_2
_ccdc_geom_bond_type
O17   V3    S    
C47   C51   A    
C18   N2    S    
C22   C26   A    
C19   C23   A    
O19   V1    S    
C9    H9    S    
O3    C7    A    
H6    C46   S    
C44   C48   A    
C67   H40   S    
O15   V3    S    
C4    C15   S    
C36   C64   A    
N2    H33   S    
C67   H39   S    
C29   C33   A    
O1    C5    A    
C68   H43   S    
C8    C62   S    
C28   C32   A    
O9    V1    S    
O10   V2    S    
N1    C65   S    
C18   C22   A    
O4    C8    A    
C17   N1    S    
N2    C66   S    
C30   C38   A    
H7    C47   S    
O1    V3    S    
C29   C37   A    
O2    V4    S    
C11   C43   A    
O3    V1    S    
C12   C60   A    
C54   H14   S    
C3    C16   S    
C15   C55   A    
C1    O15   A    
C21   H21   S    
C2    O16   A    
C19   N3    S    
O2    C6    A    
C66   H36   S    
C23   H23   S    
C16   C60   A    
O14   V2    S    
C25   H17   S    
C51   H27   S    
C39   C55   A    
C53   H13   S    
O11   C7    A    
C11   H11   S    
O12   C8    A    
H4    C60   S    
C36   C52   A    
C14   C54   A    
C28   H20   S    
O5    V1    S    
C65   H31   S    
C68   H44   S    
C27   C31   A    
C6    C64   S    
C26   C30   A    
H1    C57   S    
O8    V4    S    
C10   C58   A    
N4    H41   S    
O7    V3    S    
C12   C44   A    
C13   C53   A    
C17   C21   A    
O18   V4    S    
C14   C58   A    
C17   C61   A    
C46   C50   A    
C35   C63   A    
C20   C24   A    
C32   C36   A    
C48   C52   A    
C52   H28   S    
O7    C3    A    
O5    C1    A    
C24   H24   S    
C42   C46   A    
C41   C45   A    
O8    C4    A    
H5    C45   S    
H2    C58   S    
C4    O14   A    
O9    C5    A    
O11   V3    S    
H3    C59   S    
C40   C56   A    
C10   H10   S    
C7    C61   S    
C66   H34   S    
C35   C51   A    
C16   C56   A    
C32   C40   A    
C20   C64   A    
C27   H19   S    
C67   H38   S    
C34   C50   A    
C20   N4    S    
C33   C49   A    
N3    H37   S    
O16   V4    S    
C65   H32   S    
N4    C68   S    
C3    O13   A    
O6    V2    S    
C22   H22   S    
C1    C14   S    
C40   C44   A    
C55   H15   S    
H8    C48   S    
C9    C57   A    
O6    C2    A    
C65   H30   S    
C21   C25   A    
C26   H18   S    
C11   C59   A    
O12   V4    S    
C68   H42   S    
C23   C27   A    
C50   H26   S    
C24   C28   A    
O10   C6    A    
C49   H25   S    
C37   C53   A    
O13   V1    S    
C10   C42   A    
C43   C47   A    
C9    C41   A    
C30   C34   A    
C5    C63   S    
C38   C54   A    
O20   V2    S    
C12   H12   S    
C31   C35   A    
O4    V2    S    
C56   H16   S    
C25   C29   A    
C31   C39   A    
C38   C42   A    
C19   C63   A    
C66   H35   S    
C37   C41   A    
C18   C62   A    
C13   C57   A    
N1    H29   S    
C2    C13   S    
C39   C43   A    
C45   C49   A    
C34   C62   A    
C15   C59   A    
N3    C67   S    
C33   C61   A    
