data_mof_unit_44070.cif
_audit_creation_date              2013-03-05T15:40:54-0500
_audit_creation_method            fapswitch 2.2
_symmetry_space_group_name_H-M    P1
_symmetry_Int_Tables_number       1
_space_group_crystal_system       triclinic
_cell_length_a                    17.377639
_cell_length_b                    24.366451
_cell_length_c                    14.905964
_cell_angle_alpha                 90.409656
_cell_angle_beta                  125.198514
_cell_angle_gamma                 89.541965
_cell_volume                      5157.43968469

loop_
_atom_site_label
_atom_site_type_symbol
_atom_site_description
_atom_site_fract_x
_atom_site_fract_y
_atom_site_fract_z
_atom_type_partial_charge
C1    C     C_R   0.807831 0.623851 0.907219 -0.092468
C2    C     C_R   0.176271 0.640133 0.093424 -0.082765
C3    C     C_R   0.308079 0.124199 0.907351 -0.104797
C4    C     C_R   0.659078 0.149283 0.094611 -0.097835
H1    H     H_    0.748272 0.628891 0.823069 0.114062
H2    H     H_    0.225855 0.653894 0.176740 0.124899
H3    H     H_    0.248687 0.129715 0.823307 0.113231
H4    H     H_    0.700038 0.163739 0.178635 0.144382
N1    N     N_R   0.892320 0.603520 0.941090 -0.049424
N2    N     N_R   0.107680 0.603520 0.058910 -0.044652
N3    N     N_R   0.392320 0.103520 0.941090 -0.052455
N4    N     N_R   0.607680 0.103520 0.058910 -0.048655
C5    C     C_R   0.905618 0.377872 0.094786 -0.125563
C6    C     C_R   0.062850 0.352788 0.906233 -0.079111
C7    C     C_R   0.445870 0.850383 0.093028 -0.124002
C8    C     C_R   0.561908 0.852433 0.906253 -0.087583
H5    H     H_    0.931537 0.373237 0.179851 0.116978
H6    H     H_    0.019900 0.337792 0.822641 0.106175
H7    H     H_    0.492211 0.835790 0.176544 0.115490
H8    H     H_    0.518502 0.837425 0.822684 0.104933
N5    N     N_R   0.953790 0.399020 0.058440 -0.049099
N6    N     N_R   0.046210 0.399020 0.941560 -0.046885
N7    N     N_R   0.453790 0.899020 0.058440 -0.048085
N8    N     N_R   0.546210 0.899020 0.941560 -0.046365
C9    C     C_R   0.054992 0.547272 0.305349 0.297058
C10   C     C_R   0.987788 0.545018 0.718975 0.302951
C11   C     C_R   0.555006 0.046728 0.305763 0.300087
C12   C     C_R   0.497345 0.045431 0.727825 0.331531
N9    N     N_R   0.026760 0.529450 0.205590 -0.101331
N10   N     N_R   0.973240 0.529450 0.794410 -0.095281
N11   N     N_R   0.526760 0.029450 0.205590 -0.101363
N12   N     N_R   0.473240 0.029450 0.794410 -0.099159
C13   C     C_R   0.742520 0.455394 0.700374 -0.126095
C14   C     C_R   0.268064 0.454061 0.258349 -0.034123
C15   C     C_R   0.239164 0.954809 0.705354 -0.089020
C16   C     C_R   0.767954 0.954420 0.254126 -0.030203
N13   N     N_R   0.819350 0.473090 0.793940 -0.056723
N14   N     N_R   0.180650 0.473090 0.206060 -0.053864
N15   N     N_R   0.319350 0.973090 0.793940 -0.055383
N16   N     N_R   0.680650 0.973090 0.206060 -0.052947
C17   C     C_R   0.053919 0.456487 0.305924 -0.144193
C18   C     C_R   0.995446 0.453646 0.728397 -0.075714
C19   C     C_R   0.551785 0.955850 0.304483 -0.112572
C20   C     C_R   0.501803 0.953955 0.734203 -0.080838
H9    H     H_    0.069924 0.414291 0.331688 0.171779
H10   H     H_    0.999303 0.410857 0.711943 0.133983
H11   H     H_    0.565574 0.913341 0.328340 0.169205
H12   H     H_    0.505996 0.911259 0.717485 0.137973
N17   N     N_R   0.027860 0.473090 0.206590 -0.079790
N18   N     N_R   0.972140 0.473090 0.793410 -0.077589
N19   N     N_R   0.527860 0.973090 0.206590 -0.080008
N20   N     N_R   0.472140 0.973090 0.793410 -0.078719
C21   C     C_R   0.741417 0.546773 0.699328 -0.100010
C22   C     C_R   0.270688 0.545963 0.262861 -0.046416
C23   C     C_R   0.238777 0.046496 0.701813 -0.104676
C24   C     C_R   0.769774 0.046374 0.254709 -0.038635
N21   N     N_R   0.818250 0.529450 0.792940 -0.052975
N22   N     N_R   0.181750 0.529450 0.207060 -0.042075
N23   N     N_R   0.318250 0.029450 0.792940 -0.051983
N24   N     N_R   0.681750 0.029450 0.207060 -0.039733
C25   C     C_R   0.813160 0.377546 0.911193 -0.099584
C26   C     C_R   0.153947 0.352610 0.089153 -0.114862
C27   C     C_R   0.353389 0.850669 0.910127 -0.106038
C28   C     C_R   0.653056 0.852251 0.089066 -0.121368
H13   H     H_    0.754260 0.372695 0.826753 0.097403
H14   H     H_    0.195324 0.338431 0.173095 0.101718
H15   H     H_    0.315275 0.836923 0.825835 0.099094
H16   H     H_    0.694151 0.838061 0.173007 0.101640
N25   N     N_R   0.896320 0.399020 0.944720 -0.052196
N26   N     N_R   0.103680 0.399020 0.055280 -0.050565
N27   N     N_R   0.396320 0.899020 0.944720 -0.051576
N28   N     N_R   0.603680 0.899020 0.055280 -0.050307
C29   C     C_R   0.899964 0.623402 0.090704 -0.057958
C30   C     C_R   0.086977 0.637764 0.910107 -0.079468
C31   C     C_R   0.400166 0.123502 0.090840 -0.059389
C32   C     C_R   0.566120 0.150344 0.912017 -0.076037
H17   H     H_    0.925039 0.626830 0.175538 0.131839
H18   H     H_    0.056805 0.649282 0.826751 0.165232
H19   H     H_    0.425357 0.126887 0.175728 0.131935
H20   H     H_    0.523213 0.166150 0.829830 0.167073
N29   N     N_R   0.949790 0.603520 0.054810 -0.043363
N30   N     N_R   0.050210 0.603520 0.945190 -0.056121
N31   N     N_R   0.449790 0.103520 0.054810 -0.043681
N32   N     N_R   0.550210 0.103520 0.945190 -0.062591
C33   C     C_R   0.810134 0.635493 0.999526 0.078687
C34   C     C_R   0.167706 0.659204 0.001482 0.089241
C35   C     C_R   0.310445 0.135758 0.999704 0.084984
C36   C     C_R   0.634572 0.179218 0.003957 0.088119
C37   C     C_R   0.816471 0.365164 0.003997 0.121903
C38   C     C_R   0.129841 0.323034 0.997194 0.135733
C39   C     C_R   0.385499 0.818925 0.001702 0.130522
C40   C     C_R   0.628303 0.822445 0.997091 0.140669
C41   C     C_R   0.074951 0.502334 0.371689 0.035469
C42   C     C_R   0.009320 0.498188 0.683503 0.107915
C43   C     C_R   0.574017 0.001378 0.371295 0.026388
C44   C     C_R   0.521180 0.998747 0.694715 0.100481
C45   C     C_R   0.693048 0.500961 0.641810 0.120012
C46   C     C_R   0.324848 0.499237 0.292070 0.064880
C47   C     C_R   0.188062 0.000419 0.647810 0.112362
C48   C     C_R   0.824491 0.999715 0.283701 0.060136
Ni1   Ni    Ni4+2 0.934100 0.565890 0.869590 0.290849
Ni2   Ni    Ni4+2 0.065900 0.565890 0.130410 0.319426
Ni3   Ni    Ni4+2 0.434100 0.065890 0.869590 0.276221
Ni4   Ni    Ni4+2 0.565900 0.065890 0.130410 0.313502
Ni5   Ni    Ni4+2 0.068420 0.436630 0.132700 0.237918
Ni6   Ni    Ni4+2 0.931580 0.436630 0.867300 0.230808
Ni7   Ni    Ni4+2 0.568420 0.936630 0.132700 0.237170
Ni8   Ni    Ni4+2 0.431580 0.936630 0.867300 0.228340
C49   C     C_3   0.523333 0.467258 0.538689 -0.252775
C50   C     C_3   0.488055 0.446786 0.422098 -0.258478
C51   C     C_3   0.017129 0.964860 0.533324 -0.249382
C52   C     C_3   0.987882 0.947607 0.417089 -0.260443
C53   C     C_3   0.460237 0.517856 0.489371 0.431259
C54   C     C_3   0.565210 0.480707 0.428131 0.449564
C55   C     C_3   0.953609 0.015390 0.484676 0.431592
C56   C     C_3   0.067138 0.983453 0.432345 0.448958
H21   H     H_    0.533600 0.442056 0.606633 0.171236
H22   H     H_    0.467845 0.404237 0.390032 0.169605
H23   H     H_    0.024050 0.937621 0.597034 0.179196
H24   H     H_    0.969721 0.905709 0.381069 0.171646
C57   C     C_3   0.424411 0.498076 0.374394 -0.035255
C58   C     C_3   0.599942 0.500660 0.542369 -0.035338
C59   C     C_3   0.923670 0.998757 0.369874 -0.035487
C60   C     C_3   0.095875 0.000194 0.546210 -0.039130
C61   C     C_3   0.500543 0.531574 0.377272 -0.253180
C62   C     C_3   0.536193 0.551860 0.494399 -0.285968
C63   C     C_3   0.002174 0.034259 0.382290 -0.251042
C64   C     C_3   0.031720 0.051281 0.498922 -0.283956
H25   H     H_    0.489071 0.556750 0.308727 0.181444
H26   H     H_    0.555892 0.594572 0.525619 0.179025
H27   H     H_    0.994403 0.061512 0.318152 0.182693
H28   H     H_    0.049524 0.093315 0.534311 0.178030
C65   C     C_2   0.245582 0.693049 0.921296 -0.077507
C66   C     C_2   0.746534 0.683501 0.087135 -0.069933
C67   C     C_2   0.620489 0.269455 0.924577 -0.063954
C68   C     C_2   0.247231 0.183914 0.087407 -0.071476
C69   C     C_2   0.232184 0.695665 0.001325 -0.183017
C70   C     C_2   0.732522 0.660206 0.997306 -0.163735
C71   C     C_2   0.668523 0.233985 0.008181 -0.169878
C72   C     C_2   0.232981 0.160545 0.997559 -0.163334
H29   H     H_    0.206699 0.664140 0.853725 0.157091
H30   H     H_    0.808096 0.673444 0.168281 0.146141
H31   H     H_    0.551707 0.258860 0.851913 0.148610
H32   H     H_    0.308699 0.173780 0.168570 0.145624
H33   H     H_    0.268157 0.725194 0.068045 0.149912
H34   H     H_    0.667866 0.667671 0.916943 0.149584
H35   H     H_    0.738300 0.243133 0.080372 0.139432
H36   H     H_    0.168360 0.168161 0.917225 0.149106
C73   C     C_2   0.666543 0.318048 0.918540 -0.075409
C74   C     C_2   0.194801 0.233182 0.079578 -0.100551
C75   C     C_2   0.300565 0.735143 0.913650 -0.076331
C76   C     C_2   0.693682 0.732576 0.079493 -0.104919
C77   C     C_2   0.743508 0.339439 0.008561 -0.173371
C78   C     C_2   0.159358 0.267627 0.994244 -0.171465
C79   C     C_2   0.368824 0.761058 0.004272 -0.199294
C80   C     C_2   0.657172 0.766876 0.993806 -0.171304
H37   H     H_    0.645164 0.329842 0.837173 0.132351
H38   H     H_    0.198606 0.245199 0.152255 0.139377
H39   H     H_    0.272175 0.750982 0.832351 0.140729
H40   H     H_    0.698322 0.744731 0.152622 0.138256
C81   C     C_2   0.135912 0.461021 0.553359 0.266978
C82   C     C_2   0.119244 0.467528 0.639477 0.254171
C83   C     C_2   0.637305 0.959041 0.553322 0.266609
C84   C     C_2   0.625364 0.965801 0.643349 0.257350
C85   C     C_2   0.118693 0.504887 0.490090 -0.220641
C86   C     C_2   0.039545 0.494337 0.611463 -0.326189
C87   C     C_2   0.620115 0.003147 0.490366 -0.216012
C88   C     C_2   0.549789 0.995310 0.621124 -0.310233
H41   H     H_    0.115625 0.544596 0.521144 0.190145
H42   H     H_    0.991598 0.511470 0.529888 0.177062
H43   H     H_    0.621066 0.042997 0.523712 0.193689
H44   H     H_    0.502449 0.014913 0.541924 0.171366
H45   H     H_    0.760944 0.330664 0.089618 0.147592
H46   H     H_    0.157018 0.257027 0.921944 0.150669
H47   H     H_    0.400692 0.742683 0.084653 0.146216
H48   H     H_    0.653883 0.756159 0.920964 0.152307
N33   N     N_R   0.161661 0.408378 0.533965 0.254460
O1    O     O_R   0.225733 0.404932 0.514763 -0.334214
O2    O     O_R   0.130851 0.363671 0.550113 -0.366268
N34   N     N_R   0.187637 0.446806 0.748872 0.259393
O3    O     O_R   0.250217 0.410841 0.765216 -0.308825
O4    O     O_R   0.198906 0.470625 0.834117 -0.390488
N35   N     N_R   0.657697 0.905810 0.529653 0.254272
O5    O     O_R   0.721150 0.900528 0.509775 -0.329736
O6    O     O_R   0.622896 0.862049 0.542935 -0.363562
N36   N     N_R   0.692860 0.941618 0.749714 0.260096
O7    O     O_R   0.751435 0.904171 0.760437 -0.302542
O8    O     O_R   0.707362 0.963208 0.838367 -0.380668
N37   N     N_R   0.090853 0.601559 0.344109 0.236175
O9    O     O_R   0.080807 0.625715 0.414855 -0.372701
O10   O     O_R   0.121446 0.629935 0.297170 -0.398601
N38   N     N_R   0.956388 0.596164 0.661565 0.218528
O11   O     O_R   0.983484 0.611551 0.600520 -0.376999
O12   O     O_R   0.894573 0.625649 0.663462 -0.406662
N39   N     N_R   0.590895 0.100881 0.345605 0.237613
O13   O     O_R   0.580424 0.124527 0.416432 -0.366573
O14   O     O_R   0.621520 0.129735 0.299262 -0.403587
N40   N     N_R   0.475894 0.098047 0.676717 0.218591
O15   O     O_R   0.521637 0.115845 0.637970 -0.365587
O16   O     O_R   0.401232 0.124412 0.653902 -0.413409
H49   H     H_    0.728033 0.413262 0.672233 0.138164
H50   H     H_    0.289190 0.411537 0.276371 0.104783
H51   H     H_    0.223337 0.912362 0.679577 0.129457
H52   H     H_    0.789692 0.912005 0.272975 0.106357
H53   H     H_    0.726982 0.588685 0.670440 0.134539
H54   H     H_    0.295746 0.587217 0.289459 0.124734
H55   H     H_    0.223782 0.088096 0.671181 0.128990
H56   H     H_    0.793606 0.088339 0.274497 0.118233
N41   N     N_R   0.400528 0.537665 0.522290 0.237165
O17   O     O_R   0.338786 0.505255 0.516675 -0.345906
O18   O     O_R   0.409242 0.587596 0.558266 -0.373427
N42   N     N_R   0.626868 0.460176 0.398777 0.240679
O19   O     O_R   0.678831 0.416940 0.447207 -0.392351
O20   O     O_R   0.629928 0.484764 0.323765 -0.363653
N43   N     N_R   0.889345 0.032552 0.512769 0.238732
O21   O     O_R   0.826678 0.998595 0.500788 -0.350421
O22   O     O_R   0.895020 0.081605 0.551021 -0.366602
N44   N     N_R   0.133427 0.965618 0.408012 0.241561
O23   O     O_R   0.185121 0.922149 0.455203 -0.391212
O24   O     O_R   0.141064 0.992928 0.338897 -0.360281

loop_
_geom_bond_atom_site_label_1
_geom_bond_atom_site_label_2
_geom_bond_distance
_ccdc_geom_bond_type
C10   C42   1.390794 A    
C46   C57   1.432565 S    
C76   H40   1.084835 S    
C65   C69   1.341713 D    
N16   N24   1.373434 A    
C23   N23   1.327099 A    
C7    C39   1.375808 A    
C6    H6    1.081143 S    
C11   C43   1.386342 A    
C83   C84   1.479294 S    
C65   C75   1.456300 S    
C18   C42   1.372737 A    
C35   C72   1.454492 S    
C4    H4    1.081359 S    
C19   N19   1.336094 A    
C72   H36   1.085834 S    
C81   C82   1.477115 S    
C49   H21   1.110625 S    
N9    N17   1.373341 A    
C7    H7    1.082001 S    
N4    N32   1.385343 A    
C81   C85   1.343645 D    
C1    H1    1.078518 S    
C28   H16   1.080393 S    
C69   H33   1.085280 S    
C24   C48   1.378221 A    
C70   H34   1.085675 S    
N4    Ni4   1.849430 S    
C84   N36   1.447481 S    
N35   O6    1.301266 A    
C50   C57   1.540996 S    
C15   N15   1.328182 A    
C49   C58   1.539555 S    
C86   H42   1.086630 S    
C62   H26   1.109958 S    
C25   N25   1.337047 A    
C77   H45   1.085331 S    
C66   C76   1.466358 S    
C75   H39   1.084110 S    
C26   N26   1.334424 A    
C51   H23   1.110369 S    
C27   C39   1.379499 A    
C18   H10   1.079746 S    
C54   N42   1.455522 S    
N37   O10   1.300712 A    
C73   C77   1.339134 D    
N12   N20   1.373434 A    
C16   N16   1.327602 A    
C34   C69   1.436551 S    
C14   C46   1.369578 A    
C82   C86   1.357199 D    
C59   C63   1.539215 S    
C17   N17   1.339314 A    
C6    C38   1.378455 A    
C76   C80   1.343502 D    
N34   O4    1.301611 A    
C22   H54   1.076810 S    
C56   C63   1.543873 S    
C19   C43   1.385371 A    
C44   C88   1.443666 S    
N40   O15   1.300728 A    
N8    Ni8   1.864544 S    
N38   O11   1.300730 A    
C75   C79   1.335309 D    
C38   C78   1.449760 S    
C56   C60   1.520769 S    
C50   C54   1.538361 S    
C82   N34   1.447226 S    
C68   C72   1.337245 D    
C60   C64   1.540689 S    
C20   N20   1.332923 A    
C7    N7    1.335065 A    
N10   N18   1.373434 A    
C41   C85   1.465983 S    
C8    N8    1.338650 A    
N14   N22   1.373434 A    
N27   Ni8   1.840191 S    
C9    N9    1.339263 A    
C32   N32   1.339185 A    
C2    H2    1.078085 S    
C30   N30   1.333368 A    
N19   Ni7   1.835778 S    
C15   C47   1.370829 A    
N7    Ni7   1.872402 S    
C64   H28   1.110047 S    
C29   N29   1.339532 A    
C25   C37   1.386331 A    
C63   H27   1.109960 S    
N29   Ni2   1.883016 S    
C85   H41   1.083749 S    
N15   Ni8   1.821061 S    
C27   H15   1.080605 S    
C55   C59   1.526547 S    
N31   Ni4   1.883016 S    
C26   H14   1.080277 S    
C83   N35   1.436191 S    
N7    N27   1.385341 A    
C12   N12   1.341497 A    
C1    N1    1.339169 A    
C68   C74   1.465216 S    
C52   C59   1.542347 S    
C16   C48   1.374323 A    
C52   H24   1.109975 S    
C54   C61   1.543643 S    
C21   N21   1.326485 A    
C87   H43   1.083543 S    
C53   C62   1.528677 S    
C21   C45   1.363160 A    
N6    Ni6   1.864544 S    
N13   N21   1.373341 A    
C3    C35   1.380397 A    
N2    N30   1.385343 A    
C12   N40   1.428968 S    
C55   C64   1.528536 S    
C24   N24   1.329577 A    
N5    N25   1.385341 A    
N38   O12   1.301252 A    
C58   C62   1.540250 S    
C83   C87   1.345723 D    
N35   O5    1.301558 A    
C36   C71   1.449648 S    
C57   C61   1.539408 S    
C45   C58   1.431867 S    
C20   C44   1.376447 A    
C25   H13   1.077245 S    
C66   H30   1.084381 S    
C51   C55   1.525935 S    
C21   H53   1.081175 S    
C24   H56   1.079684 S    
N28   Ni7   1.827047 S    
N2    Ni2   1.849430 S    
C9    C41   1.382440 A    
C8    H8    1.081250 S    
N15   N23   1.373341 A    
N41   O17   1.300352 A    
N12   Ni3   1.833476 S    
C55   N43   1.458260 S    
C40   C80   1.450482 S    
C17   H9    1.076991 S    
C30   C34   1.376559 A    
C50   H22   1.109925 S    
C37   C77   1.455303 S    
C29   C33   1.386826 A    
C18   N18   1.330581 A    
N16   Ni7   1.828629 S    
N22   Ni2   1.865749 S    
C71   H35   1.083794 S    
C84   C88   1.355822 D    
C31   C35   1.386425 A    
C27   N27   1.331301 A    
C10   N10   1.344440 A    
C11   N11   1.340579 A    
C30   H18   1.071957 S    
C61   C62   1.556254 S    
C1    C33   1.380715 A    
C4    N4    1.335607 A    
C39   C79   1.446959 S    
C28   C40   1.379489 A    
N36   O8    1.301846 A    
C63   C64   1.556320 S    
C2    N2    1.335970 A    
C52   C56   1.538450 S    
C23   H55   1.081247 S    
N34   O3    1.300901 A    
N8    N28   1.385341 A    
C22   N22   1.328753 A    
C88   H44   1.086643 S    
C79   H47   1.086970 S    
C32   C36   1.381431 A    
C80   H48   1.083986 S    
C10   N38   1.431506 S    
C74   H38   1.084835 S    
C51   C52   1.553971 S    
C5    C37   1.382759 A    
C51   C60   1.537590 S    
C14   N14   1.326261 A    
C65   H29   1.086339 S    
C15   H51   1.081693 S    
C22   C46   1.374472 A    
C32   H20   1.074339 S    
N11   N19   1.373341 A    
C19   H11   1.076949 S    
N26   Ni5   1.827047 S    
C43   C87   1.467684 S    
C66   C70   1.337846 D    
N17   Ni5   1.835778 S    
N25   Ni6   1.840191 S    
C8    C40   1.377761 A    
C4    C36   1.372987 A    
C49   C53   1.524720 S    
C53   C57   1.523185 S    
N21   Ni1   1.873275 S    
C67   C71   1.342167 D    
C3    H3    1.078100 S    
C5    H5    1.079926 S    
N44   O24   1.300243 A    
C12   C44   1.388961 A    
C48   C59   1.438247 S    
C17   C41   1.385777 A    
N11   Ni4   1.846455 S    
C6    N6    1.338576 A    
N14   Ni5   1.828629 S    
N40   O16   1.301101 A    
N23   Ni3   1.873275 S    
N13   Ni6   1.821061 S    
C68   H32   1.084390 S    
C9    N37   1.434947 S    
C49   C50   1.552171 S    
C5    N5    1.339226 A    
C31   N31   1.338873 A    
N44   O23   1.300247 A    
C31   H19   1.077050 S    
C14   H50   1.079261 S    
C26   C38   1.379318 A    
N10   Ni1   1.833476 S    
C13   H49   1.081428 S    
C67   H31   1.084866 S    
N41   O18   1.300280 A    
N30   Ni1   1.890862 S    
N33   O2    1.301133 A    
N9    Ni2   1.846455 S    
C2    C34   1.374482 A    
C13   C45   1.366506 A    
C28   N28   1.335260 A    
N43   O21   1.300186 A    
N37   O9    1.300250 A    
C81   N33   1.436574 S    
C13   N13   1.329510 A    
C42   C86   1.444227 S    
N43   O22   1.300293 A    
C3    N3    1.339013 A    
N42   O20   1.300246 A    
C53   N41   1.458055 S    
N39   O13   1.300292 A    
C54   C58   1.519316 S    
C61   H25   1.110041 S    
N3    N31   1.385341 A    
C78   H46   1.084197 S    
C11   N39   1.434474 S    
N42   O19   1.300215 A    
N20   Ni8   1.848809 S    
N1    Ni1   1.836071 S    
N33   O1    1.301623 A    
C74   C78   1.343718 D    
C23   C47   1.367579 A    
N18   Ni6   1.848809 S    
N32   Ni3   1.890862 S    
C29   H17   1.076911 S    
C67   C73   1.466361 S    
N3    Ni3   1.836071 S    
C16   H52   1.079514 S    
C73   H37   1.084191 S    
N36   O7    1.301497 A    
N24   Ni4   1.865749 S    
C56   N44   1.455620 S    
C33   C70   1.455540 S    
N6    N26   1.385341 A    
N5    Ni5   1.872402 S    
C20   H12   1.079704 S    
N1    N29   1.385341 A    
C47   C60   1.436336 S    
N39   O14   1.300570 A    
