data_mof_unit_56727.cif
_audit_creation_date              2012-12-10T18:20:37-0500
_audit_creation_method            fapswitch 2.2
_symmetry_space_group_name_H-M    P1
_symmetry_Int_Tables_number       1
_space_group_crystal_system       triclinic
_cell_length_a                    14.148688
_cell_length_b                    13.664136
_cell_length_c                    14.968998
_cell_angle_alpha                 89.028092
_cell_angle_beta                  90.307904
_cell_angle_gamma                 83.236543
_cell_volume                      2873.31819906

loop_
_atom_site_label
_atom_site_type_symbol
_atom_type_description
_atom_site_fract_x
_atom_site_fract_y
_atom_site_fract_z
_atom_type_partial_charge
C1    C     C_R   0.499875 0.497903 0.326917 0.891918
C2    C     C_R   0.500111 0.504515 0.672647 0.924781
C3    C     C_R   0.519183 0.492467 0.952637 -0.026607
C4    C     C_R   0.517243 0.489864 0.046276 -0.015819
C5    C     C_R   0.483478 0.415884 0.904812 0.076718
C6    C     C_R   0.552485 0.566475 0.094356 0.071969
C7    C     C_R   0.598441 0.642896 0.955803 0.105522
C8    C     C_R   0.455531 0.329344 0.043226 0.100263
C9    C     C_R   0.593478 0.642618 0.049332 -0.044395
C10   C     C_R   0.457942 0.331433 0.949841 -0.038177
C11   C     C_R   0.805753 0.438419 0.557450 0.026577
C12   C     C_R   0.194363 0.562687 0.443359 0.031933
C13   C     C_R   0.791154 0.562744 0.443841 0.070645
C14   C     C_R   0.208393 0.439095 0.557946 0.071911
C15   C     C_R   0.890189 0.574350 0.451042 -0.008131
C16   C     C_R   0.107177 0.448288 0.568572 -0.006878
C17   C     C_R   0.948334 0.510503 0.509153 -0.010555
C18   C     C_R   0.049333 0.510580 0.508947 -0.011621
C19   C     C_R   0.905521 0.446002 0.567021 0.006368
C20   C     C_R   0.092487 0.572832 0.449117 0.002222
C21   C     C_R   0.932353 0.649920 0.404436 -0.053046
C22   C     C_R   0.061949 0.400449 0.639149 -0.039316
C23   C     C_R   0.516934 0.314734 0.501928 0.871780
C24   C     C_R   0.483104 0.685269 0.499186 0.882523
C25   C     C_R   0.032784 0.647742 0.401728 0.157192
C26   C     C_R   0.962210 0.396602 0.636703 0.158989
C27   C     C_1   0.470503 0.788307 0.495702 -0.105589
C28   C     C_1   0.529629 0.211652 0.505320 -0.062214
C29   C     C_2   0.460236 0.979377 0.489538 -0.027683
C30   C     C_2   0.540349 0.020494 0.510101 -0.037707
C31   C     C_1   0.537359 0.124297 0.507938 -0.010406
C32   C     C_1   0.462952 0.875635 0.492542 -0.038459
C33   C     C_R   0.473813 0.425521 0.812763 -0.229052
C34   C     C_R   0.546080 0.565093 0.186863 -0.217380
C35   C     C_R   0.503647 0.505370 0.768089 -0.121645
C36   C     C_R   0.501007 0.494014 0.231014 -0.100245
C37   C     C_R   0.543984 0.579959 0.812616 0.158645
C38   C     C_R   0.460987 0.420295 0.184645 0.174023
C39   C     C_R   0.554391 0.572758 0.906625 0.026243
C40   C     C_R   0.476643 0.412592 0.091815 0.017813
H1    H     H_    0.442142 0.371515 0.774049 0.186545
H2    H     H_    0.572104 0.622052 0.226259 0.185021
N1    N     N_R   0.750030 0.500040 0.500070 -0.192171
N2    N     N_R   0.249970 0.499960 0.499930 -0.190887
O1    O     O_R   0.580280 0.500020 0.367860 -0.633080
O2    O     O_R   0.419720 0.499980 0.632140 -0.641545
O3    O     O_R   0.419730 0.500030 0.367840 -0.601709
O4    O     O_R   0.580270 0.499970 0.632160 -0.652390
O5    O     O_R   0.591830 0.359650 0.500030 -0.623034
O6    O     O_R   0.408170 0.640350 0.499970 -0.652654
O7    O     O_R   0.431280 0.359660 0.500010 -0.622391
O8    O     O_R   0.568720 0.640340 0.499990 -0.628382
Zn1   Zn    Zn3+2 0.607200 0.499990 0.500020 0.939560
Zn2   Zn    Zn3+2 0.392800 0.500010 0.499980 0.945571
C41   C     C_2   0.634208 0.965621 0.536727 0.456749
H3    H     H_    0.693642 0.006850 0.550443 0.090420
O9    O     O_2   0.647193 0.875951 0.544149 -0.541942
C42   C     C_2   0.366477 0.034168 0.462585 0.430166
H4    H     H_    0.306556 0.993074 0.450616 0.060406
O10   O     O_2   0.354197 0.123584 0.452646 -0.541116
N3    N     N_2   0.557184 0.668211 0.763864 -0.319495
H5    H     H_    0.528969 0.733634 0.791774 0.234056
C43   C     C_3   0.646119 0.671293 0.716709 -0.612366
H6    H     H_    0.683825 0.732279 0.741494 0.240435
H7    H     H_    0.631076 0.686839 0.645117 0.276455
H8    H     H_    0.693639 0.600849 0.724124 0.222043
N4    N     N_2   0.392409 0.367451 0.227927 -0.292741
H9    H     H_    0.330661 0.359392 0.193414 0.235040
C44   C     C_3   0.424118 0.291919 0.293953 -0.655150
H10   H     H_    0.415278 0.217885 0.268442 0.231236
H11   H     H_    0.378611 0.303043 0.353639 0.291362
H12   H     H_    0.499928 0.293644 0.312804 0.204857
N5    N     N_2   0.656712 0.706933 0.912073 -0.311902
H13   H     H_    0.643269 0.780029 0.928993 0.215394
C45   C     C_3   0.757167 0.670833 0.912825 -0.715980
H14   H     H_    0.796581 0.721117 0.872217 0.232527
H15   H     H_    0.768782 0.596180 0.883665 0.245706
H16   H     H_    0.786058 0.667598 0.982079 0.267413
N6    N     N_2   0.446463 0.237211 0.086169 -0.327261
H17   H     H_    0.383504 0.226796 0.116882 0.223560
C46   C     C_3   0.533743 0.180849 0.117194 -0.722102
H18   H     H_    0.517999 0.108986 0.145551 0.229145
H19   H     H_    0.568326 0.221438 0.169364 0.249611
H20   H     H_    0.583561 0.166533 0.060533 0.256137
C47   C     C_2   0.631059 0.724096 0.097735 0.370650
H21   H     H_    0.605220 0.800026 0.080547 0.051904
O11   O     O_2   0.694303 0.707208 0.153463 -0.523523
C48   C     C_2   0.436674 0.241713 0.901881 0.420968
H22   H     H_    0.381241 0.199859 0.926359 0.084041
O12   O     O_2   0.484353 0.210547 0.838441 -0.576151
C49   C     C_2   0.763330 0.355320 0.599048 0.532062
H23   H     H_    0.702606 0.367644 0.642370 0.091129
O13   O     O_2   0.796995 0.270656 0.584705 -0.573980
C50   C     C_2   0.241811 0.609869 0.369564 0.546235
H24   H     H_    0.292465 0.661187 0.382701 0.067828
O14   O     O_2   0.223962 0.591277 0.292209 -0.571526
C51   C     C_2   0.735994 0.602931 0.365258 0.543865
H25   H     H_    0.670530 0.651482 0.372329 0.105274
O15   O     O_2   0.764389 0.581044 0.290558 -0.545992
C52   C     C_2   0.268469 0.353984 0.598570 0.537925
H26   H     H_    0.330947 0.363733 0.637409 0.100042
O16   O     O_2   0.247726 0.270558 0.588757 -0.561346
C53   C     C_2   0.873272 0.739713 0.369218 0.419435
H27   H     H_    0.886276 0.769625 0.303501 0.091439
O17   O     O_2   0.810969 0.782710 0.415065 -0.551769
C54   C     C_2   0.114559 0.367557 0.722805 0.402273
H28   H     H_    0.104618 0.297959 0.755079 0.079913
O18   O     O_2   0.167702 0.420084 0.757888 -0.591298
N7    N     N_2   0.073355 0.727460 0.359793 -0.306160
H29   H     H_    0.044701 0.750833 0.298604 0.234678
C55   C     C_3   0.089299 0.807007 0.418555 -0.794499
H30   H     H_    0.127672 0.861387 0.381884 0.243808
H31   H     H_    0.133579 0.778428 0.476980 0.240997
H32   H     H_    0.020378 0.844720 0.442253 0.264515
N8    N     N_2   0.917282 0.353010 0.710031 -0.298548
H33   H     H_    0.950884 0.286637 0.733805 0.235570
C56   C     C_3   0.883834 0.420697 0.779443 -0.809334
H34   H     H_    0.842485 0.382321 0.829056 0.253411
H35   H     H_    0.836596 0.484161 0.750640 0.231448
H36   H     H_    0.944928 0.448126 0.814022 0.260497

loop_
_geom_bond_atom_site_label_1
_geom_bond_atom_site_label_2
_ccdc_geom_bond_type
C2    C35   S    
C24   O8    A    
C41   H3    S    
C43   H7    S    
N5    H13   S    
C55   H30   S    
C34   H2    S    
C24   C27   S    
C6    C9    A    
C46   H18   S    
C7    N5    S    
C47   H21   S    
C2    O2    A    
C10   C48   S    
O6    Zn2   S    
C12   C20   A    
C54   H28   S    
C35   C37   A    
C29   C32   S    
N7    C55   S    
C30   C31   S    
C33   C35   A    
C23   O5    A    
C20   C25   A    
C42   O10   D    
N8    H33   S    
N3    C43   S    
C44   H11   S    
C19   C26   A    
C26   N8    S    
C9    C47   S    
N1    Zn1   S    
C55   H31   S    
C4    C40   A    
N8    C56   S    
C5    C33   A    
C8    N6    S    
C11   N1    A    
C18   C20   A    
N3    H5    S    
C25   N7    S    
C48   H22   S    
C43   H8    S    
O1    Zn1   S    
N5    C45   S    
C12   C50   S    
C44   H10   S    
C51   O15   D    
C51   H25   S    
C47   O11   D    
C24   O6    A    
O4    Zn1   S    
N4    H9    S    
C4    C6    A    
C56   H36   S    
C49   H23   S    
N6    C46   S    
C1    O3    A    
C2    O4    A    
C42   H4    S    
C22   C54   S    
C6    C34   A    
N4    C44   S    
C44   H12   S    
C45   H14   S    
C29   C30   D    
C11   C49   S    
C49   O13   D    
C23   O7    A    
C13   C15   A    
C11   C19   A    
O2    Zn2   S    
C52   O16   D    
C17   C18   A    
C14   C52   S    
C53   O17   D    
C23   C28   S    
C38   N4    S    
C50   O14   D    
C45   H15   S    
O3    Zn2   S    
C16   C18   A    
C48   O12   D    
C41   O9    D    
C14   C16   A    
C3    C4    A    
C13   N1    A    
C46   H20   S    
O8    Zn1   S    
C14   N2    A    
C7    C9    A    
C21   C25   A    
C16   C22   A    
C27   C32   T    
C28   C31   T    
C43   H6    S    
C3    C5    A    
C46   H19   S    
C37   N3    S    
C15   C17   A    
C30   C41   S    
O7    Zn2   S    
C33   H1    S    
C56   H35   S    
C5    C10   A    
C37   C39   A    
N7    H29   S    
C38   C40   A    
C1    O1    A    
C54   O18   D    
O5    Zn1   S    
C36   C38   A    
C52   H26   S    
C17   C19   A    
C55   H32   S    
C34   C36   A    
C13   C51   S    
C50   H24   S    
C45   H16   S    
C3    C39   A    
N6    H17   S    
C21   C53   S    
N2    Zn2   S    
C15   C21   A    
C29   C42   S    
C8    C10   A    
C22   C26   A    
C53   H27   S    
C7    C39   A    
C12   N2    A    
C8    C40   A    
C56   H34   S    
C1    C36   S    
