data_mof_unit_43022.cif
_audit_creation_date              2012-12-10T20:54:22-0500
_audit_creation_method            fapswitch 2.2
_symmetry_space_group_name_H-M    P1
_symmetry_Int_Tables_number       1
_space_group_crystal_system       triclinic
_cell_length_a                    12.823585
_cell_length_b                    15.809331
_cell_length_c                    15.027661
_cell_angle_alpha                 89.884449
_cell_angle_beta                  97.429135
_cell_angle_gamma                 90.519649
_cell_volume                      3020.89243932

loop_
_atom_site_label
_atom_site_type_symbol
_atom_type_description
_atom_site_fract_x
_atom_site_fract_y
_atom_site_fract_z
_atom_type_partial_charge
C1    C     C_R   0.499473 0.338931 0.500094 0.977273
C2    C     C_R   0.500663 0.577186 0.047579 -0.022989
C3    C     C_R   0.503284 0.500217 0.905450 -0.042962
C4    C     C_R   0.499307 0.499728 0.094893 -0.043422
C5    C     C_R   0.502841 0.577510 0.953021 -0.033037
C6    C     C_R   0.501096 0.422499 0.047512 -0.033001
C7    C     C_1   0.501123 0.500158 0.807172 0.181562
C8    C     C_1   0.499957 0.499745 0.192968 0.179048
C9    C     C_R   0.297226 0.503124 0.482034 1.044605
C10   C     C_R   0.701796 0.489474 0.517256 0.997941
C11   C     C_R   0.814589 0.475152 0.527414 -0.393399
C12   C     C_R   0.502236 0.661112 0.500185 0.928864
C13   C     C_R   0.183911 0.507367 0.470664 -0.378801
C14   C     C_R   0.017987 0.570457 0.409466 0.437030
C15   C     C_R   0.983245 0.458996 0.620053 0.440858
C16   C     C_R   0.127371 0.563612 0.407600 0.278392
C17   C     C_R   0.872631 0.451699 0.610768 0.302847
C18   C     C_R   0.134056 0.462035 0.534154 0.462261
C19   C     C_R   0.866645 0.494772 0.453278 0.470970
C20   C     C_R   0.031056 0.481907 0.543759 -0.277560
C21   C     C_R   0.970994 0.518539 0.469629 -0.271815
C22   C     C_R   0.589734 0.957206 0.474362 -0.247378
C23   C     C_R   0.420548 0.955518 0.533877 0.014950
C24   C     C_R   0.422980 0.043462 0.535281 -0.249006
C25   C     C_R   0.504840 0.913199 0.502379 0.091006
C26   C     C_R   0.507292 0.087329 0.506466 0.092565
C27   C     C_R   0.684762 0.091473 0.449402 0.110119
C28   C     C_R   0.739833 0.151814 0.506642 -0.140785
C29   C     C_R   0.824351 0.197025 0.479263 -0.038757
C30   C     C_R   0.855512 0.181725 0.395105 -0.042820
C31   C     C_R   0.802426 0.121008 0.338344 -0.154609
C32   C     C_R   0.717549 0.075860 0.365304 -0.171151
C33   C     C_R   0.331066 0.909860 0.567120 0.101018
C34   C     C_R   0.592739 0.045141 0.477185 0.013865
C35   C     C_R   0.275398 0.845765 0.515662 -0.121220
C36   C     C_R   0.194936 0.800613 0.549545 -0.073014
C37   C     C_R   0.166749 0.820825 0.633585 -0.098087
C38   C     C_R   0.219173 0.886130 0.684012 -0.133403
C39   C     C_R   0.301228 0.930278 0.651276 -0.164800
C40   C     C_R   0.505867 0.341363 0.097968 0.095917
C41   C     C_R   0.421642 0.315598 0.143167 -0.156531
C42   C     C_R   0.428489 0.241243 0.194075 -0.105024
C43   C     C_R   0.519050 0.191967 0.199838 -0.099804
C44   C     C_R   0.602837 0.216874 0.154520 -0.139855
C45   C     C_1   0.507461 0.824229 0.501206 -0.070578
C46   C     C_R   0.596497 0.291370 0.103837 -0.131537
C47   C     C_R   0.501915 0.658925 0.903178 0.092779
C48   C     C_R   0.586737 0.681677 0.857215 -0.155094
C49   C     C_R   0.584702 0.757428 0.808842 -0.112961
C50   C     C_R   0.498582 0.811266 0.806630 -0.103298
C51   C     C_R   0.414307 0.789372 0.852731 -0.121577
C52   C     C_R   0.415562 0.713333 0.900500 -0.109032
C53   C     C_R   0.499868 0.341841 0.902529 0.076863
C54   C     C_R   0.586250 0.317638 0.859961 -0.136914
C55   C     C_R   0.581450 0.243495 0.808935 -0.081872
C56   C     C_1   0.502256 0.176093 0.503554 -0.077189
C57   C     C_R   0.490622 0.193053 0.800188 -0.130487
C58   C     C_R   0.404648 0.216477 0.842849 -0.090274
C59   C     C_R   0.409102 0.290612 0.893904 -0.071064
C60   C     C_R   0.504440 0.658023 0.098353 0.079983
C61   C     C_R   0.595307 0.709131 0.106153 -0.072745
C62   C     C_R   0.600573 0.783294 0.157191 -0.104645
C63   C     C_R   0.515401 0.806803 0.200826 -0.125274
C64   C     C_R   0.424566 0.756410 0.193100 -0.083789
C65   C     C_R   0.418863 0.682322 0.141951 -0.150122
C66   C     C_1   0.500151 0.250801 0.501156 -0.118857
C67   C     C_1   0.506094 0.749372 0.500503 -0.117711
C68   C     C_R   0.502664 0.422775 0.952937 -0.023318
H1    H     H_    0.654385 0.922862 0.451879 0.163852
H2    H     H_    0.865605 0.243988 0.523260 0.185636
H3    H     H_    0.920783 0.216929 0.373897 0.170231
H4    H     H_    0.826758 0.109177 0.273208 0.135482
H5    H     H_    0.676454 0.029725 0.320115 0.122879
H6    H     H_    0.294519 0.830421 0.449526 0.171259
H7    H     H_    0.154551 0.749821 0.510751 0.195456
H8    H     H_    0.104153 0.786002 0.659534 0.152582
H9    H     H_    0.196917 0.902015 0.748952 0.132310
H10   H     H_    0.342488 0.979498 0.692167 0.121315
H11   H     H_    0.351243 0.353465 0.139485 0.151990
H12   H     H_    0.358320 0.077993 0.557539 0.158595
H13   H     H_    0.363708 0.221948 0.229282 0.147296
H14   H     H_    0.524239 0.134528 0.239410 0.130009
H15   H     H_    0.672950 0.178717 0.159058 0.135934
H16   H     H_    0.662526 0.310647 0.070072 0.146880
H17   H     H_    0.654127 0.640637 0.858724 0.159452
H18   H     H_    0.649958 0.774447 0.773165 0.143741
H19   H     H_    0.497296 0.869974 0.769348 0.129206
H20   H     H_    0.347905 0.831246 0.851428 0.128832
H21   H     H_    0.349232 0.696681 0.935105 0.137924
H22   H     H_    0.656794 0.356477 0.865918 0.170564
H23   H     H_    0.715837 0.353679 0.290518 0.376275
H24   H     H_    0.647983 0.225282 0.775920 0.159832
H25   H     H_    0.486825 0.135877 0.760318 0.126189
H26   H     H_    0.334311 0.177426 0.835922 0.143650
H27   H     H_    0.341548 0.308693 0.925737 0.149016
H28   H     H_    0.662281 0.690994 0.073581 0.150693
H29   H     H_    0.670942 0.822288 0.163365 0.139865
H30   H     H_    0.519850 0.863984 0.240713 0.128170
H31   H     H_    0.358739 0.774628 0.227004 0.159228
H32   H     H_    0.348259 0.643572 0.136749 0.164955
H33   H     H_    0.269348 0.260793 0.519988 0.367464
H34   H     H_    0.849641 0.311038 0.803627 0.360478
H35   H     H_    0.166160 0.703346 0.212363 0.355002
H36   H     H_    0.963843 0.789271 0.337832 0.378978
H37   H     H_    0.030207 0.514056 0.858712 0.379788
H38   H     H_    0.717247 0.163959 0.572405 0.156947
N1    N     N_1   0.499970 0.500020 0.270540 -0.046988
N2    N     N_1   0.500030 0.499980 0.729460 -0.048975
O1    O     O_R   0.500000 0.378020 0.573650 -0.570708
O2    O     O_2   0.909944 0.433259 0.294176 -0.283351
O3    O     O_3   0.745530 0.368159 0.352820 -0.575991
O4    O     O_2   0.262080 0.374692 0.659033 -0.226246
O5    O     O_2   0.098882 0.303709 0.594052 -0.292810
O6    O     O_3   0.249865 0.317798 0.496287 -0.603040
O7    O     O_2   0.768076 0.463721 0.754203 -0.281081
O8    O     O_2   0.719069 0.346156 0.650644 -0.363494
O9    O     O_3   0.891384 0.334116 0.757951 -0.479856
O10   O     O_2   0.282096 0.668309 0.370268 -0.374646
O11   O     O_2   0.236182 0.550081 0.267234 -0.295139
O12   O     O_R   0.500000 0.621980 0.426350 -0.577083
O13   O     O_3   0.117933 0.679709 0.252692 -0.453675
O14   O     O_2   0.917153 0.637025 0.257116 -0.185286
O15   O     O_2   0.840775 0.664768 0.395114 -0.319543
O16   O     O_3   0.009345 0.746569 0.371464 -0.548623
O17   O     O_2   0.092681 0.382797 0.764117 -0.185642
O18   O     O_2   0.153498 0.523020 0.723066 -0.315166
O19   O     O_3   0.984886 0.513630 0.800103 -0.505531
O20   O     O_R   0.500050 0.378020 0.426320 -0.621816
O21   O     O_R   0.499950 0.621980 0.573680 -0.638270
O22   O     O_R   0.346340 0.499990 0.561490 -0.588005
O23   O     O_R   0.653660 0.500010 0.438510 -0.556629
O24   O     O_R   0.346380 0.499990 0.414160 -0.547602
O25   O     O_R   0.653620 0.500010 0.585840 -0.570358
O26   O     O_2   0.753181 0.521099 0.290607 -0.232171
S1    S     S_3+6 0.819180 0.455600 0.343523 0.070184
S2    S     S_3+6 0.186185 0.362476 0.574981 0.066046
S3    S     S_3+6 0.809206 0.398972 0.694736 0.052962
S4    S     S_3+6 0.192810 0.616235 0.323739 0.056507
S5    S     S_3+6 0.942049 0.654852 0.355837 0.093413
S6    S     S_3+6 0.057989 0.468289 0.728486 0.108264
Zn1   Zn    Zn3+2 0.499970 0.500000 0.598370 1.094639
Zn2   Zn    Zn3+2 0.500030 0.500000 0.401630 1.108604

loop_
_geom_bond_atom_site_label_1
_geom_bond_atom_site_label_2
_ccdc_geom_bond_type
C35   H6    S    
C40   C41   A    
C41   C42   A    
O16   S5    S    
C3    C68   A    
C1    O20   A    
C4    C8    S    
C44   H15   S    
C30   H3    S    
C53   C59   A    
C61   H28   S    
C53   C54   A    
C40   C46   A    
C5    C47   S    
O18   S6    D    
C62   C63   A    
C13   C18   A    
C14   C21   A    
C36   C37   A    
C19   C21   A    
C24   C26   A    
O14   S5    D    
C54   H22   S    
C63   H30   S    
C3    C7    S    
C30   C31   A    
C2    C60   S    
O21   Zn1   S    
C19   S1    S    
O15   S5    D    
H23   O3    S    
C53   C68   S    
O22   Zn1   S    
C9    C13   S    
C10   O23   A    
C1    O1    A    
C12   O12   A    
C24   H12   S    
C64   H31   S    
C11   C17   A    
O7    S3    D    
C28   H38   S    
C23   C33   S    
O5    S2    D    
C45   C67   T    
C23   C24   A    
C10   O25   A    
C18   S2    S    
C29   C30   A    
C22   H1    S    
C6    C68   A    
O17   S6    D    
C57   H25   S    
H33   O6    S    
O2    S1    D    
C42   H13   S    
C59   H27   S    
O4    S2    D    
N2    Zn1   S    
C44   C46   A    
C1    C66   S    
C27   C34   S    
O24   Zn2   S    
C15   C20   A    
C22   C34   A    
C12   C67   S    
O9    S3    S    
C31   H4    S    
C12   O21   A    
H37   O19   S    
C51   C52   A    
C39   H10   S    
C6    C40   S    
O12   Zn2   S    
C4    C6    A    
C32   H5    S    
C58   C59   A    
C9    O22   A    
C22   C25   A    
C60   C61   A    
C35   C36   A    
O13   S4    S    
C2    C4    A    
C43   C44   A    
C37   C38   A    
C36   H7    S    
C62   H29   S    
C47   C48   A    
C11   C19   A    
C50   C51   A    
C33   C39   A    
C14   S5    S    
N1    Zn2   S    
O23   Zn2   S    
C15   S6    S    
H34   O9    S    
C50   H19   S    
C46   H16   S    
C48   C49   A    
C55   H24   S    
C60   C65   A    
C55   C57   A    
C14   C16   A    
C2    C5    A    
C42   C43   A    
H35   O13   S    
C8    N1    T    
C25   C45   S    
O8    S3    D    
C9    O24   A    
C15   C17   A    
C54   C55   A    
C28   C29   A    
C52   H21   S    
C26   C34   A    
C27   C32   A    
C7    N2    T    
O11   S4    D    
C49   H18   S    
C37   H8    S    
C31   C32   A    
C16   S4    S    
C65   H32   S    
C3    C5    A    
C26   C56   S    
C51   H20   S    
C41   H11   S    
O1    Zn1   S    
C47   C52   A    
H36   O16   S    
C38   H9    S    
O26   S1    D    
O25   Zn1   S    
C64   C65   A    
C58   H26   S    
O3    S1    S    
C57   C58   A    
C38   C39   A    
C56   C66   T    
C33   C35   A    
C29   H2    S    
C18   C20   A    
C23   C25   A    
C61   C62   A    
C10   C11   S    
C63   C64   A    
C20   C21   A    
C49   C50   A    
O19   S6    S    
C13   C16   A    
C27   C28   A    
C43   H14   S    
O6    S2    S    
C48   H17   S    
C17   S3    S    
O10   S4    D    
O20   Zn2   S    
