data_mof_unit_20507.cif
_audit_creation_date              2012-12-10T17:51:23-0500
_audit_creation_method            fapswitch 2.2
_symmetry_space_group_name_H-M    P1
_symmetry_Int_Tables_number       1
_space_group_crystal_system       triclinic
_cell_length_a                    9.96625
_cell_length_b                    10.654885
_cell_length_c                    16.688521
_cell_angle_alpha                 90.861999
_cell_angle_beta                  81.683277
_cell_angle_gamma                 92.938251
_cell_volume                      1751.14753597

loop_
_atom_site_label
_atom_site_type_symbol
_atom_type_description
_atom_site_fract_x
_atom_site_fract_y
_atom_site_fract_z
_atom_type_partial_charge
C1    C     C_R   0.502208 0.739190 0.504216 0.887237
C2    C     C_R   0.548351 0.501894 0.259039 -0.166860
C3    C     C_R   0.313098 0.865192 0.622435 -0.164588
C4    C     C_R   0.477517 0.498434 0.653071 0.940013
C5    C     C_R   0.200169 0.921112 0.663398 -0.279445
C6    C     C_R   0.162636 0.037238 0.638406 -0.072410
C7    C     C_R   0.242293 0.097333 0.571059 -0.114188
C8    C     C_R   0.374297 0.053497 0.542658 0.011464
C9    C     C_R   0.398525 0.929586 0.560008 0.125254
C10   C     C_R   0.506207 0.871689 0.512302 -0.102642
C11   C     C_R   0.604940 0.939538 0.460931 -0.229780
C12   C     C_R   0.419606 0.396159 0.788568 -0.090952
C13   C     C_R   0.597020 0.066743 0.456191 -0.180902
C14   C     C_R   0.484042 0.124774 0.496895 -0.106111
C15   C     C_R   0.851758 0.628489 0.625814 0.463092
C16   C     C_R   0.495377 0.259423 0.499398 0.953260
C17   C     C_R   0.895384 0.635775 0.702927 -0.262120
C18   C     C_R   0.008031 0.567328 0.715024 0.359382
C19   C     C_R   0.087075 0.513892 0.648077 -0.188782
C20   C     C_R   0.053681 0.524551 0.569951 0.048879
C21   C     C_R   0.917455 0.549927 0.564657 -0.055047
C22   C     C_R   0.941496 0.458080 0.434768 0.554474
C23   C     C_R   0.615765 0.620935 0.135126 -0.073411
C24   C     C_R   0.086171 0.468947 0.432822 -0.094802
C25   C     C_R   0.522920 0.500094 0.346938 0.923547
C26   C     C_R   0.458423 0.503771 0.740547 -0.183208
C27   C     C_R   0.485341 0.620135 0.775788 -0.342855
C28   C     C_R   0.479133 0.631933 0.859283 0.579293
C29   C     C_R   0.453640 0.523893 0.906677 -0.000600
C30   C     C_R   0.416681 0.407028 0.873267 -0.079478
C31   C     C_2   0.616238 0.269538 0.084982 0.964935
C32   C     C_2   0.040372 0.092955 0.683883 0.973967
C33   C     C_2   0.167374 0.161938 0.513678 0.942718
C34   C     C_R   0.574965 0.618564 0.219516 -0.116987
C35   C     C_3   0.924863 0.291582 0.348187 -0.200787
C36   C     C_3   0.841352 0.817291 0.567650 -0.169263
C37   C     C_2   0.826578 0.716925 0.768694 1.024738
C38   C     C_2   0.559938 0.737581 0.266889 0.939267
C39   C     C_3   0.141051 0.635262 0.808274 -0.177095
C40   C     C_2   0.548796 0.265810 0.259976 0.920130
C41   C     C_2   0.731726 0.477700 0.943917 1.142762
C42   C     C_2   0.389281 0.295736 0.926970 1.006999
C43   C     C_2   0.637031 0.742112 0.090169 0.998220
C44   C     C_2   0.388409 0.272361 0.751309 0.963319
C45   C     C_R   0.569123 0.387624 0.216402 -0.098089
C46   C     C_3   0.413884 0.830292 0.890838 -0.251248
C47   C     C_R   0.608072 0.389568 0.132021 -0.064851
C48   C     C_R   0.626494 0.506116 0.091677 -0.030179
C49   C     C_2   0.487905 0.529355 0.988464 -0.211460
C50   C     C_2   0.612884 0.506899 0.005291 -0.118334
H1    H     H_    0.513633 0.701609 0.737847 0.196461
H2    H     H_    0.950592 0.249013 0.730035 0.359953
H3    H     H_    0.239253 0.054223 0.417640 0.302398
H4    H     H_    0.912603 0.229910 0.402384 0.175453
H5    H     H_    0.030822 0.292246 0.316448 0.193565
H6    H     H_    0.858930 0.249889 0.305757 0.222560
H7    H     H_    0.932315 0.846055 0.596590 0.151562
H8    H     H_    0.777479 0.899834 0.571540 0.214750
H9    H     H_    0.873370 0.794624 0.502684 0.141556
H10   H     H_    0.713813 0.867237 0.799379 0.380709
H11   H     H_    0.436930 0.845635 0.342349 0.340638
H12   H     H_    0.687417 0.893889 0.424146 0.194499
H13   H     H_    0.184112 0.602696 0.861494 0.197106
H14   H     H_    0.098620 0.728150 0.824111 0.174388
H15   H     H_    0.225040 0.645916 0.756948 0.107536
H16   H     H_    0.425953 0.151925 0.335754 0.347133
H17   H     H_    0.802896 0.414385 0.831896 0.368399
H18   H     H_    0.284264 0.220696 0.028893 0.379173
H19   H     H_    0.747000 0.842416 0.999719 0.371331
H20   H     H_    0.286335 0.104450 0.766566 0.344641
H21   H     H_    0.314087 0.792483 0.922167 0.157719
H22   H     H_    0.405765 0.856039 0.827426 0.153742
H23   H     H_    0.335756 0.772923 0.641450 0.135220
H24   H     H_    0.440829 0.917796 0.923002 0.254831
H25   H     H_    0.139550 0.872009 0.713386 0.162350
H26   H     H_    0.677959 0.119914 0.419103 0.180406
H27   H     H_    0.160063 0.449316 0.660078 0.247290
H28   H     H_    0.151894 0.445156 0.378058 0.180982
H29   H     H_    0.406150 0.548323 0.037078 0.198049
H30   H     H_    0.726901 0.160337 0.003598 0.368731
N1    N     N_R   0.857140 0.501200 0.500750 -0.129904
N2    N     N_R   0.142740 0.501280 0.500770 -0.100309
O1    O     O_R   0.385310 0.683220 0.500000 -0.610946
O2    O     O_R   0.733899 0.244687 0.032028 -0.755507
O3    O     O_2   0.943725 0.025023 0.713178 -0.621740
O4    O     O_R   0.038539 0.222662 0.697274 -0.747720
O5    O     O_2   0.085477 0.239565 0.538424 -0.592791
O6    O     O_R   0.184317 0.131015 0.431244 -0.779485
O7    O     O_3   0.884980 0.414752 0.367985 -0.602202
O8    O     O_3   0.763745 0.714828 0.606777 -0.554481
O9    O     O_2   0.839065 0.699597 0.839352 -0.555866
O10   O     O_R   0.749413 0.815573 0.750103 -0.737494
O11   O     O_2   0.654149 0.816553 0.262269 -0.588609
O12   O     O_R   0.614640 0.683250 0.500010 -0.576850
O13   O     O_R   0.437030 0.759543 0.315687 -0.782449
O14   O     O_3   0.038275 0.546896 0.791889 -0.540156
O15   O     O_2   0.634518 0.186974 0.247428 -0.599392
O16   O     O_R   0.429838 0.240079 0.313488 -0.776783
O17   O     O_2   0.845914 0.487293 0.962833 -0.500521
O18   O     O_R   0.714492 0.435955 0.866077 -0.810464
O19   O     O_2   0.450764 0.200104 0.910498 -0.603424
O20   O     O_R   0.295124 0.302138 0.997468 -0.765227
O21   O     O_2   0.559441 0.826906 0.107364 -0.565519
O22   O     O_R   0.744309 0.757425 0.026585 -0.726323
O23   O     O_R   0.371780 0.500010 0.615800 -0.667925
O24   O     O_2   0.456302 0.238343 0.688607 -0.642982
O25   O     O_R   0.284387 0.192408 0.790144 -0.760659
O26   O     O_3   0.516403 0.744828 0.893968 -0.596936
O27   O     O_R   0.601110 0.500030 0.615800 -0.559230
O28   O     O_R   0.385360 0.316750 0.499990 -0.599958
O29   O     O_R   0.614690 0.316780 0.500000 -0.595112
O30   O     O_R   0.398890 0.499970 0.384200 -0.566110
O31   O     O_R   0.628220 0.499990 0.384200 -0.580824
O32   O     O_2   0.520719 0.191836 0.093704 -0.571125
Zn1   Zn    Zn3+2 0.346870 0.499980 0.499990 1.011948
Zn2   Zn    Zn3+2 0.653130 0.500020 0.500010 1.053468

loop_
_geom_bond_atom_site_label_1
_geom_bond_atom_site_label_2
_ccdc_geom_bond_type
C6    C32   S    
C4    O27   A    
C20   N2    A    
C18   O14   S    
C19   C20   A    
H30   O2    S    
C36   H9    S    
C16   O28   A    
C7    C8    A    
C29   C49   S    
C39   H14   S    
C26   C27   A    
C28   C29   A    
C33   O6    S    
H18   O20   S    
N2    Zn1   S    
C36   H8    S    
H20   O25   S    
C40   O16   S    
C5    C6    A    
H19   O22   S    
C23   C43   S    
N1    Zn2   S    
C18   C19   A    
C19   H27   S    
C24   N2    A    
C43   O22   S    
O27   Zn2   S    
C8    C9    A    
C46   O26   S    
C38   O13   S    
C41   O17   D    
O29   Zn2   S    
C2    C25   S    
C9    C10   A    
C31   O32   D    
C46   H22   S    
C25   O30   A    
O31   Zn2   S    
C11   H12   S    
H10   O10   S    
C31   C47   S    
C13   C14   A    
C35   H4    S    
C39   H15   S    
C42   O20   S    
C27   H1    S    
C45   C47   A    
C2    C45   A    
C40   C45   S    
C7    C33   S    
C35   H5    S    
C22   N1    A    
O1    Zn1   S    
C36   H7    S    
C40   O15   D    
O12   Zn2   S    
C1    O12   A    
C31   O2    S    
C49   H29   S    
C12   C26   A    
C5    H25   S    
C29   C30   A    
C3    C9    A    
C25   O31   A    
C47   C48   A    
C13   H26   S    
C23   C34   A    
C32   O4    S    
C17   C18   A    
C41   O18   S    
C17   C37   S    
C46   H21   S    
H17   O18   S    
C35   O7    S    
C24   H28   S    
C21   N1    A    
C14   C16   S    
C42   O19   D    
C41   C50   S    
C46   H24   S    
C44   O25   S    
C36   O8    S    
C15   C17   A    
C8    C14   A    
C23   C48   A    
C37   O10   S    
C12   C30   A    
C35   H6    S    
C34   C38   S    
O23   Zn1   S    
C1    C10   S    
C3    C5    A    
C4    C26   S    
H11   O13   S    
C6    C7    A    
C44   O24   D    
C1    O1    A    
C39   H13   S    
C4    O23   A    
H16   O16   S    
H2    O4    S    
C33   O5    D    
C12   C44   S    
C15   O8    S    
C11   C13   A    
C2    C34   A    
C28   O26   S    
C32   O3    D    
C38   O11   D    
C48   C50   S    
C22   O7    S    
H3    O6    S    
C22   C24   A    
C3    H23   S    
C43   O21   D    
C39   O14   S    
C10   C11   A    
C15   C21   A    
C20   C21   A    
C16   O29   A    
C49   C50   D    
C27   C28   A    
C30   C42   S    
O28   Zn1   S    
O30   Zn1   S    
C37   O9    D    
