data_mof_unit_18519.cif
_audit_creation_date              2012-12-10T20:30:14-0500
_audit_creation_method            fapswitch 2.2
_symmetry_space_group_name_H-M    P1
_symmetry_Int_Tables_number       1
_space_group_crystal_system       triclinic
_cell_length_a                    9.927388
_cell_length_b                    10.629458
_cell_length_c                    13.149073
_cell_angle_alpha                 90.270409
_cell_angle_beta                  72.166145
_cell_angle_gamma                 88.193787
_cell_volume                      1320.04690756

loop_
_atom_site_label
_atom_site_type_symbol
_atom_type_description
_atom_site_fract_x
_atom_site_fract_y
_atom_site_fract_z
_atom_type_partial_charge
C1    C     C_R   0.505243 0.739132 0.486001 0.915133
C2    C     C_R   0.387909 0.417832 0.808100 -0.281533
C3    C     C_R   0.412443 0.939788 0.433452 -0.069589
C4    C     C_R   0.426037 0.473153 0.699200 0.980424
C5    C     C_R   0.523142 0.868850 0.450815 -0.229726
C6    C     C_R   0.652541 0.930922 0.436032 0.474173
C7    C     C_R   0.648310 0.061727 0.447765 -0.167577
C8    C     C_R   0.518802 0.128504 0.465962 -0.116967
C9    C     C_R   0.408776 0.067800 0.443756 -0.010235
C10   C     C_3   0.251177 0.076952 0.488098 0.156751
C11   C     C_3   0.256459 0.934731 0.475585 0.296556
C12   C     C_R   0.450610 0.402251 0.973563 0.057343
C13   C     C_R   0.890516 0.532721 0.590503 -0.087484
C14   C     C_R   0.963855 0.443362 0.419567 0.481655
C15   C     C_R   0.107267 0.445191 0.419072 -0.083440
C16   C     C_R   0.504364 0.259629 0.493702 0.951066
C17   C     C_R   0.033117 0.537787 0.588721 0.032832
C18   C     C_3   0.002505 0.666120 0.639065 0.767313
C19   C     C_3   0.846625 0.650044 0.655763 0.456249
C20   C     C_R   0.577022 0.499180 0.296579 0.988166
C21   C     C_R   0.788337 0.510582 0.005772 0.695141
C22   C     C_R   0.620644 0.487593 0.180602 -0.363448
C23   C     C_R   0.492406 0.399401 0.860735 -0.065224
C24   C     C_R   0.247462 0.386681 0.863818 0.410468
C25   C     C_R   0.209120 0.366732 0.973999 0.418324
C26   C     C_R   0.305964 0.386850 0.029278 -0.188862
C27   C     C_R   0.555331 0.427250 0.024054 -0.053334
C28   C     C_R   0.693872 0.455137 0.960098 -0.199745
C29   C     C_R   0.737079 0.419723 0.852741 -0.131696
C30   C     C_R   0.638052 0.380497 0.805784 0.400181
C31   C     C_R   0.528614 0.428035 0.134724 0.550500
C32   C     C_R   0.748889 0.533981 0.115274 0.277228
Cl1   Cl    Cl    0.863220 0.620541 0.166508 -0.368938
Cl2   Cl    Cl    0.187223 0.123307 0.625676 -0.445559
Cl3   Cl    Cl    0.187105 0.883274 0.372519 -0.377004
Cl4   Cl    Cl    0.926534 0.356033 0.318962 -0.480283
Cl5   Cl    Cl    0.052029 0.686329 0.756794 -0.434611
Cl6   Cl    Cl    0.121338 0.361884 0.797169 -0.421897
Cl7   Cl    Cl    0.039376 0.317420 0.045842 -0.398896
Cl8   Cl    Cl    0.699185 0.279915 0.693148 -0.526627
Cl9   Cl    Cl    0.820272 0.853220 0.400390 -0.325916
F1    F     F_    0.052228 0.756888 0.565269 -0.587507
F2    F     F_    0.787615 0.742226 0.607684 -0.538416
F3    F     F_    0.916966 0.545897 0.943985 -0.565249
F4    F     F_    0.423158 0.359314 0.197978 -0.666245
H1    H     H_    0.743681 0.109182 0.446871 0.235519
H2    H     H_    0.200665 0.128865 0.435355 0.179631
H3    H     H_    0.225704 0.885571 0.552691 0.222552
H4    H     H_    0.189560 0.401276 0.353640 0.211035
H5    H     H_    0.782907 0.633194 0.739582 0.054456
H6    H     H_    0.847487 0.418112 0.806159 0.237649
H7    H     H_    0.264100 0.388246 0.114951 0.258649
N1    N     N_R   0.856940 0.500860 0.500710 -0.075411
N2    N     N_R   0.142580 0.500820 0.500710 -0.095021
O1    O     O_R   0.385310 0.683210 0.499990 -0.593929
O2    O     O_R   0.614650 0.683240 0.500000 -0.510587
O3    O     O_R   0.328390 0.499940 0.653610 -0.544226
O4    O     O_R   0.557730 0.499980 0.653620 -0.607898
O5    O     O_R   0.385350 0.316760 0.500000 -0.597503
O6    O     O_R   0.614690 0.316790 0.500010 -0.586505
O7    O     O_R   0.442270 0.500020 0.346380 -0.588581
O8    O     O_R   0.671610 0.500060 0.346390 -0.548839
Zn1   Zn    Zn3+2 0.346870 0.499980 0.499990 1.094845
Zn2   Zn    Zn3+2 0.653130 0.500020 0.500010 1.130671

loop_
_geom_bond_atom_site_label_1
_geom_bond_atom_site_label_2
_ccdc_geom_bond_type
C4    O3    A    
C7    H1    S    
C2    C4    S    
O2    Zn2   S    
C6    C7    A    
C3    C9    A    
C26   H7    S    
C21   F3    S    
C9    C10   S    
C20   O7    A    
C2    C24   A    
O5    Zn1   S    
C12   C23   A    
C13   C17   A    
O6    Zn2   S    
C32   Cl1   S    
C2    C23   A    
C11   Cl3   S    
C17   C18   S    
C1    O1    A    
C30   Cl8   S    
C7    C8    A    
C8    C16   S    
C25   Cl7   S    
C14   Cl4   S    
C19   H5    S    
C11   H3    S    
C29   C30   A    
C22   C31   A    
C22   C32   A    
C1    C5    S    
C12   C26   A    
C29   H6    S    
C28   C29   A    
N1    Zn2   S    
C21   C28   A    
C19   F2    S    
O3    Zn1   S    
C13   N1    A    
C10   C11   S    
C15   H4    S    
C20   O8    A    
C5    C6    A    
C21   C32   A    
C3    C11   S    
N2    Zn1   S    
C13   C19   S    
C12   C27   A    
C27   C31   A    
C24   Cl6   S    
C23   C30   A    
C10   H2    S    
C14   N1    A    
C24   C25   A    
C10   Cl2   S    
C15   N2    A    
C31   F4    S    
C18   Cl5   S    
C4    O4    A    
C27   C28   A    
O7    Zn1   S    
C14   C15   A    
C18   C19   S    
C6    Cl9   S    
O8    Zn2   S    
O4    Zn2   S    
C25   C26   A    
C16   O6    A    
C17   N2    A    
C1    O2    A    
C18   F1    S    
C20   C22   S    
C8    C9    A    
C3    C5    A    
C16   O5    A    
O1    Zn1   S    
