data_mof_unit_34790.cif
_audit_creation_date              2012-12-10T17:50:10-0500
_audit_creation_method            fapswitch 2.2
_symmetry_space_group_name_H-M    P1
_symmetry_Int_Tables_number       1
_space_group_crystal_system       triclinic
_cell_length_a                    10.650637
_cell_length_b                    14.707431
_cell_length_c                    14.994356
_cell_angle_alpha                 64.246755
_cell_angle_beta                  105.812566
_cell_angle_gamma                 100.703673
_cell_volume                      2029.26731936

loop_
_atom_site_label
_atom_site_type_symbol
_atom_type_description
_atom_site_fract_x
_atom_site_fract_y
_atom_site_fract_z
_atom_type_partial_charge
C1    C     C_R   0.478136 0.119738 0.312521 0.829150
C2    C     C_R   0.518922 0.880419 0.688197 0.810701
C3    C     C_R   0.461983 0.290045 0.174084 -0.226700
C4    C     C_R   0.499232 0.710093 0.824793 -0.283986
C5    C     C_R   0.471496 0.359563 0.075855 -0.057522
C6    C     C_R   0.493576 0.639698 0.923442 -0.037269
C7    C     C_R   0.455285 0.322571 0.000197 -0.103695
C8    C     C_R   0.522236 0.676093 0.000288 -0.108918
C9    C     C_R   0.496636 0.465099 0.051350 -0.136130
C10   C     C_R   0.467485 0.533676 0.948036 -0.108357
C11   C     C_R   0.415541 0.493065 0.873133 0.307748
C12   C     C_R   0.556569 0.504073 0.126450 0.330097
C13   C     C_R   0.429457 0.391076 0.897540 0.418498
C14   C     C_R   0.557665 0.607703 0.102289 0.404811
C15   C     C_R   0.745737 0.301718 0.641223 0.354089
C16   C     C_R   0.272320 0.726434 0.323812 0.373768
C17   C     C_R   0.699120 0.210161 0.630183 0.384859
C18   C     C_R   0.301118 0.796139 0.368219 0.387250
C19   C     C_R   0.516952 0.289457 0.502829 0.613693
C20   C     C_R   0.499281 0.721747 0.471247 0.547822
C21   C     C_R   0.574010 0.388342 0.497510 -0.174196
C22   C     C_R   0.475698 0.648481 0.426662 -0.211930
C23   C     C_R   0.260260 0.999451 0.502476 0.775718
C24   C     C_R   0.740088 0.997551 0.501546 0.761057
C25   C     C_R   0.693979 0.392058 0.565830 -0.222684
C26   C     C_R   0.357248 0.649948 0.354417 -0.161568
C27   C     C_R   0.511211 0.482045 0.435858 -0.032007
C28   C     C_R   0.560503 0.569500 0.456567 -0.070778
C29   C     C_R   0.694849 0.576279 0.501329 0.428695
C30   C     C_R   0.407217 0.494999 0.350768 0.407129
C31   C     C_R   0.760580 0.487078 0.558848 0.354715
C32   C     C_R   0.326208 0.575966 0.313159 0.345867
C33   C     C_3   0.015027 0.029317 0.409267 -0.184398
C34   C     C_3   0.983975 0.960862 0.600083 -0.176453
C35   C     C_3   0.960004 0.088939 0.451437 -0.188694
C36   C     C_3   0.039847 0.901419 0.558096 -0.138475
C37   C     C_3   0.876467 0.993407 0.503239 0.029855
C38   C     C_3   0.123511 0.997761 0.505997 0.027866
C39   C     C_3   0.929300 0.933298 0.461373 -0.101080
C40   C     C_3   0.069812 0.056682 0.548536 -0.124803
C41   C     C_R   0.468963 0.187055 0.204507 -0.228680
C42   C     C_R   0.519681 0.813937 0.797241 -0.211325
C43   C     C_R   0.458922 0.217323 0.029337 0.365260
C44   C     C_R   0.524970 0.781140 0.973023 0.349757
C45   C     C_R   0.474671 0.150960 0.132950 0.305170
C46   C     C_R   0.534459 0.850656 0.872722 0.332370
Cu1   Cu    Cu3+1 0.465750 0.918270 0.475680 0.983254
Cu2   Cu    Cu3+1 0.534250 0.081730 0.524320 0.984350
H1    H     H_    0.922759 0.164977 0.406807 0.134993
H2    H     H_    0.075524 0.824857 0.602823 0.134540
H3    H     H_    0.030009 0.057878 0.330847 0.134989
H4    H     H_    0.968117 0.932379 0.678254 0.127744
H5    H     H_    0.869768 0.881493 0.427140 0.178196
H6    H     H_    0.125502 0.102878 0.590039 0.141051
H7    H     H_    0.494963 0.684856 0.768300 0.240707
H8    H     H_    0.449875 0.315643 0.228383 0.271145
N1    N     N_R   0.585750 0.204560 0.560800 -0.294930
N2    N     N_R   0.414250 0.795440 0.439200 -0.287215
O1    O     O_R   0.454850 0.022100 0.338110 -0.566837
O2    O     O_R   0.545150 0.977900 0.661890 -0.560645
O3    O     O_R   0.512700 0.160150 0.379180 -0.552896
O4    O     O_R   0.487300 0.839850 0.620820 -0.572088
O5    O     O_R   0.287930 0.931000 0.479440 -0.562580
O6    O     O_R   0.712070 0.069000 0.520560 -0.609603
O7    O     O_R   0.345780 0.069050 0.520520 -0.551663
O8    O     O_R   0.654220 0.930950 0.479480 -0.540513
O9    O     O_3   0.605832 0.718709 0.549058 -0.514262
C47   C     C_3   0.583914 0.636264 0.639033 0.115895
H9    H     H_    0.576337 0.561867 0.635169 0.136492
H10   H     H_    0.490061 0.641419 0.653397 0.176281
C48   C     C_3   0.697971 0.636282 0.726141 -0.750084
H11   H     H_    0.789053 0.622444 0.712969 0.257742
H12   H     H_    0.678472 0.575456 0.798603 0.210213
H13   H     H_    0.712426 0.710534 0.731701 0.229689
O10   O     O_3   0.389827 0.276556 0.453805 -0.502488
C49   C     C_3   0.305499 0.280229 0.510191 0.078706
H14   H     H_    0.335833 0.341821 0.537905 0.107597
H15   H     H_    0.303454 0.207187 0.577101 0.150053
C50   C     C_3   0.168890 0.299282 0.443670 -0.810661
H16   H     H_    0.142820 0.252060 0.399373 0.265304
H17   H     H_    0.096696 0.282006 0.491192 0.194852
H18   H     H_    0.164744 0.379768 0.390149 0.234703
O11   O     O_3   0.210135 0.864494 0.338189 -0.704222
H19   H     H_    0.255674 0.932438 0.312708 0.351477
O12   O     O_3   0.773568 0.129166 0.688594 -0.797795
H20   H     H_    0.732750 0.070465 0.674774 0.382246
O13   O     O_3   0.812220 0.303272 0.734683 -0.544106
C51   C     C_3   0.930672 0.255638 0.775465 0.140462
H21   H     H_    0.988303 0.275924 0.716851 0.126347
H22   H     H_    0.913130 0.172394 0.813138 0.197559
C52   C     C_3   0.010041 0.288674 0.858735 -0.846289
H23   H     H_    0.955190 0.264893 0.919613 0.252959
H24   H     H_    0.104756 0.253307 0.892375 0.200543
H25   H     H_    0.027809 0.372181 0.827080 0.261400
O14   O     O_3   0.157530 0.733550 0.250980 -0.519462
C53   C     C_3   0.181186 0.805597 0.155895 0.185352
H26   H     H_    0.260868 0.783880 0.135481 0.183163
H27   H     H_    0.208539 0.882384 0.156029 0.140587
C54   C     C_3   0.057324 0.811013 0.074432 -0.814889
H28   H     H_    0.977600 0.837423 0.089821 0.233771
H29   H     H_    0.076073 0.865059 0.999023 0.193768
H30   H     H_    0.026010 0.735160 0.073098 0.263414
O15   O     O_3   0.761013 0.671042 0.481329 -0.716672
H31   H     H_    0.855244 0.664977 0.513173 0.356288
O16   O     O_3   0.395356 0.434857 0.298980 -0.670358
H32   H     H_    0.354161 0.471869 0.226732 0.319691
O17   O     O_3   0.432451 0.360370 0.822598 -0.523388
C55   C     C_3   0.310732 0.366485 0.753107 0.166486
H33   H     H_    0.320958 0.428872 0.678821 0.154983
H34   H     H_    0.228651 0.380776 0.776540 0.131513
C56   C     C_3   0.274689 0.267807 0.739014 -0.817043
H35   H     H_    0.243815 0.206941 0.807094 0.261503
H36   H     H_    0.192312 0.277671 0.672469 0.171408
H37   H     H_    0.360182 0.244804 0.727011 0.264812
O18   O     O_3   0.601904 0.642898 0.178456 -0.516203
C57   C     C_3   0.740567 0.651863 0.203028 0.137826
H38   H     H_    0.786477 0.662401 0.140124 0.097494
H39   H     H_    0.775692 0.583520 0.270828 0.181471
C58   C     C_3   0.788323 0.741932 0.230657 -0.759813
H40   H     H_    0.738231 0.737477 0.288369 0.288682
H41   H     H_    0.895512 0.742017 0.262211 0.249496
H42   H     H_    0.767590 0.813162 0.162092 0.237246
O19   O     O_3   0.555000 0.953622 0.848651 -0.568175
C59   C     C_3   0.683060 0.975898 0.898142 0.027015
H43   H     H_    0.754282 0.983379 0.853103 0.175845
H44   H     H_    0.716865 0.917120 0.975544 0.133395
C60   C     C_3   0.686782 0.074229 0.909359 -0.675056
H45   H     H_    0.620748 0.064165 0.959159 0.239091
H46   H     H_    0.787549 0.094760 0.944608 0.183191
H47   H     H_    0.654143 0.136162 0.834332 0.290573
O20   O     O_3   0.494062 0.050543 0.163638 -0.589579
C61   C     C_3   0.630231 0.041194 0.190154 0.058295
H48   H     H_    0.681531 0.072888 0.247223 0.131762
H49   H     H_    0.673218 0.080324 0.121707 0.144771
C62   C     C_3   0.654205 0.930016 0.236521 -0.758350
H50   H     H_    0.600386 0.894891 0.183379 0.274698
H51   H     H_    0.760548 0.922486 0.251887 0.195507
H52   H     H_    0.619978 0.890275 0.308680 0.273764
O21   O     O_3   0.449393 0.180969 0.956697 -0.698472
H53   H     H_    0.431608 0.106427 0.985808 0.337364
O22   O     O_3   0.517291 0.814078 0.044706 -0.715538
H54   H     H_    0.493679 0.885162 0.010417 0.336875
O23   O     O_3   0.354404 0.550877 0.774990 -0.634130
C63   C     C_3   0.232743 0.576690 0.774277 0.018180
H55   H     H_    0.245920 0.633378 0.807157 0.177025
H56   H     H_    0.173544 0.509165 0.817525 0.137158
C64   C     C_3   0.157321 0.622755 0.665031 -0.758174
H57   H     H_    0.144931 0.568624 0.629254 0.255613
H58   H     H_    0.059412 0.640478 0.662903 0.224824
H59   H     H_    0.211711 0.693378 0.621439 0.250122
O24   O     O_3   0.614891 0.442911 0.224624 -0.542349
C65   C     C_3   0.734875 0.414358 0.225113 0.062578
H60   H     H_    0.798902 0.481276 0.186489 0.112404
H61   H     H_    0.719007 0.361749 0.187097 0.155899
C66   C     C_3   0.806440 0.360296 0.334421 -0.793113
H62   H     H_    0.749362 0.288820 0.372785 0.266053
H63   H     H_    0.903704 0.342676 0.335490 0.193698
H64   H     H_    0.820471 0.408999 0.376410 0.241376
O25   O     O_3   0.890287 0.495145 0.606098 -0.753018
H65   H     H_    0.935371 0.441996 0.606174 0.323175
O26   O     O_3   0.214473 0.582408 0.237974 -0.712812
H66   H     H_    0.182116 0.514297 0.239535 0.308479

loop_
_geom_bond_atom_site_label_1
_geom_bond_atom_site_label_2
_ccdc_geom_bond_type
C25   C31   A    
C62   H52   S    
C38   C40   S    
O13   C51   S    
C26   C32   A    
C66   H63   S    
C34   C37   S    
O19   C59   S    
C55   H33   S    
C20   O9    S    
C64   H57   S    
C49   C50   S    
C13   O17   S    
Cu1   O4    S    
O26   H66   S    
C62   H50   S    
O12   H20   S    
C19   N1    A    
C33   C39   S    
C34   C40   S    
C15   O13   S    
C28   C29   A    
C64   H58   S    
C49   H15   S    
C59   H44   S    
C1    O1    A    
Cu1   O5    S    
C2    O2    A    
Cu2   O6    S    
C14   O18   S    
C53   C54   S    
C57   H38   S    
C29   O15   S    
C62   H51   S    
C42   C46   A    
Cu1   N2    S    
C18   N2    A    
O25   H65   S    
C55   H34   S    
C61   H48   S    
C53   H27   S    
C35   H1    S    
O24   C65   S    
C65   C66   S    
C43   O21   S    
C7    C43   A    
Cu2   O7    S    
C9    C10   A    
Cu1   O8    S    
C24   O8    A    
C23   O5    A    
C21   C27   A    
C24   O6    A    
C22   C28   A    
C32   O26   S    
C27   C30   A    
C29   C31   A    
C12   O24   S    
C63   C64   S    
C44   C46   A    
Cu2   O2    S    
C50   H18   S    
C58   H41   S    
C16   C26   A    
C66   H62   S    
O9    C47   S    
Cu1   Cu2   S    
C61   C62   S    
Cu2   N1    S    
C64   H59   S    
C49   H14   S    
C63   H56   S    
C52   H23   S    
C50   H17   S    
C47   H9    S    
C6    C8    A    
O10   C49   S    
C60   H46   S    
C5    C9    A    
C52   H24   S    
C3    H8    S    
O11   H19   S    
C51   C52   S    
O17   C55   S    
C53   H26   S    
C18   O11   S    
C56   H36   S    
C55   C56   S    
C51   H21   S    
C58   H40   S    
C43   C45   A    
C59   C60   S    
C4    C6    A    
C54   H29   S    
C51   H22   S    
C45   O20   S    
C40   H6    S    
C4    H7    S    
C17   O12   S    
C46   O19   S    
C20   N2    A    
C60   H45   S    
O15   H31   S    
C36   H2    S    
C35   C37   S    
C5    C7    A    
C65   H61   S    
C58   H42   S    
C1    C41   S    
C24   C37   S    
C15   C17   A    
C21   C25   A    
C3    C41   A    
C16   O14   S    
C8    C14   A    
C56   H35   S    
C19   C21   A    
C36   C39   S    
C8    C44   A    
C20   C22   A    
C63   H55   S    
C3    C5    A    
C1    O3    A    
C6    C10   A    
C48   H13   S    
O21   H53   S    
C57   C58   S    
C33   H3    S    
C23   C38   S    
O16   H32   S    
C34   H4    S    
C30   O16   S    
C54   H28   S    
C16   C18   A    
C23   O7    A    
C19   O10   S    
C35   C40   S    
C12   C14   A    
C60   H47   S    
C48   H11   S    
C37   C39   S    
O22   H54   S    
C52   H25   S    
C30   C32   A    
C11   C13   A    
Cu2   O3    S    
C39   H5    S    
C4    C42   A    
C2    C42   S    
C47   C48   S    
C36   C38   S    
C33   C35   S    
C57   H39   S    
C56   H37   S    
C34   C36   S    
O20   C61   S    
C9    C12   A    
C31   O25   S    
C15   C25   A    
C10   C11   A    
Cu1   O1    S    
C50   H16   S    
C2    O4    A    
C7    C13   A    
C54   H30   S    
C65   H60   S    
C61   H49   S    
C22   C26   A    
C48   H12   S    
C27   C28   A    
C47   H10   S    
C41   C45   A    
C33   C38   S    
C44   O22   S    
O18   C57   S    
C11   O23   S    
O14   C53   S    
O23   C63   S    
C17   N1    A    
C59   H43   S    
C66   H64   S    
