data_mof_unit_12123.cif
_audit_creation_date              2012-12-11T14:08:01-0500
_audit_creation_method            fapswitch 2.2
_symmetry_space_group_name_H-M    P1
_symmetry_Int_Tables_number       1
_space_group_crystal_system       triclinic
_cell_length_a                    11.060903
_cell_length_b                    11.218876
_cell_length_c                    18.974891
_cell_angle_alpha                 90.275665
_cell_angle_beta                  89.832634
_cell_angle_gamma                 60.375814
_cell_volume                      2046.76971847

loop_
_atom_site_label
_atom_site_type_symbol
_atom_type_description
_atom_site_fract_x
_atom_site_fract_y
_atom_site_fract_z
_atom_type_partial_charge
C1    C     C_R   0.230549 0.649554 0.605495 0.533750
C2    C     C_2   0.782942 0.148659 0.706840 -0.119832
C3    C     C_2   0.153124 0.688723 0.671793 -0.029586
C4    C     C_R   0.627352 0.590569 0.609219 0.525813
C5    C     C_2   0.052096 0.730034 0.824359 -0.064859
C6    C     C_2   0.118737 0.607763 0.789035 -0.024352
C7    C     C_2   0.142799 0.596742 0.711992 -0.149398
C8    C     C_2   0.667412 0.686125 0.333792 0.188222
C9    C     C_2   0.725518 0.728572 0.176323 -0.002131
C10   C     C_2   0.687895 0.646906 0.207219 -0.049160
C11   C     C_2   0.730937 0.601519 0.278667 -0.044642
C12   C     C_3   0.715988 0.509626 0.807306 -0.135446
C13   C     C_2   0.610874 0.249023 0.315549 -0.093326
C14   C     C_2   0.630460 0.203096 0.160570 -0.009998
C15   C     C_2   0.531010 0.210253 0.204038 -0.060715
C16   C     C_R   0.626902 0.229539 0.601632 0.565999
C17   C     C_2   0.505708 0.268161 0.274547 -0.089646
C18   C     C_2   0.170361 0.672689 0.333103 0.010676
C19   C     C_2   0.044489 0.709839 0.193243 0.208405
C20   C     C_2   0.015266 0.810124 0.240788 -0.151330
C21   C     C_2   0.051817 0.783606 0.315334 -0.097340
C22   C     C_R   0.734790 0.036991 0.892120 0.519631
C23   C     C_3   0.667039 0.664209 0.822210 -0.058736
C24   C     C_R   0.712841 0.683533 0.893841 0.485745
C25   C     C_R   0.045508 0.746293 0.901195 0.570614
C26   C     C_R   0.673839 0.109454 0.102061 0.540234
C27   C     C_R   0.739049 0.722213 0.101200 0.526866
C28   C     C_R   0.223173 0.649581 0.402698 0.522407
C29   C     C_R   0.026889 0.744694 0.118487 0.512459
C30   C     C_R   0.646166 0.627475 0.397862 0.541132
C31   C     C_R   0.583451 0.289252 0.388337 0.540244
C32   C     C_3   0.502173 0.753002 0.804514 0.275768
C33   C     C_3   0.493624 0.738871 0.720532 -0.126864
C34   C     C_3   0.638553 0.621530 0.686325 -0.065880
C35   C     C_3   0.756682 0.700310 0.771203 -0.283095
C36   C     C_1   0.895540 0.533817 0.678323 0.202106
C37   C     C_1   0.890735 0.152903 0.664851 0.276956
C38   C     C_1   0.175820 0.476586 0.824250 0.334493
C39   C     C_1   0.128150 0.819384 0.697436 0.222988
C40   C     C_1   0.828396 0.456349 0.286906 0.316555
C41   C     C_1   0.699312 0.282660 0.167437 0.209414
C42   C     C_1   0.431869 0.867677 0.680211 0.353571
C43   C     C_1   0.745999 0.763182 0.644981 0.253940
C44   C     C_1   0.673936 0.445686 0.862821 0.330437
C45   C     C_3   0.758557 0.656093 0.694474 -0.034862
C46   C     C_1   0.563724 0.461099 0.720845 0.196366
C47   C     C_3   0.678276 0.489817 0.729823 -0.175663
C48   C     C_2   0.661058 0.174699 0.673496 0.188011
C49   C     C_2   0.756621 0.050970 0.817049 -0.053136
C50   C     C_2   0.808237 0.124424 0.785493 0.203018
Cr1   Cr    Cr6+3 0.393010 0.398050 0.501480 1.132312
Cr2   Cr    Cr6+3 0.398820 0.707980 0.501630 1.113258
Cr3   Cr    Cr6+3 0.708140 0.393940 0.496850 1.079647
Cr4   Cr    Cr6+3 0.937950 0.938450 0.008940 1.152709
Cr5   Cr    Cr6+3 0.626180 0.937030 0.994750 1.127592
Cr6   Cr    Cr6+3 0.937790 0.625760 0.001410 1.109174
H1    H     H_    0.770402 0.401529 0.706436 0.164743
H2    H     H_    0.717420 0.200505 0.296305 0.131366
H3    H     H_    0.968945 0.916011 0.223681 0.128078
H4    H     H_    0.414050 0.708434 0.711367 0.135281
H5    H     H_    0.989051 0.860468 0.354627 0.133893
H6    H     H_    0.243509 0.605614 0.293744 0.159562
H7    H     H_    0.723502 0.808308 0.772666 0.104253
H8    H     H_    0.830788 0.455301 0.810213 0.177055
H9    H     H_    0.570742 0.959733 0.828278 0.337122
H10   H     H_    0.057058 0.254149 0.806526 0.388499
H11   H     H_    0.298382 0.236733 0.702474 0.391150
H12   H     H_    0.864953 0.651994 0.790581 0.111150
H13   H     H_    0.507157 0.656489 0.951081 0.333286
H14   H     H_    0.736343 0.911659 0.348897 0.347380
H15   H     H_    0.065577 0.370476 0.173295 0.386108
H16   H     H_    0.733037 0.990122 0.783260 0.071807
H17   H     H_    0.179135 0.496638 0.689126 0.206444
H18   H     H_    0.995010 0.824587 0.796605 0.071743
H19   H     H_    0.644562 0.595894 0.176090 0.165383
H20   H     H_    0.775456 0.775048 0.205404 0.127999
H21   H     H_    0.473646 0.157713 0.190871 0.212605
H22   H     H_    0.402412 0.307302 0.297044 0.216635
N1    N     N_1   0.999400 0.435930 0.664928 -0.254089
N2    N     N_1   0.466645 0.450982 0.709877 -0.187686
N3    N     N_1   0.974864 0.157943 0.630487 -0.170074
N4    N     N_1   0.220472 0.372069 0.852416 -0.141696
N5    N     N_1   0.116321 0.922702 0.715056 -0.148179
N6    N     N_1   0.907074 0.340937 0.294208 -0.207877
N7    N     N_1   0.758153 0.343382 0.169274 -0.280878
N8    N     N_1   0.379278 0.966271 0.646593 -0.124678
N9    N     N_1   0.737857 0.845325 0.605612 -0.238886
N10   N     N_1   0.639348 0.397510 0.906961 -0.129943
O1    O     O_R   0.507110 0.256280 0.580300 -0.398382
O2    O     O_R   0.837080 0.593860 0.915300 -0.521230
O3    O     O_R   0.064770 0.636080 0.932550 -0.487317
O4    O     O_R   0.280830 0.527190 0.577940 -0.473579
O5    O     O_R   0.068250 0.829200 0.092940 -0.483115
O6    O     O_R   0.799650 0.057040 0.080330 -0.515217
O7    O     O_R   0.586130 0.079760 0.077080 -0.500014
O8    O     O_R   0.627700 0.809630 0.066580 -0.472446
O9    O     O_R   0.816140 0.597180 0.075920 -0.443935
O10   O     O_R   0.045360 0.639170 0.081440 -0.420603
O11   O     O_3   0.833980 0.833750 0.001700 -0.428817
O12   O     O_R   0.524640 0.695370 0.425100 -0.444682
O13   O     O_R   0.261360 0.738990 0.584270 -0.523922
O14   O     O_R   0.532590 0.694780 0.574370 -0.492484
O15   O     O_R   0.744470 0.503750 0.577000 -0.484719
O16   O     O_R   0.698520 0.277230 0.571620 -0.544944
O17   O     O_R   0.498530 0.256920 0.419280 -0.459075
O18   O     O_R   0.272880 0.527780 0.428680 -0.502352
O19   O     O_R   0.252780 0.739630 0.423250 -0.497706
O20   O     O_2   0.271792 0.009723 0.791131 -0.180631
O21   O     O_2   0.353083 0.945724 0.910497 -0.154407
O22   O     O_3   0.473584 0.028285 0.831388 -0.395304
O23   O     O_R   0.735890 0.504390 0.415980 -0.522824
O24   O     O_2   0.900447 0.224721 0.897763 -0.267891
O25   O     O_2   0.054721 0.013750 0.845834 -0.151712
O26   O     O_3   0.002215 0.227868 0.775408 -0.528110
O27   O     O_2   0.554059 0.026289 0.710933 -0.336362
O28   O     O_2   0.496336 0.228121 0.789106 -0.215714
O29   O     O_3   0.360276 0.261364 0.676100 -0.462525
O30   O     O_2   0.254817 0.788679 0.830517 -0.191699
O31   O     O_2   0.410666 0.554352 0.834761 -0.273840
O32   O     O_3   0.407317 0.700216 0.939648 -0.412843
O33   O     O_2   0.465827 0.908224 0.267088 -0.247578
O34   O     O_R   0.690560 0.277820 0.422350 -0.493440
O35   O     O_2   0.494933 0.937090 0.392359 -0.221478
O36   O     O_3   0.679405 0.928750 0.306022 -0.565183
O37   O     O_2   0.244179 0.449112 0.203689 -0.326186
O38   O     O_2   0.056341 0.521930 0.291378 -0.304187
O39   O     O_3   0.013970 0.470602 0.164922 -0.477649
O40   O     O_3   0.499990 0.499990 0.499980 -0.341749
O41   O     O_R   0.089190 0.825870 0.932320 -0.343368
O42   O     O_R   0.819070 0.053960 0.931440 -0.439616
O43   O     O_R   0.607070 0.076440 0.916460 -0.404446
O44   O     O_R   0.647110 0.806550 0.917690 -0.513510
S1    S     S_3+6 0.399497 0.934971 0.835021 0.134891
S2    S     S_3+6 0.939435 0.151133 0.828291 0.043177
S3    S     S_3+6 0.516194 0.173125 0.715128 0.047173
S4    S     S_3+6 0.397812 0.690201 0.851297 0.062646
S5    S     S_3+6 0.570604 0.869118 0.325155 0.020847
S6    S     S_3+6 0.090855 0.535480 0.216248 -0.010009

loop_
_geom_bond_atom_site_label_1
_geom_bond_atom_site_label_2
_ccdc_geom_bond_type
C26   O6    A    
C29   O5    A    
C22   O43   A    
C18   C21   D    
C40   N6    T    
C48   S3    S    
C19   C20   D    
Cr6   O10   S    
H15   O39   S    
C16   C48   S    
Cr2   O40   S    
C7    H17   S    
O28   S3    D    
C15   H21   S    
C12   C23   S    
Cr2   O14   S    
C29   O10   A    
Cr1   O40   S    
C3    C7    D    
Cr3   O34   S    
C19   S6    S    
C32   S1    S    
C12   H8    S    
Cr3   O16   S    
C4    O15   A    
C30   O12   A    
O33   S5    D    
C5    H18   S    
Cr4   O5    S    
C2    C50   S    
C16   O16   A    
Cr6   O3    S    
O38   S6    D    
Cr2   O19   S    
C28   O18   A    
C49   H16   S    
C4    O14   A    
C23   C24   S    
C6    C38   S    
C42   N8    T    
O39   S6    S    
C9    C10   D    
C21   H5    S    
Cr3   O23   S    
Cr6   O2    S    
C25   O41   A    
C16   O1    A    
C38   N4    T    
C31   O17   A    
C37   N3    T    
C27   O8    A    
Cr6   O9    S    
C12   C47   S    
Cr4   O42   S    
C4    C34   S    
Cr2   O13   S    
C25   O3    A    
Cr4   O6    S    
O21   S1    D    
O36   S5    S    
C18   C28   S    
Cr5   O7    S    
C50   S2    S    
C32   S4    S    
C18   H6    S    
C13   H2    S    
C2    C48   D    
Cr2   O12   S    
C8    S5    S    
C1    C3    S    
Cr3   O40   S    
Cr1   O4    S    
C47   H1    S    
H11   O29   S    
C10   H19   S    
C24   O44   A    
C8    C11   D    
Cr1   O17   S    
C33   C34   S    
O26   S2    S    
C36   C45   S    
C34   C45   S    
C14   C26   S    
C20   H3    S    
C43   C45   S    
C14   C41   S    
C5    C25   S    
C9    H20   S    
C49   C50   D    
C33   H4    S    
Cr5   O43   S    
O25   S2    D    
C22   C49   S    
Cr4   O11   S    
C33   C42   S    
C35   C45   S    
C1    O13   A    
C22   O42   A    
O30   S4    D    
C9    C27   S    
C26   O7    A    
C15   C17   S    
Cr4   O41   S    
C46   C47   S    
C27   O9    A    
H10   O26   S    
C13   C31   S    
C31   O34   A    
O24   S2    D    
Cr5   O8    S    
C36   N1    T    
C24   O2    A    
O29   S3    S    
C6    C7    S    
O37   S6    D    
C1    O4    A    
C41   N7    T    
O35   S5    D    
H13   O32   S    
C23   C35   S    
O31   S4    D    
C13   C17   D    
C30   O23   A    
C43   N9    T    
C32   C33   S    
C8    C30   S    
O20   S1    D    
C12   C44   S    
C23   C32   S    
C46   N2    T    
C2    C37   S    
C5    C6    D    
O27   S3    D    
C35   H12   S    
Cr3   O15   S    
Cr1   O18   S    
C17   H22   S    
C11   C40   S    
H9    O22   S    
C39   N5    T    
C10   C11   S    
C3    C39   S    
H14   O36   S    
C20   C21   S    
Cr5   O44   S    
Cr5   O11   S    
C14   C15   D    
O22   S1    S    
C35   H7    S    
C34   C47   S    
C28   O19   A    
Cr6   O11   S    
O32   S4    S    
C44   N10   T    
Cr1   O1    S    
C19   C29   S    
