data_mof_unit_20310.cif
_audit_creation_date              2013-03-05T15:48:19-0500
_audit_creation_method            fapswitch 2.2
_symmetry_space_group_name_H-M    P1
_symmetry_Int_Tables_number       1
_space_group_crystal_system       triclinic
_cell_length_a                    21.133465
_cell_length_b                    7.239419
_cell_length_c                    18.259722
_cell_angle_alpha                 90.004228
_cell_angle_beta                  93.473468
_cell_angle_gamma                 90.003998
_cell_volume                      2788.49603634

loop_
_atom_site_label
_atom_site_type_symbol
_atom_site_description
_atom_site_fract_x
_atom_site_fract_y
_atom_site_fract_z
_atom_type_partial_charge
O1    O     O_R   0.448880 0.506250 0.415280 -0.576946
O2    O     O_R   0.551120 0.006250 0.584720 -0.576917
O3    O     O_R   0.434830 0.174000 0.557310 -0.563308
O4    O     O_R   0.565170 0.674000 0.442690 -0.563306
C1    C     C_R   0.416993 0.344576 0.579660 0.924244
C2    C     C_R   0.583006 0.844576 0.420340 0.924221
O5    O     O_R   0.441680 0.176440 0.414130 -0.578257
O6    O     O_R   0.558320 0.676440 0.585870 -0.578241
O7    O     O_R   0.558020 0.007570 0.440520 -0.563365
O8    O     O_R   0.441980 0.507570 0.559480 -0.563390
C3    C     C_R   0.428016 0.344790 0.388273 0.907936
C4    C     C_R   0.571983 0.844813 0.611726 0.907969
O9    O     O_3   0.538160 0.339670 0.508820 -0.273578
O10   O     O_3   0.461840 0.839670 0.491180 -0.273616
V1    V     V_3+5 0.492920 0.064260 0.498360 1.163290
V2    V     V_3+5 0.507080 0.564260 0.501640 1.163280
C5    C     C_R   0.873282 0.020549 0.690463 -0.179802
C6    C     C_R   0.126819 0.521650 0.309446 -0.179884
H1    H     H_    0.961292 0.047270 0.754184 0.111437
H2    H     H_    0.038809 0.548378 0.245735 0.111461
H3    H     H_    0.792926 0.023264 0.573596 0.130890
H4    H     H_    0.207215 0.524946 0.426268 0.130899
H5    H     H_    0.894285 0.063693 0.640532 0.118141
H6    H     H_    0.105863 0.565328 0.359337 0.118142
C7    C     C_R   0.887081 0.946011 0.819598 -0.123251
C8    C     C_R   0.112925 0.446142 0.180402 -0.123408
C9    C     C_R   0.582439 0.808979 0.745645 -0.215039
C10   C     C_R   0.417511 0.308117 0.254388 -0.214992
C11   C     C_R   0.614895 0.827603 0.813638 -0.151606
C12   C     C_R   0.385042 0.326287 0.186386 -0.151668
C13   C     C_R   0.678470 0.883386 0.819658 0.330655
C14   C     C_R   0.321498 0.382302 0.180322 0.330766
C15   C     C_R   0.712904 0.902180 0.755065 -0.075532
C16   C     C_R   0.287099 0.401902 0.244906 -0.075610
C17   C     C_R   0.677343 0.898048 0.685429 0.086039
C18   C     C_R   0.322683 0.398216 0.314534 0.086067
C19   C     C_R   0.780589 0.928401 0.756359 0.112638
C20   C     C_R   0.219428 0.428459 0.243611 0.112557
C21   C     C_R   0.808380 0.979347 0.690309 0.185160
C22   C     C_R   0.191694 0.480108 0.309615 0.185248
C23   C     C_R   0.771621 0.986752 0.624156 -0.225223
C24   C     C_R   0.228480 0.487897 0.375742 -0.225263
C25   C     C_R   0.707707 0.941387 0.621311 -0.171304
C26   C     C_R   0.292368 0.442248 0.378612 -0.171463
C27   C     C_R   0.822387 0.899642 0.819645 -0.151692
C28   C     C_R   0.177587 0.399403 0.180379 -0.151977
C29   C     C_R   0.911764 0.008996 0.754923 -0.159937
C30   C     C_R   0.088308 0.509789 0.245018 -0.159805
C31   C     C_R   0.611812 0.851608 0.681405 -0.161179
C32   C     C_R   0.388187 0.351465 0.318590 -0.161270
H7    H     H_    0.806237 0.840504 0.869347 0.152360
H8    H     H_    0.193673 0.339780 0.130735 0.152566
H9    H     H_    0.532775 0.770657 0.743386 0.142045
H10   H     H_    0.467149 0.269521 0.256674 0.142087
H11   H     H_    0.588946 0.809163 0.862474 0.175660
H12   H     H_    0.410957 0.307244 0.137559 0.175632
H13   H     H_    0.681967 0.942862 0.568207 0.106098
H14   H     H_    0.318126 0.444054 0.431704 0.106307
C33   C     C_1   0.864545 0.938930 0.132115 -0.275443
C34   C     C_1   0.135455 0.438933 0.867885 -0.275347
C35   C     C_1   0.821708 0.924871 0.175891 0.086971
C36   C     C_1   0.178292 0.424874 0.824110 0.087025
C37   C     C_1   0.771169 0.905747 0.228045 0.013510
C38   C     C_1   0.228831 0.405748 0.771955 0.013525
C39   C     C_1   0.728624 0.889113 0.272067 0.005229
C40   C     C_1   0.271376 0.389112 0.727933 0.005234
C41   C     C_1   0.678091 0.869989 0.324230 0.065565
C42   C     C_1   0.321908 0.369986 0.675771 0.065563
C43   C     C_1   0.635262 0.855932 0.368013 -0.301536
C44   C     C_1   0.364738 0.355930 0.631987 -0.301547
O11   O     O_R   0.058070 0.289240 0.940580 -0.567825
O12   O     O_R   0.941930 0.789240 0.059420 -0.567846
O13   O     O_R   0.058330 0.616740 0.085880 -0.572222
O14   O     O_R   0.941670 0.116740 0.914120 -0.572161
C45   C     C_R   0.071956 0.449018 0.111855 0.921054
C46   C     C_R   0.928043 0.948995 0.888148 0.920959
O15   O     O_R   0.065180 0.619040 0.942700 -0.561911
O16   O     O_R   0.934820 0.119040 0.057300 -0.561903
O17   O     O_R   0.948870 0.787780 0.915270 -0.585473
O18   O     O_R   0.051130 0.287780 0.084730 -0.585489
C47   C     C_R   0.083193 0.450322 0.920209 0.942555
C48   C     C_R   0.916808 0.950321 0.079791 0.942452
O19   O     O_3   0.961870 0.453310 0.991210 -0.270954
O20   O     O_3   0.038130 0.953310 0.008790 -0.270961
V3    V     V_3+5 0.007070 0.728770 0.001630 1.185051
V4    V     V_3+5 0.992930 0.228770 0.998370 1.185089
N1    N     N_R   0.703246 0.945715 0.890299 0.218753
O21   O     O_R   0.690657 0.854784 0.949158 -0.388564
O22   O     O_R   0.728445 0.109384 0.897034 -0.391287
N2    N     N_R   0.296721 0.443956 0.109596 0.218700
O23   O     O_R   0.309116 0.352061 0.050895 -0.388541
O24   O     O_R   0.271698 0.607785 0.102580 -0.391191

loop_
_geom_bond_atom_site_label_1
_geom_bond_atom_site_label_2
_geom_bond_distance
_ccdc_geom_bond_type
C2    C43   1.505690 S    
C40   C42   1.479901 S    
N1    O21   1.301512 A    
C37   C39   1.247653 T    
C9    C11   1.388100 A    
C23   C25   1.387970 A    
O1    C3    1.333185 A    
C46   O17   1.332244 A    
O2    C4    1.333141 A    
C2    O7    1.352982 A    
O12   V3    1.837474 S    
O3    V1    1.859316 S    
C21   C23   1.397062 A    
O5    C3    1.332399 A    
C5    H5    1.083919 S    
O14   C46   1.328856 A    
C6    H6    1.083927 S    
H1    C29   1.083603 S    
C27   H7    1.077495 S    
C28   H8    1.077458 S    
C34   C36   1.247614 T    
C5    C21   1.403479 A    
C35   C37   1.479901 S    
C6    C22   1.403452 A    
C36   C38   1.479903 S    
C10   C32   1.394567 A    
C14   N2    1.435062 S    
C26   H14   1.082761 S    
C39   C41   1.479898 S    
C17   C31   1.422654 A    
O18   V4    1.986645 S    
C33   C48   1.505783 S    
C12   C14   1.400791 A    
C17   C25   1.404278 A    
C45   O18   1.332281 A    
C7    C29   1.396205 A    
C8    C30   1.396219 A    
O16   V4    1.859347 S    
O5    V1    1.999038 S    
O15   V3    1.859352 S    
O6    V2    1.998886 S    
O13   C45   1.328820 A    
C24   C26   1.387946 A    
C4    C31   1.483219 S    
C33   C35   1.247616 T    
C13   N1    1.435124 S    
O20   V3    1.754924 S    
O4    C2    1.360953 A    
C10   H10   1.083967 S    
C11   H11   1.083045 S    
C12   H12   1.083053 S    
C15   C19   1.441728 A    
C41   C43   1.247593 T    
C14   C16   1.429400 A    
O4    V2    1.859312 S    
C1    C44   1.505691 S    
O11   V4    1.837464 S    
C34   C47   1.505783 S    
O16   C48   1.350700 A    
N2    O24   1.301786 A    
O15   C47   1.350690 A    
O6    C4    1.332437 A    
C13   C15   1.429406 A    
C8    C45   1.478310 S    
C25   H13   1.082771 S    
O1    V2    1.985104 S    
O14   V4    1.998924 S    
O2    V1    1.985193 S    
O13   V3    1.999073 S    
H2    C30   1.083608 S    
H3    C23   1.084110 S    
C42   C44   1.247592 T    
N1    O22   1.301765 A    
C18   C26   1.404254 A    
C19   C27   1.426661 A    
C7    C27   1.407836 A    
O17   V3    1.986736 S    
C18   C32   1.422687 A    
C16   C20   1.441776 A    
C5    C29   1.392043 A    
O3    C1    1.360944 A    
C6    C30   1.392021 A    
C9    H9    1.083956 S    
C7    C46   1.478275 S    
C10   C12   1.388080 A    
O7    V1    1.831050 S    
C1    O8    1.352972 A    
C11   C13   1.400833 A    
C3    C32   1.483255 S    
O8    V2    1.831040 S    
C20   C22   1.421782 A    
N2    O23   1.301542 A    
H4    C24   1.084122 S    
C22   C24   1.397053 A    
C15   C17   1.437599 A    
C16   C18   1.437632 A    
C20   C28   1.426705 A    
C8    C28   1.407835 A    
O19   V4    1.755028 S    
C19   C21   1.421767 A    
O9    V2    1.755538 S    
O10   V1    1.755435 S    
O12   C48   1.343155 A    
C9    C31   1.394565 A    
C38   C40   1.247649 T    
O11   C47   1.343144 A    
