data_mof_unit_9578.cif
_audit_creation_date              2012-12-11T17:05:35-0500
_audit_creation_method            fapswitch 2.2
_symmetry_space_group_name_H-M    P1
_symmetry_Int_Tables_number       1
_space_group_crystal_system       triclinic
_cell_length_a                    6.944958
_cell_length_b                    14.57939
_cell_length_c                    15.987922
_cell_angle_alpha                 90.171215
_cell_angle_beta                  89.964207
_cell_angle_gamma                 90.073706
_cell_volume                      1618.82020337

loop_
_atom_site_label
_atom_site_type_symbol
_atom_type_description
_atom_site_fract_x
_atom_site_fract_y
_atom_site_fract_z
_atom_type_partial_charge
O1    O     O_R   0.494380 0.415640 0.412830 -0.540708
O2    O     O_R   0.823960 0.405540 0.586560 -0.548245
O3    O     O_R   0.994270 0.584360 0.587170 -0.540419
C1    C     C_R   0.655072 0.383499 0.615275 0.686723
O4    O     O_R   0.824090 0.404620 0.413450 -0.542527
O5    O     O_R   0.994400 0.583430 0.412820 -0.530500
C2    C     C_R   0.655211 0.382522 0.384613 0.727545
O6    O     O_R   0.494250 0.416570 0.587180 -0.539792
O7    O     O_3   0.660800 0.558670 0.500000 -0.359637
V1    V     V_3+5 0.935650 0.489120 0.500000 1.422690
O8    O     O_R   0.324110 0.594460 0.413440 -0.537831
C3    C     C_R   0.155022 0.617538 0.385487 0.708966
O9    O     O_R   0.323980 0.595380 0.586550 -0.544215
C4    C     C_R   0.155157 0.617954 0.615153 0.667639
V2    V     V_3+5 0.435660 0.510880 0.500000 1.431738
O10   O     O_3   0.160640 0.441330 0.500000 -0.375154
C5    C     C_3   0.067324 0.645264 0.766528 -0.327821
H1    H     H_    0.161177 0.587020 0.785232 0.126949
C6    C     C_3   0.059513 0.716997 0.838575 -0.358737
H2    H     H_    0.153773 0.694156 0.890777 0.134446
H3    H     H_    0.910175 0.720321 0.863718 0.142752
H4    H     H_    0.864409 0.742073 0.643527 0.153646
H5    H     H_    0.836286 0.835461 0.756385 0.119001
C7    C     C_3   0.009394 0.769238 0.660077 -0.332922
C8    C     C_3   0.347060 0.730175 0.703368 -0.346549
C9    C     C_3   0.144933 0.689032 0.684772 0.079384
H6    H     H_    0.406689 0.760566 0.644896 0.154152
H7    H     H_    0.447660 0.674464 0.722089 0.131060
C10   C     C_3   0.124521 0.813323 0.807695 0.026195
C11   C     C_3   0.987384 0.839179 0.733469 -0.160880
C12   C     C_3   0.337409 0.802125 0.774849 -0.144632
H8    H     H_    0.428058 0.776659 0.827290 0.102794
H9    H     H_    0.067100 0.802754 0.602720 0.149746
C13   C     C_R   0.258791 0.744051 0.183000 0.064939
C14   C     C_R   0.116674 0.811859 0.180265 -0.099133
C15   C     C_R   0.976864 0.811640 0.244182 -0.176667
H10   H     H_    0.863470 0.862640 0.243538 0.139436
C16   C     C_R   0.991731 0.751461 0.313044 -0.045116
C17   C     C_R   0.141853 0.685481 0.316590 -0.150988
C18   C     C_R   0.269474 0.681351 0.248610 0.055241
C19   C     C_3   0.484478 0.685188 0.248610 -0.207338
C20   C     C_3   0.472190 0.752909 0.176503 -0.424667
H11   H     H_    0.543001 0.714672 0.307180 0.152322
C21   C     C_R   0.491510 0.315839 0.741256 0.094494
C22   C     C_R   0.647240 0.317719 0.685574 -0.111362
C23   C     C_R   0.800272 0.256825 0.700877 -0.162401
H12   H     H_    0.923452 0.255701 0.659663 0.143901
C24   C     C_R   0.789676 0.192220 0.765952 -0.142244
H13   H     H_    0.906238 0.144179 0.773861 0.154545
C25   C     C_R   0.624718 0.185557 0.816777 -0.100143
C26   C     C_R   0.480127 0.251058 0.805045 0.091888
C27   C     C_3   0.269963 0.237244 0.791743 -0.402590
C28   C     C_3   0.282101 0.308268 0.722640 -0.395137
H14   H     H_    0.183270 0.260263 0.846353 0.167314
H15   H     H_    0.237303 0.167065 0.768375 0.198698
H16   H     H_    0.203262 0.372640 0.737410 0.159718
C29   C     C_R   0.511869 0.321886 0.250704 0.159888
C30   C     C_R   0.647770 0.315407 0.314982 -0.109805
C31   C     C_R   0.786219 0.245334 0.308174 -0.216631
H17   H     H_    0.897263 0.239589 0.355522 0.132259
C32   C     C_R   0.774562 0.178208 0.244324 -0.040756
C33   C     C_R   0.626164 0.182136 0.182849 -0.151298
C34   C     C_R   0.503007 0.258176 0.186040 0.087824
C35   C     C_3   0.288898 0.264563 0.181461 -0.404511
C36   C     C_3   0.298833 0.334014 0.252711 -0.397205
H18   H     H_    0.217897 0.199339 0.199052 0.196261
H19   H     H_    0.239324 0.294835 0.121508 0.172144
H20   H     H_    0.254925 0.404233 0.233740 0.178762
O11   O     O_R   0.771490 0.080820 0.910070 -0.544214
O12   O     O_R   0.441590 0.092730 0.083780 -0.536778
O13   O     O_R   0.271350 0.913900 0.084390 -0.537235
C37   C     C_R   0.610794 0.113520 0.113926 0.702486
O14   O     O_R   0.441780 0.091820 0.910670 -0.538017
O15   O     O_R   0.271540 0.912980 0.910040 -0.540895
C38   C     C_R   0.610961 0.114262 0.882279 0.725724
O16   O     O_R   0.771300 0.081740 0.084420 -0.536178
O17   O     O_3   0.604960 0.938700 0.997240 -0.376501
V3    V     V_3+5 0.330090 0.008230 0.997220 1.435024
O18   O     O_R   0.941820 0.901930 0.910640 -0.545698
C39   C     C_R   0.111057 0.881455 0.880295 0.653610
O19   O     O_R   0.941630 0.902840 0.083750 -0.543710
C40   C     C_R   0.110171 0.880755 0.112453 0.741946
V4    V     V_3+5 0.830090 0.986410 0.997190 1.420389
O20   O     O_3   0.105080 0.055990 0.997200 -0.368642
H21   H     H_    0.920470 0.616993 0.755690 0.139056
C41   C     C_1   0.425896 0.889353 0.747417 0.300419
N1    N     N_1   0.495687 0.957499 0.726010 -0.351978
C42   C     C_1   0.015428 0.933740 0.703199 0.328069
N2    N     N_1   0.037526 0.007646 0.678820 -0.359463
C43   C     C_1   0.865000 0.765922 0.383530 0.292450
N3    N     N_1   0.764111 0.777669 0.440206 -0.361789
C44   C     C_1   0.572112 0.597189 0.224818 0.335204
N4    N     N_1   0.642059 0.528180 0.205964 -0.389731
H22   H     H_    0.527108 0.726714 0.115565 0.165422
H23   H     H_    0.523800 0.822710 0.193582 0.174796
H24   H     H_    0.255271 0.279556 0.659211 0.182449
C45   C     C_1   0.907016 0.102165 0.248476 0.294782
N5    N     N_1   0.013971 0.041552 0.252281 -0.383768
H25   H     H_    0.233105 0.308798 0.311770 0.176272

loop_
_geom_bond_atom_site_label_1
_geom_bond_atom_site_label_2
_ccdc_geom_bond_type
C8    C12   S    
O12   V3    S    
O14   C38   A    
C19   C20   S    
C6    H2    S    
C13   C20   S    
C37   O16   A    
O19   C40   A    
C43   N3    T    
C22   C23   A    
C21   C22   A    
C8    H7    S    
C10   C11   S    
C13   C18   A    
C5    C9    S    
C15   H10   S    
C6    H3    S    
C7    C9    S    
O5    C3    A    
C16   C17   A    
O17   V4    S    
V2    O10   S    
C45   N5    T    
C5    H1    S    
C13   C14   A    
O8    V2    S    
C21   C28   S    
C14   C15   A    
O14   V3    S    
O1    V2    S    
O7    V1    S    
C2    C30   S    
C27   H15   S    
C1    O6    A    
O13   C40   A    
C24   C25   A    
C31   H17   S    
C12   C41   S    
O1    C2    A    
O9    C4    A    
C28   H24   S    
C19   H11   S    
C5    H21   S    
O16   V4    S    
O19   V4    S    
C14   C40   S    
C27   H14   S    
C29   C34   A    
C1    C22   S    
C23   C24   A    
C31   C32   A    
C20   H23   S    
C35   H19   S    
O18   C39   A    
C36   H25   S    
C17   C18   A    
O4    C2    A    
C41   N1    T    
C30   C31   A    
O17   V3    S    
C26   C27   S    
C35   H18   S    
O2    C1    A    
H5    C11   S    
C33   C34   A    
O11   V4    S    
V4    O20   S    
C36   H20   S    
C25   C26   A    
C33   C37   S    
C4    C9    S    
O3    C4    A    
C21   C26   A    
C18   C19   S    
O6    V2    S    
O9    V2    S    
H4    C7    S    
C11   C42   S    
C6    C10   S    
C27   C28   S    
C28   H16   S    
C23   H12   S    
C24   H13   S    
C20   H22   S    
C12   H8    S    
C32   C45   S    
C29   C36   S    
O5    V1    S    
O12   C37   A    
O8    C3    A    
C8    H6    S    
C16   C43   S    
C7    H9    S    
C35   C36   S    
C3    C17   S    
C15   C16   A    
C8    C9    S    
O4    V1    S    
C10   C12   S    
O3    V1    S    
V1    O10   S    
C25   C38   S    
O18   V4    S    
C29   C30   A    
C10   C39   S    
C44   N4    T    
C5    C6    S    
O11   C38   A    
O7    V2    S    
C32   C33   A    
C7    C11   S    
C34   C35   S    
V3    O20   S    
C19   C44   S    
C42   N2    T    
O15   V3    S    
O15   C39   A    
O13   V3    S    
O2    V1    S    
