data_mof_unit_59875.cif
_audit_creation_date              2012-12-10T22:11:10-0500
_audit_creation_method            fapswitch 2.2
_symmetry_space_group_name_H-M    P1
_symmetry_Int_Tables_number       1
_space_group_crystal_system       triclinic
_cell_length_a                    12.112768
_cell_length_b                    12.275419
_cell_length_c                    23.162837
_cell_angle_alpha                 90.721754
_cell_angle_beta                  90.357875
_cell_angle_gamma                 90.184207
_cell_volume                      3443.70696022

loop_
_atom_site_label
_atom_site_type_symbol
_atom_type_description
_atom_site_fract_x
_atom_site_fract_y
_atom_site_fract_z
_atom_type_partial_charge
C1    C     C_R   0.655885 0.997916 0.579578 0.890963
C2    C     C_R   0.090640 0.886287 0.829612 -0.207285
C3    C     C_R   0.910418 0.189484 0.126874 0.424967
C4    C     C_R   0.089559 0.810524 0.873139 0.432548
C5    C     C_R   0.167217 0.901842 0.298565 0.204226
C6    C     C_R   0.832787 0.098132 0.701443 0.203685
C7    C     C_R   0.250246 0.909683 0.340172 -0.167366
C8    C     C_R   0.749758 0.090302 0.659833 -0.169010
C9    C     C_R   0.824335 0.086837 0.293790 -0.259943
C10   C     C_R   0.175713 0.913143 0.706206 -0.244642
C11   C     C_R   0.738278 0.083911 0.332890 0.379823
C12   C     C_R   0.344117 0.002083 0.420421 0.888503
C13   C     C_R   0.261782 0.916177 0.667122 0.414608
C14   C     C_3   0.998147 0.001645 0.247825 -0.021046
C15   C     C_3   0.001869 0.998320 0.752174 -0.019061
C16   C     C_R   0.653598 0.001287 0.420016 0.924967
C17   C     C_R   0.346397 0.998723 0.579979 0.930285
C18   C     C_R   0.099464 0.996138 0.288293 0.095702
C19   C     C_R   0.900548 0.003837 0.711706 0.097587
C20   C     C_R   0.262404 0.002297 0.374861 -0.044502
C21   C     C_R   0.737601 0.997697 0.625139 -0.044049
C22   C     C_R   0.899637 0.000427 0.289072 0.004362
C23   C     C_R   0.898027 0.762611 0.152947 -0.172482
C24   C     C_R   0.100380 0.999542 0.710930 -0.015301
C25   C     C_R   0.736023 0.000239 0.374484 -0.188567
C26   C     C_R   0.264004 0.999810 0.625521 -0.203579
C27   C     C_R   0.997749 0.102837 0.209294 -0.030176
C28   C     C_R   0.002275 0.897120 0.790693 -0.033770
C29   C     C_R   0.998624 0.266019 0.124706 -0.207397
C30   C     C_R   0.001362 0.733982 0.875300 -0.206088
C31   C     C_R   0.993587 0.909064 0.203823 0.134360
C32   C     C_R   0.006430 0.090898 0.796184 0.135120
C33   C     C_R   0.989028 0.750481 0.116739 -0.022159
C34   C     C_R   0.101974 0.237375 0.847053 -0.170573
C35   C     C_R   0.010978 0.249501 0.883265 -0.022358
C36   C     C_R   0.992166 0.662606 0.074794 0.875253
C37   C     C_R   0.007835 0.337388 0.925207 0.876655
C38   C     C_R   0.999106 0.351036 0.080725 0.914041
C39   C     C_R   0.000891 0.648965 0.919278 0.915256
C40   C     C_R   0.112861 0.087623 0.325659 -0.210031
C41   C     C_R   0.887150 0.912362 0.674333 -0.210077
C42   C     C_R   0.194065 0.091477 0.367543 -0.180196
C43   C     C_R   0.805943 0.908516 0.632451 -0.185937
C44   C     C_R   0.891623 0.914385 0.328098 -0.168568
C45   C     C_R   0.080793 0.900632 0.164179 -0.142248
C46   C     C_R   0.108384 0.085606 0.671912 -0.165306
C47   C     C_R   0.815084 0.915443 0.372265 0.134053
C48   C     C_R   0.184927 0.084586 0.627745 0.132281
C49   C     C_R   0.088156 0.173813 0.204414 -0.178763
C50   C     C_R   0.911857 0.826156 0.795575 -0.178254
C51   C     C_R   0.086868 0.258976 0.165287 0.125530
C52   C     C_R   0.913128 0.741010 0.834712 0.134414
C53   C     C_R   0.899957 0.841395 0.196281 -0.178402
C54   C     C_R   0.100050 0.158581 0.803723 -0.177904
C55   C     C_3   0.153818 0.788842 0.271884 -0.924530
C56   C     C_R   0.919232 0.099320 0.835836 -0.144454
C57   C     C_3   0.846175 0.211122 0.728137 -0.925276
C58   C     C_3   0.823591 0.827318 0.417182 -0.827607
C59   C     C_3   0.176412 0.172722 0.582835 -0.823484
C60   C     C_3   0.181202 0.339917 0.168404 -0.788499
C61   C     C_3   0.818778 0.660085 0.831603 -0.803596
C62   C     C_R   0.079939 0.820164 0.122215 -0.144947
C63   C     C_R   0.920081 0.179795 0.877798 -0.145662
C64   C     C_R   0.909376 0.113678 0.170380 -0.216930
H1    H     H_    0.201266 0.162996 0.395222 0.166111
H2    H     H_    0.848148 0.045739 0.832545 0.155312
H3    H     H_    0.840852 0.057156 0.172623 0.219624
H4    H     H_    0.159165 0.942810 0.827373 0.217394
H5    H     H_    0.831188 0.158203 0.267544 0.179034
H6    H     H_    0.168976 0.841677 0.732431 0.209619
H7    H     H_    0.826579 0.709766 0.148582 0.166142
H8    H     H_    0.173414 0.290231 0.851413 0.166674
H9    H     H_    0.151181 0.811926 0.094613 0.205537
H10   H     H_    0.848847 0.188024 0.905406 0.205218
H11   H     H_    0.304607 0.840884 0.346927 0.166830
H12   H     H_    0.798741 0.837003 0.604767 0.166073
H13   H     H_    0.695395 0.159100 0.653083 0.166209
H14   H     H_    0.058299 0.157139 0.322567 0.163349
H15   H     H_    0.941714 0.842846 0.677419 0.165989
H16   H     H_    0.191099 0.725469 0.299699 0.236675
H17   H     H_    0.066879 0.762829 0.267452 0.242827
H18   H     H_    0.198300 0.783319 0.230347 0.257037
H19   H     H_    0.808879 0.274503 0.700333 0.235913
H20   H     H_    0.801700 0.216620 0.769677 0.256261
H21   H     H_    0.933112 0.237144 0.732567 0.243993
H22   H     H_    0.900642 0.779160 0.412666 0.225822
H23   H     H_    0.949682 0.848154 0.325899 0.158739
H24   H     H_    0.824739 0.864259 0.461209 0.232730
H25   H     H_    0.753418 0.769484 0.412517 0.261567
H26   H     H_    0.099370 0.220889 0.587364 0.225653
H27   H     H_    0.246596 0.230544 0.587495 0.261633
H28   H     H_    0.175242 0.135790 0.538806 0.232103
H29   H     H_    0.232616 0.329299 0.207820 0.236318
H30   H     H_    0.236230 0.328822 0.130675 0.267541
H31   H     H_    0.148605 0.424358 0.170028 0.229493
H32   H     H_    0.767353 0.670708 0.792191 0.229494
H33   H     H_    0.851358 0.575638 0.829979 0.233094
H34   H     H_    0.050312 0.151827 0.674116 0.160101
H35   H     H_    0.763759 0.671194 0.869335 0.265777
H36   H     H_    0.682734 0.054296 0.048891 0.389284
H37   H     H_    0.317076 0.945860 0.951168 0.389048
H38   H     H_    0.689966 0.303421 0.263785 0.357326
H39   H     H_    0.419955 0.705300 0.740934 0.388410
H40   H     H_    0.162219 0.162660 0.229699 0.176079
H41   H     H_    0.837798 0.837309 0.770288 0.172429
H42   H     H_    0.827382 0.849314 0.222847 0.162286
H43   H     H_    0.172623 0.150670 0.777154 0.162192
H44   H     H_    0.151886 0.954202 0.167475 0.156596
O1    O     O_R   0.621380 0.090460 0.561410 -0.644310
O2    O     O_R   0.912410 0.372520 0.941210 -0.604306
O3    O     O_R   0.905660 0.383870 0.059980 -0.546539
O4    O     O_R   0.094340 0.616130 0.940020 -0.545149
O5    O     O_R   0.092570 0.390420 0.063230 -0.631756
O6    O     O_R   0.907430 0.609580 0.936770 -0.632477
O7    O     O_R   0.900680 0.620930 0.055550 -0.627685
O8    O     O_R   0.099320 0.379070 0.944450 -0.627161
O9    O     O_2   0.720896 0.265627 0.082460 -0.268212
O10   O     O_2   0.852635 0.182521 0.014915 -0.325362
O11   O     O_3   0.738894 0.055256 0.080164 -0.551960
O12   O     O_R   0.378620 0.909540 0.438590 -0.643913
O13   O     O_2   0.147152 0.817562 0.985121 -0.326532
O14   O     O_2   0.279066 0.734528 0.917647 -0.268545
O15   O     O_3   0.260906 0.944888 0.919911 -0.554303
O16   O     O_2   0.521791 0.133354 0.332777 -0.270648
O17   O     O_2   0.649795 0.271916 0.370715 -0.304493
O18   O     O_3   0.638862 0.240598 0.259638 -0.515409
O19   O     O_2   0.348987 0.727901 0.629594 -0.290259
O20   O     O_2   0.478172 0.866688 0.667121 -0.311441
O21   O     O_3   0.359966 0.759936 0.740410 -0.547176
O22   O     O_R   0.617150 0.909540 0.438590 -0.639860
O23   O     O_R   0.382850 0.090460 0.561410 -0.640026
O24   O     O_R   0.619720 0.093230 0.440890 -0.549983
O25   O     O_R   0.380280 0.906770 0.559110 -0.549345
O26   O     O_R   0.618800 0.906770 0.559110 -0.596457
O27   O     O_R   0.381200 0.093230 0.440890 -0.595777
O28   O     O_R   0.087590 0.627480 0.058790 -0.604046
S1    S     S_3+6 0.803779 0.175987 0.074157 0.040125
S2    S     S_3+6 0.196103 0.824111 0.925902 0.040756
S3    S     S_3+6 0.633762 0.184248 0.325484 0.039752
S4    S     S_3+6 0.366180 0.815820 0.674536 0.024713
Zn1   Zn    Zn3+2 0.501730 0.123520 0.501540 1.045798
Zn2   Zn    Zn3+2 0.498270 0.876480 0.498460 1.044023
Zn3   Zn    Zn3+2 0.125690 0.504390 0.002180 1.057761
Zn4   Zn    Zn3+2 0.874310 0.495610 0.997820 1.055504

loop_
_geom_bond_atom_site_label_1
_geom_bond_atom_site_label_2
_ccdc_geom_bond_type
C1    C21   S    
C16   C25   S    
C17   O23   A    
C2    C28   A    
C14   C18   S    
O16   S3    D    
C14   C31   S    
C49   H40   S    
C61   H32   S    
C15   C32   S    
C37   O8    A    
C3    C64   A    
O17   S3    D    
C15   C19   S    
C6    C19   A    
O15   S2    S    
O25   Zn2   S    
H37   O15   S    
C54   H43   S    
C17   C26   S    
O4    Zn3   S    
C35   C37   S    
C9    H5    S    
O28   Zn3   S    
C2    H4    S    
C52   C61   S    
C9    C22   A    
C11   C25   A    
C58   H22   S    
C45   C62   A    
O24   Zn1   S    
C33   C36   S    
C34   C35   A    
C49   C51   A    
C3    C29   A    
C18   C40   A    
C11   S3    S    
C1    O1    A    
C21   C43   A    
C28   C50   A    
C53   H42   S    
C22   C44   A    
C33   C62   A    
C23   C33   A    
C12   O27   A    
C29   C38   S    
C42   H1    S    
C50   C52   A    
C57   H19   S    
C62   H9    S    
C3    S1    S    
C14   C27   S    
C55   H17   S    
O10   S1    D    
C16   O22   A    
C25   C47   A    
O23   Zn1   S    
C45   H44   S    
C26   C48   A    
C60   H29   S    
C40   C42   A    
C46   H34   S    
C12   O12   A    
C41   C43   A    
C6    C57   S    
C61   H35   S    
C16   O24   A    
C36   O28   A    
C32   C54   A    
C23   C53   A    
C46   C48   A    
O18   S3    S    
C57   H20   S    
O11   S1    S    
C13   S4    S    
C23   H7    S    
O12   Zn2   S    
O14   S2    D    
C5    C7    A    
C38   O5    A    
C7    H11   S    
C5    C18   A    
C10   C24   A    
O5    Zn3   S    
C59   H26   S    
O6    Zn4   S    
O13   S2    D    
C2    C4    A    
C64   H3    S    
O26   Zn2   S    
O8    Zn3   S    
C9    C11   A    
C20   C42   A    
C50   H41   S    
C39   O6    A    
C12   C20   S    
C8    C21   A    
C56   C63   A    
C61   H33   S    
H36   O11   S    
C59   H27   S    
C31   C53   A    
C55   H18   S    
O2    Zn4   S    
H39   O21   S    
C37   O2    A    
O3    Zn4   S    
C10   H6    S    
C39   O4    A    
C34   C54   A    
C17   O25   A    
C8    H13   S    
C40   H14   S    
C13   C26   A    
O19   S4    D    
C1    O26   A    
C44   H23   S    
C34   H8    S    
C48   C59   S    
C29   C51   A    
C43   H12   S    
C30   C52   A    
O7    Zn4   S    
C15   C24   S    
O1    Zn1   S    
C5    C55   S    
O9    S1    D    
H38   O18   S    
C10   C13   A    
C58   H24   S    
C41   H15   S    
C6    C8    A    
C44   C47   A    
C63   H10   S    
C24   C46   A    
C14   C22   S    
O20   S4    D    
C47   C58   S    
C55   H16   S    
C15   C28   S    
O21   S4    S    
C56   H2    S    
C57   H21   S    
C30   C39   S    
C59   H28   S    
O22   Zn2   S    
C58   H25   S    
C27   C64   A    
C4    S2    S    
C60   H31   S    
C19   C41   A    
O27   Zn1   S    
C7    C20   A    
C31   C45   A    
C35   C63   A    
C51   C60   S    
C38   O3    A    
C36   O7    A    
C32   C56   A    
C4    C30   A    
C27   C49   A    
C60   H30   S    
