data_mof_unit_47794.cif
_audit_creation_date              2013-03-05T15:48:55-0500
_audit_creation_method            fapswitch 2.2
_symmetry_space_group_name_H-M    P1
_symmetry_Int_Tables_number       1
_space_group_crystal_system       triclinic
_cell_length_a                    6.963052
_cell_length_b                    13.720425
_cell_length_c                    20.051555
_cell_angle_alpha                 103.987381
_cell_angle_beta                  90.90413
_cell_angle_gamma                 89.812778
_cell_volume                      1858.61343972

loop_
_atom_site_label
_atom_site_type_symbol
_atom_site_description
_atom_site_fract_x
_atom_site_fract_y
_atom_site_fract_z
_atom_type_partial_charge
O1    O     O_R   0.506780 0.600060 0.449950 -0.587192
O2    O     O_R   0.179840 0.597110 0.589410 -0.596690
O3    O     O_R   0.004570 0.399940 0.550050 -0.592215
C1    C     C_R   0.349123 0.619345 0.616671 0.942091
O4    O     O_R   0.177380 0.612160 0.452890 -0.606062
O5    O     O_R   0.002100 0.415100 0.412560 -0.601952
C2    C     C_R   0.344879 0.636023 0.434837 0.952175
O6    O     O_R   0.509250 0.584900 0.587440 -0.593041
O7    O     O_3   0.337570 0.435330 0.486930 -0.278164
V1    V     V_3+5 0.064650 0.512000 0.502430 1.167674
O8    O     O_R   0.672090 0.402890 0.410590 -0.601859
C3    C     C_R   0.838823 0.387418 0.381789 0.969242
O9    O     O_R   0.674540 0.387840 0.547110 -0.595650
C4    C     C_R   0.844477 0.361644 0.563697 0.927454
V2    V     V_3+5 0.564040 0.488000 0.497570 1.173371
O10   O     O_3   0.840990 0.564670 0.513070 -0.279189
C5    C     C_R   0.898052 0.112104 0.607606 -0.172825
H1    H     H_    0.893975 0.162092 0.514135 0.103739
H2    H     H_    0.921966 0.987535 0.689852 0.133508
H3    H     H_    0.918770 0.034290 0.580672 0.116841
C6    C     C_R   0.856550 0.285062 0.603067 -0.083774
C7    C     C_R   0.828646 0.315140 0.933151 -0.054940
C8    C     C_R   0.813095 0.390795 0.898211 0.009190
C9    C     C_R   0.823541 0.368269 0.826773 -0.215981
C10   C     C_R   0.849643 0.268123 0.788056 0.094400
C11   C     C_R   0.866103 0.190863 0.824344 0.100709
C12   C     C_R   0.859665 0.242036 0.714705 0.097669
C13   C     C_R   0.886482 0.139732 0.679582 0.187119
C14   C     C_R   0.901874 0.065611 0.716348 -0.251846
C15   C     C_R   0.891789 0.090542 0.787501 -0.209818
C16   C     C_R   0.844207 0.313789 0.674704 -0.240229
C17   C     C_R   0.883804 0.184466 0.569615 -0.174653
C18   C     C_R   0.855499 0.215560 0.897021 -0.197336
H4    H     H_    0.823546 0.392648 0.697322 0.101024
H5    H     H_    0.819755 0.334279 0.988718 0.142038
H6    H     H_    0.810403 0.431149 0.803659 0.119992
H7    H     H_    0.792581 0.467766 0.926751 0.139565
H8    H     H_    0.904441 0.030078 0.813418 0.128952
C19   C     C_3   0.722985 0.186092 0.245818 -0.065101
C20   C     C_3   0.889483 0.209934 0.298905 -0.214239
H9    H     H_    0.920007 0.169366 0.339592 0.122912
H10   H     H_    0.615429 0.131833 0.253357 0.180466
C21   C     C_3   0.844873 0.321730 0.310761 -0.173766
C22   C     C_3   0.677976 0.299473 0.258260 -0.078965
C23   C     C_3   0.818047 0.307178 0.200148 -0.116551
C24   C     C_3   0.984602 0.331831 0.254223 -0.095329
C25   C     C_3   0.027018 0.218863 0.241630 0.315891
C26   C     C_3   0.863294 0.193531 0.187836 -0.156787
H11   H     H_    0.533802 0.334792 0.265516 0.172599
H12   H     H_    0.788040 0.347770 0.159472 0.181628
H13   H     H_    0.092241 0.392608 0.260199 0.173596
C27   C     C_3   0.530302 0.749472 0.723684 0.329634
C28   C     C_3   0.404042 0.843973 0.746639 -0.151158
H14   H     H_    0.443784 0.921221 0.743921 0.125875
C29   C     C_3   0.356519 0.810885 0.812834 -0.154564
C30   C     C_3   0.486061 0.717264 0.790598 -0.186600
C31   C     C_3   0.309857 0.658374 0.753831 0.303402
C32   C     C_3   0.180152 0.751571 0.777235 -0.115019
C33   C     C_3   0.228265 0.783507 0.710017 -0.220115
C34   C     C_3   0.356941 0.689584 0.687214 -0.154029
H15   H     H_    0.592175 0.689528 0.823596 0.122874
H16   H     H_    0.036954 0.751373 0.800710 0.130521
H17   H     H_    0.125639 0.811417 0.676036 0.139855
C35   C     C_R   0.455848 0.876739 0.391013 -0.139721
H18   H     H_    0.439931 0.828349 0.484395 0.106521
H19   H     H_    0.543077 0.991466 0.309735 0.141308
H20   H     H_    0.502572 0.951542 0.417625 0.116642
C36   C     C_R   0.355453 0.711790 0.395937 -0.121111
C37   C     C_R   0.318059 0.683673 0.066046 -0.354651
C38   C     C_R   0.331892 0.603408 0.097307 0.350065
C39   C     C_R   0.368921 0.621769 0.168923 0.224508
C40   C     C_R   0.381752 0.722880 0.209592 -0.118541
C41   C     C_R   0.403941 0.800864 0.174328 -0.047306
C42   C     C_R   0.384725 0.749876 0.283666 0.146846
C43   C     C_R   0.440432 0.848628 0.319152 0.147934
C44   C     C_R   0.488295 0.918260 0.282937 -0.360131
C45   C     C_R   0.473340 0.894992 0.212148 0.350337
C46   C     C_R   0.329829 0.684207 0.324388 -0.155241
C47   C     C_R   0.418168 0.807629 0.429118 -0.180797
C48   C     C_R   0.363164 0.781073 0.102294 -0.207379
H21   H     H_    0.268396 0.611341 0.302153 0.143545
H22   H     H_    0.289076 0.668722 0.011202 0.158897
O11   O     O_R   0.203580 0.914920 0.912610 -0.611963
O12   O     O_R   0.535710 0.887810 0.047120 -0.552095
O13   O     O_R   0.710730 0.084950 0.087430 -0.518930
C49   C     C_R   0.367695 0.859120 0.062504 1.046710
O14   O     O_R   0.533010 0.902850 0.910600 -0.611841
O15   O     O_R   0.708010 0.100090 0.949930 -0.601738
C50   C     C_R   0.363836 0.880911 0.883267 0.910256
O16   O     O_R   0.206300 0.899780 0.050100 -0.578282
O17   O     O_3   0.375170 0.064580 0.013100 -0.246525
V3    V     V_3+5 0.648200 0.988020 0.997570 1.246953
O18   O     O_R   0.038030 0.112330 0.952840 -0.592527
C51   C     C_R   0.868001 0.138420 0.936267 0.911629
O19   O     O_R   0.040730 0.097300 0.089360 -0.585672
C52   C     C_R   0.872531 0.120922 0.116816 1.034926
V4    V     V_3+5 0.148780 0.012220 0.002360 1.236848
O20   O     O_3   0.871930 0.935430 0.986900 -0.286314
C53   C     C_3   0.225454 0.175917 0.239581 -0.895731
H23   H     H_    0.303140 0.211177 0.288097 0.213829
H24   H     H_    0.212162 0.094306 0.235810 0.271759
H25   H     H_    0.301920 0.191872 0.195292 0.288881
C54   C     C_3   0.728182 0.752505 0.693770 -1.012594
H26   H     H_    0.812916 0.812807 0.728415 0.238897
H27   H     H_    0.801022 0.679045 0.688694 0.263713
H28   H     H_    0.715369 0.769554 0.642528 0.250597
C55   C     C_3   0.255577 0.552840 0.758193 -1.027865
H29   H     H_    0.229354 0.552091 0.812519 0.266036
H30   H     H_    0.123161 0.528551 0.727151 0.249445
H31   H     H_    0.374120 0.500137 0.738121 0.252159
N1    N     N_R   0.420006 0.538502 0.197291 0.231321
O21   O     O_R   0.582179 0.539320 0.230599 -0.424683
O22   O     O_R   0.312909 0.458507 0.185327 -0.424173
N2    N     N_R   0.321910 0.503066 0.054440 0.255238
O23   O     O_R   0.197850 0.481639 0.003778 -0.423237
O24   O     O_R   0.458491 0.439151 0.057354 -0.372567
N3    N     N_R   0.564368 0.961640 0.179382 0.203646
O25   O     O_R   0.462885 0.028090 0.158311 -0.458817
O26   O     O_R   0.750437 0.959291 0.174349 -0.439378

loop_
_geom_bond_atom_site_label_1
_geom_bond_atom_site_label_2
_geom_bond_distance
_ccdc_geom_bond_type
C22   H11   1.109569 S    
C32   H16   1.109602 S    
C20   C25   1.534466 S    
C29   C30   1.546178 S    
C27   C54   1.516081 S    
C41   C48   1.427804 A    
O18   C51   1.297132 A    
H18   C47   1.083961 S    
O19   C52   1.308203 A    
C1    O6    1.301286 A    
C18   C51   1.465240 S    
V4    O20   2.181464 S    
C28   C33   1.552192 S    
V3    O20   1.709339 S    
C23   C24   1.555859 S    
C38   N2    1.437268 S    
C7    H5    1.083907 S    
C6    C16   1.398594 A    
C9    H6    1.076533 S    
C4    C6    1.460349 S    
C13   C14   1.395862 A    
O12   C49   1.300720 A    
C3    C21   1.491164 S    
C45   N3    1.406064 S    
N3    O26   1.300806 A    
O5    C3    1.298041 A    
O13   C52   1.304678 A    
V2    O10   2.181345 S    
C5    H3    1.083995 S    
C25   C53   1.497593 S    
C30   C31   1.546499 S    
C15   H8    1.082835 S    
C48   C49   1.482656 S    
C37   H22   1.084624 S    
C27   C34   1.534677 S    
C2    C36   1.445252 S    
O8    V2    2.005649 S    
C54   H27   1.110022 S    
C20   C21   1.526027 S    
C25   C26   1.538334 S    
C39   N1    1.435412 S    
C55   H29   1.109835 S    
C38   C39   1.416305 A    
O1    V2    2.031831 S    
O7    V1    2.159182 S    
O16   V4    2.038266 S    
C36   C47   1.390723 A    
C33   C34   1.546938 S    
O9    C4    1.297129 A    
C55   H30   1.110056 S    
O13   V3    2.006360 S    
N2    O23   1.301610 A    
C19   H10   1.095248 S    
C28   C29   1.543868 S    
C36   C46   1.401159 A    
O11   C50   1.301413 A    
C6    C17   1.394888 A    
O15   C51   1.294524 A    
C42   C43   1.421695 A    
C12   C16   1.415074 A    
C35   H20   1.084379 S    
O15   V3    2.043800 S    
C9    C10   1.418055 A    
C40   C42   1.441123 A    
C49   O16   1.300064 A    
C19   C20   1.542532 S    
O4    C2    1.292915 A    
C31   C34   1.538295 S    
C10   C11   1.426767 A    
C8    H7    1.082885 S    
C24   H13   1.106528 S    
O17   V4    1.723167 S    
O2    C1    1.297174 A    
C43   C44   1.377048 A    
C14   C15   1.387302 A    
C11   C18   1.417219 A    
C53   H23   1.109337 S    
C8    C9    1.393494 A    
H19   C44   1.085460 S    
C1    C34   1.507129 S    
C16   H4    1.077441 S    
N1    O22   1.300282 A    
C44   C45   1.379856 A    
O3    C4    1.294822 A    
C20   H9    1.110785 S    
C53   H24   1.107989 S    
C11   C15   1.408311 A    
O6    V2    2.005158 S    
O14   C50   1.296455 A    
C21   C22   1.536326 S    
O11   V4    2.005844 S    
C55   H31   1.109988 S    
H1    C17   1.083562 S    
O2    V1    2.006540 S    
O18   V4    2.023739 S    
O17   V3    2.159202 S    
C27   C28   1.543615 S    
C23   C26   1.550711 S    
C7    C18   1.396654 A    
C24   C25   1.537390 S    
C26   C52   1.530110 S    
N1    O21   1.301534 A    
C31   C55   1.520860 S    
O1    C2    1.289975 A    
C5    C13   1.404317 A    
C7    C8    1.388698 A    
C22   C23   1.554453 S    
C40   C41   1.427919 A    
O5    V1    2.006354 S    
N2    O24   1.301714 A    
O8    C3    1.298735 A    
O19   V4    2.005790 S    
C28   H14   1.110496 S    
C19   C22   1.546646 S    
C10   C12   1.429980 A    
C33   H17   1.109293 S    
O9    V2    2.023900 S    
C32   C33   1.556138 S    
O4    V1    2.045236 S    
C29   C50   1.504106 S    
O3    V1    2.043823 S    
V1    O10   1.709299 S    
N3    O25   1.296785 A    
C46   H21   1.078224 S    
C31   C32   1.544893 S    
C23   H12   1.110173 S    
C35   C47   1.382015 A    
C35   C43   1.401165 A    
C54   H28   1.109762 S    
O7    V2    1.725320 S    
C37   C38   1.395026 A    
C21   C24   1.537101 S    
C39   C40   1.431502 A    
C53   H25   1.108925 S    
C42   C46   1.411539 A    
C29   C32   1.542075 S    
C54   H26   1.107991 S    
C5    C17   1.392283 A    
C41   C45   1.412650 A    
C30   H15   1.110420 S    
C37   C48   1.392404 A    
O12   V3    2.045252 S    
O14   V3    2.006702 S    
C27   C30   1.546272 S    
C19   C26   1.552564 S    
C12   C13   1.423262 A    
H2    C14   1.084263 S    
