data_mof_unit_32138.cif
_audit_creation_date              2012-10-26T19:21:51-0400
_audit_creation_method            fapswitch 2.2
_symmetry_space_group_name_H-M    P1
_symmetry_Int_Tables_number       1
_space_group_crystal_system       triclinic
_cell_length_a                    23.442635
_cell_length_b                    11.030444
_cell_length_c                    9.915511
_cell_angle_alpha                 111.363171
_cell_angle_beta                  97.334041
_cell_angle_gamma                 92.382439
_cell_volume                      2357.48348667

loop_
_atom_site_label
_atom_site_type_symbol
_atom_type_description
_atom_site_fract_x
_atom_site_fract_y
_atom_site_fract_z
_atom_type_partial_charge
C1    C     C_R   0.496300 0.254182 0.440402 0.593884
C2    C     C_R   0.703313 0.613091 0.489919 0.015098
C3    C     C_R   0.237378 0.393115 0.515988 -0.047087
C4    C     C_R   0.762622 0.606885 0.484013 -0.047087
C5    C     C_R   0.210384 0.502412 0.511016 0.211401
C6    C     C_R   0.789616 0.497588 0.488985 0.211401
C7    C     C_2   0.493591 0.114156 0.407103 -0.077321
C8    C     C_2   0.506409 0.885844 0.592897 -0.077321
C9    C     C_2   0.502061 0.069724 0.515834 -0.126279
C10   C     C_2   0.497939 0.930276 0.484166 -0.126279
C11   C     C_2   0.507664 0.504644 0.077964 0.130140
C12   C     C_R   0.503700 0.745818 0.559598 0.593884
C13   C     C_2   0.492336 0.495355 0.922036 0.130140
C14   C     C_R   0.391386 0.498540 0.501334 0.578690
C15   C     C_R   0.608614 0.501460 0.498666 0.578691
C16   C     C_R   0.885760 0.522996 0.621163 0.409439
C17   C     C_R   0.114240 0.477005 0.378838 0.409439
C18   C     C_R   0.872612 0.471478 0.362950 0.421672
C19   C     C_R   0.127388 0.528523 0.637051 0.421672
C20   C     C_R   0.933113 0.478024 0.363069 0.010011
C21   C     C_R   0.066887 0.521977 0.636932 0.010011
C22   C     C_R   0.969690 0.500286 0.497306 -0.043240
C23   C     C_R   0.242576 0.608190 0.502582 -0.041127
C24   C     C_R   0.030310 0.499715 0.502695 -0.043240
C25   C     C_R   0.945734 0.523436 0.626673 0.008439
C26   C     C_R   0.054266 0.476565 0.373328 0.008439
C27   C     C_R   0.958544 0.459560 0.234826 0.048103
C28   C     C_R   0.041456 0.540442 0.765175 0.048103
C29   C     C_R   0.018272 0.455376 0.241250 -0.107434
C30   C     C_R   0.981728 0.544626 0.758751 -0.107434
C31   C     C_2   0.925971 0.451332 0.093093 0.632921
C32   C     C_2   0.074029 0.548669 0.906908 0.632921
C33   C     C_2   0.322151 0.264383 0.505407 0.584740
C34   C     C_R   0.757424 0.391811 0.497419 -0.041127
C35   C     C_2   0.677849 0.735617 0.494593 0.584740
C36   C     C_2   0.436977 0.421911 0.839797 0.617267
C37   C     C_2   0.563023 0.578088 0.160203 0.617267
C38   C     C_R   0.301711 0.604993 0.499545 -0.142541
C39   C     C_R   0.698289 0.395007 0.500455 -0.142541
C40   C     C_R   0.329178 0.495716 0.503915 0.005014
C41   C     C_R   0.670822 0.504284 0.496085 0.005014
C42   C     C_R   0.296687 0.386909 0.510081 0.015099
Cu1   Cu    Cu3+1 0.509980 0.521810 0.644910 1.064710
Cu2   Cu    Cu3+1 0.490020 0.478190 0.355090 1.064710
H1    H     H_    0.562967 0.607251 0.923351 0.230862
H2    H     H_    0.788731 0.688668 0.480277 0.179713
H3    H     H_    0.487928 0.863546 0.370402 0.191187
H4    H     H_    0.512072 0.136454 0.629597 0.191187
H5    H     H_    0.515967 0.952960 0.706557 0.121410
H6    H     H_    0.484033 0.047040 0.293443 0.121410
H7    H     H_    0.909570 0.355005 0.873935 0.356781
H8    H     H_    0.090430 0.644996 0.126066 0.356781
H9    H     H_    0.315898 0.100000 0.549634 0.356914
H10   H     H_    0.684102 0.900002 0.450369 0.356914
H11   H     H_    0.350210 0.421250 0.808923 0.354315
H12   H     H_    0.437033 0.392750 0.076649 0.230862
H13   H     H_    0.649790 0.578749 0.191077 0.354314
H14   H     H_    0.036918 0.439771 0.142331 0.201747
H15   H     H_    0.963082 0.560231 0.857670 0.201746
H16   H     H_    0.221668 0.692627 0.498061 0.148974
H17   H     H_    0.778332 0.307374 0.501940 0.148974
H18   H     H_    0.326225 0.688016 0.493809 0.124588
H19   H     H_    0.673775 0.311984 0.506191 0.124588
H20   H     H_    0.211269 0.311333 0.519723 0.179712
N1    N     N_R   0.850805 0.496725 0.490906 -0.403014
N2    N     N_R   0.149195 0.503276 0.509095 -0.403014
N3    N     N_2   0.475010 0.445410 0.137370 -0.372668
N4    N     N_2   0.524990 0.554590 0.862630 -0.372669
O1    O     O_R   0.505330 0.332340 0.577400 -0.471014
O2    O     O_2   0.137670 0.451838 0.255004 -0.451067
O3    O     O_2   0.835496 0.436701 0.236659 -0.420829
O4    O     O_2   0.164504 0.563299 0.763342 -0.420829
O5    O     O_2   0.895131 0.536804 0.088068 -0.418963
O6    O     O_R   0.933398 0.349579 0.964025 -0.675771
O7    O     O_2   0.104868 0.463196 0.911933 -0.418963
O8    O     O_R   0.066603 0.650423 0.035976 -0.675771
O9    O     O_2   0.366238 0.235018 0.452363 -0.490016
O10   O     O_R   0.294658 0.180231 0.559021 -0.683346
O11   O     O_2   0.633761 0.764981 0.547633 -0.490015
O12   O     O_R   0.494670 0.667660 0.422600 -0.471013
O13   O     O_R   0.705343 0.819772 0.440983 -0.683346
O14   O     O_2   0.435166 0.305933 0.763756 -0.503967
O15   O     O_R   0.386064 0.483072 0.861829 -0.681635
O16   O     O_2   0.564834 0.694066 0.236244 -0.503966
O17   O     O_R   0.613936 0.516927 0.138171 -0.681634
O18   O     O_R   0.488470 0.295500 0.332650 -0.488187
O19   O     O_R   0.511530 0.704500 0.667350 -0.488188
O20   O     O_R   0.426310 0.518390 0.622390 -0.463130
O21   O     O_R   0.573690 0.481610 0.377610 -0.463129
O22   O     O_R   0.409450 0.481550 0.377650 -0.489387
O23   O     O_R   0.590550 0.518450 0.622350 -0.489387
O24   O     O_2   0.862330 0.548163 0.744997 -0.451068

loop_
_geom_bond_atom_site_label_1
_geom_bond_atom_site_label_2
_ccdc_geom_bond_type
C2    C35   S    
C3    C42   A    
C17   C26   A    
C16   C25   A    
C27   C29   A    
H7    O6    S    
C32   O7    D    
C35   O13   S    
C39   C41   A    
C4    H2    S    
C3    H20   S    
C18   N1    A    
C17   N2    A    
C33   C42   S    
C37   O17   S    
C19   C21   A    
C24   C26   A    
C33   O10   S    
C31   O5    D    
C2    C41   A    
C18   O3    S    
C19   N2    A    
C11   C37   S    
C14   O22   A    
C6    N1    S    
C36   O14   D    
Cu1   N4    S    
C22   C25   A    
C37   O16   D    
C9    C10   S    
C40   C42   A    
C17   O2    S    
Cu1   O1    S    
C19   O4    S    
Cu2   O18   S    
C11   N3    D    
C23   H16   S    
C27   C31   S    
C34   C39   A    
C28   C32   S    
C15   C41   S    
C13   C36   S    
C4    C6    A    
C31   O6    S    
C3    C5    A    
C14   C40   S    
C34   H17   S    
Cu1   O23   S    
C6    C34   A    
C2    C4    A    
Cu1   Cu2   S    
C15   O21   A    
C5    C23   A    
Cu2   O12   S    
C8    C12   S    
C30   H15   S    
H1    N4    S    
C9    H4    S    
C21   C28   A    
C20   C22   A    
C16   O24   S    
C22   C24   A    
Cu1   O20   S    
H11   O15   S    
C23   C38   A    
Cu2   O22   S    
C25   C30   A    
C7    C9    D    
C12   O19   A    
C1    C7    S    
C7    H6    S    
C5    N2    S    
H8    O8    S    
C32   O8    S    
C20   C27   A    
H12   N3    S    
C39   H19   S    
Cu1   O19   S    
C28   C30   A    
H9    O10   S    
C14   O20   A    
C38   C40   A    
C11   C13   S    
C33   O9    D    
C12   O12   A    
C35   O11   D    
H13   O17   S    
C18   C20   A    
C1    O1    A    
C15   O23   A    
C1    O18   A    
C29   H14   S    
C26   C29   A    
C8    C10   D    
C21   C24   A    
C10   H3    S    
Cu2   N3    S    
C16   N1    A    
C36   O15   S    
C8    H5    S    
H10   O13   S    
Cu2   O21   S    
C38   H18   S    
C13   N4    D    
