data_mof_unit_36477.cif
_audit_creation_date              2012-12-11T18:04:51-0500
_audit_creation_method            fapswitch 2.2
_symmetry_space_group_name_H-M    P1
_symmetry_Int_Tables_number       1
_space_group_crystal_system       triclinic
_cell_length_a                    8.321042
_cell_length_b                    12.779013
_cell_length_c                    22.828615
_cell_angle_alpha                 96.950276
_cell_angle_beta                  89.733164
_cell_angle_gamma                 98.001327
_cell_volume                      2385.99426239

loop_
_atom_site_label
_atom_site_type_symbol
_atom_type_description
_atom_site_fract_x
_atom_site_fract_y
_atom_site_fract_z
_atom_type_partial_charge
Ba1   Ba    Ba6+2 0.856210 0.551220 0.472190 1.723427
Ba2   Ba    Ba6+2 0.333620 0.448870 0.527810 1.688446
C1    C     C_3   0.702422 0.938757 0.328760 0.210436
C2    C     C_3   0.687224 0.827433 0.346664 0.358701
C3    C     C_3   0.477137 0.291081 0.349124 0.350692
C4    C     C_3   0.451935 0.259896 0.282840 0.252313
C5    C     C_3   0.987192 0.173263 0.685761 0.367072
C6    C     C_3   0.007173 0.128678 0.744346 -0.086833
C7    C     C_3   0.465589 0.182744 0.700300 0.390748
C8    C     C_3   0.586136 0.166147 0.748091 -0.125630
C9    C     C_R   0.337785 0.531947 0.333969 0.114511
C10   C     C_R   0.116345 0.581946 0.939200 -0.027834
C11   C     C_R   0.072226 0.577005 0.878732 0.595494
C12   C     C_3   0.196344 0.804803 0.314633 0.400000
C13   C     C_R   0.964280 0.392184 0.876933 0.566283
C14   C     C_R   0.006683 0.394797 0.937087 -0.016915
C15   C     C_R   0.082622 0.490263 0.968444 -0.050916
C16   C     C_R   0.192355 0.676836 0.971392 -0.074549
C17   C     C_R   0.233681 0.680527 0.031086 -0.062108
C18   C     C_R   0.200520 0.589439 0.060774 -0.018227
C19   C     C_R   0.124693 0.494010 0.029328 -0.053981
C20   C     C_R   0.974370 0.303535 0.966645 -0.075256
C21   C     C_R   0.016029 0.307171 0.026237 -0.068149
C22   C     C_R   0.091270 0.402217 0.058464 -0.031445
C23   C     C_3   0.198161 0.846563 0.254270 0.380466
C24   C     C_R   0.134678 0.407162 0.118926 0.602525
C25   C     C_R   0.241619 0.592039 0.121137 0.584280
C26   C     C_2   0.798082 0.430511 0.767055 -0.096487
C27   C     C_3   0.765333 0.394431 0.702199 -0.080579
C28   C     C_1   0.011730 0.515695 0.683372 0.043476
C29   C     C_2   0.061546 0.520214 0.739467 -0.105345
C30   C     C_2   0.947474 0.478194 0.785630 0.202624
C31   C     C_R   0.411808 0.550377 0.232320 -0.150296
C32   C     C_R   0.453666 0.562866 0.292444 -0.056784
C33   C     C_R   0.185119 0.478971 0.315529 0.042134
C34   C     C_3   0.274953 0.787154 0.623020 0.752136
C35   C     C_R   0.141711 0.467715 0.254941 -0.159919
C36   C     C_R   0.253289 0.506570 0.212627 0.202584
C37   C     C_2   0.874406 0.458268 0.662618 -0.256036
C38   C     C_R   0.765608 0.178152 0.518791 -0.243634
C39   C     C_R   0.428246 0.813601 0.480640 -0.266253
C40   C     C_R   0.405850 0.989529 0.457938 -0.077123
C41   C     C_R   0.340950 0.882784 0.456258 0.018441
C42   C     C_R   0.574219 0.850485 0.511029 0.067013
C43   C     C_R   0.638606 0.961276 0.516765 -0.059614
C44   C     C_R   0.554038 0.030564 0.487639 -0.121591
C45   C     C_3   0.379843 0.855026 0.672348 0.021636
C46   C     C_R   0.618265 0.139612 0.489994 0.111652
C47   C     C_R   0.852472 0.111871 0.545893 -0.080736
C48   C     C_R   0.784989 0.005106 0.548818 0.341799
C49   C     C_3   0.989273 0.212665 0.393739 0.600218
C50   C     C_3   0.066273 0.111047 0.385595 -0.279025
C51   C     C_3   0.720690 0.684253 0.644821 0.299499
C52   C     C_3   0.765329 0.714453 0.710029 -0.349659
H1    H     H_    0.786284 0.825943 0.378784 0.047761
H2    H     H_    0.449940 0.802981 0.695011 0.023454
H3    H     H_    0.467527 0.914775 0.652601 0.066913
H4    H     H_    0.024836 0.254412 0.438306 0.044007
H5    H     H_    0.024525 0.062543 0.343647 0.143053
H6    H     H_    0.035161 0.064670 0.423049 0.094255
H7    H     H_    0.199055 0.130997 0.382498 0.108315
H8    H     H_    0.824783 0.654015 0.621470 0.029635
H9    H     H_    0.614515 0.620980 0.640318 0.070033
H10   H     H_    0.715167 0.995704 0.369793 -0.006610
H11   H     H_    0.873536 0.776426 0.715242 0.151490
H12   H     H_    0.791856 0.644190 0.729853 0.066026
H13   H     H_    0.663627 0.745020 0.734788 0.111272
H14   H     H_    0.569016 0.810567 0.368717 -0.058097
H15   H     H_    0.365123 0.319342 0.367392 -0.112519
H16   H     H_    0.581088 0.356019 0.356526 0.010345
H17   H     H_    0.347085 0.195667 0.274942 0.129740
H18   H     H_    0.423220 0.329106 0.261658 -0.058253
H19   H     H_    0.812296 0.953429 0.301820 0.115789
H20   H     H_    0.304298 0.820731 0.229783 0.131707
H21   H     H_    0.004047 0.262732 0.692939 0.015691
H22   H     H_    0.860687 0.142833 0.669109 -0.068973
H23   H     H_    0.897259 0.133634 0.771794 0.101424
H24   H     H_    0.021163 0.043068 0.735404 0.137750
H25   H     H_    0.357505 0.123063 0.703914 0.136182
H26   H     H_    0.699800 0.220087 0.745011 0.099664
H27   H     H_    0.615595 0.083310 0.740295 0.065556
H28   H     H_    0.148062 0.718649 0.309752 -0.037020
H29   H     H_    0.988696 0.234994 0.047042 0.132228
H30   H     H_    0.916370 0.228593 0.943736 0.126666
H31   H     H_    0.291839 0.755400 0.053998 0.131856
H32   H     H_    0.502266 0.576252 0.200945 0.131899
H33   H     H_    0.220075 0.748911 0.950527 0.123594
H34   H     H_    0.185781 0.552570 0.751975 0.122442
H35   H     H_    0.708660 0.403542 0.798665 0.109646
H36   H     H_    0.021784 0.428873 0.240963 0.134499
H37   H     H_    0.323378 0.814452 0.330590 -0.067892
H38   H     H_    0.852059 0.439941 0.615499 0.074008
H39   H     H_    0.337719 0.039597 0.436570 0.087987
H40   H     H_    0.816205 0.260837 0.518529 0.063709
H41   H     H_    0.377708 0.730442 0.478244 0.105842
H42   H     H_    0.352133 0.736018 0.596074 -0.108437
N1    N     N_R   0.996460 0.482745 0.847886 -0.423281
N2    N     N_R   0.207810 0.501811 0.150174 -0.419728
O1    O     O_2   0.890290 0.440320 0.360790 -0.465076
O2    O     O_3   0.682329 0.774327 0.621757 -0.601453
O3    O     O_3   0.101509 0.862137 0.354228 -0.611770
O4    O     O_2   0.299410 0.559720 0.639240 -0.477633
O5    O     O_3   0.058870 0.558650 0.568170 -0.492299
O6    O     O_3   0.517310 0.362160 0.604450 -0.450013
O7    O     O_3   0.143477 0.729412 0.648862 -0.653332
O8    O     O_3   0.614910 0.369290 0.471050 -0.480511
O9    O     O_3   0.099190 0.306290 0.575790 -0.479196
O10   O     O_2   0.184575 0.118307 0.536264 -0.477018
O11   O     O_3   0.103408 0.137338 0.645576 -0.577162
O12   O     O_3   0.130840 0.441440 0.431840 -0.450836
O13   O     O_3   0.574800 0.630800 0.528960 -0.499563
O14   O     O_2   0.344900 0.234690 0.472540 -0.484356
O15   O     O_3   0.508066 0.201926 0.375081 -0.607865
O16   O     O_2   0.482655 0.488376 0.704093 -0.493553
O17   O     O_3   0.413731 0.284762 0.710453 -0.558991
O18   O     O_2   0.098958 0.657229 0.854006 -0.603535
O19   O     O_2   0.898867 0.308429 0.850351 -0.619828
O20   O     O_2   0.109702 0.326560 0.143341 -0.581081
O21   O     O_2   0.307339 0.675363 0.147866 -0.614020
O22   O     O_3   0.672400 0.637930 0.395560 -0.470002
O23   O     O_2   0.793659 0.564541 0.292245 -0.499451
O24   O     O_3   0.040718 0.271634 0.347898 -0.659062
O25   O     O_3   0.701704 0.753141 0.296978 -0.596313
O26   O     O_2   0.844800 0.765340 0.527490 -0.419227
O27   O     O_3   0.090520 0.693800 0.424220 -0.457551
O28   O     O_2   0.006823 0.882887 0.462932 -0.493690
P1    P     P_3+3 0.057140 0.408270 0.369700 1.043476
P2    P     P_3+3 0.667360 0.749400 0.544670 1.043717
P3    P     P_3+3 0.136580 0.831659 0.425283 0.954569
P4    P     P_3+3 0.132580 0.591820 0.630310 0.967849
P5    P     P_3+3 0.057328 0.168501 0.575586 0.971899
P6    P     P_3+3 0.656968 0.625791 0.318581 0.981850
P7    P     P_3+3 0.524998 0.235536 0.451656 1.002650
P8    P     P_3+3 0.546958 0.383577 0.681012 0.983406
N3    N     N_3   0.279380 0.909922 0.715661 -0.462852
H43   H     H_    0.360029 0.961845 0.744795 0.147598
H44   H     H_    0.221143 0.853390 0.741700 0.203289
O29   O     O_3   0.821629 0.186772 0.390016 -0.783553
H45   H     H_    0.792187 0.166596 0.347626 0.346349
O30   O     O_3   0.567310 0.951318 0.295316 -0.670181
H46   H     H_    0.491325 0.984210 0.323227 0.332256
O31   O     O_3   0.590270 0.222840 0.257419 -0.666896
H47   H     H_    0.673900 0.286152 0.256589 0.303661
N4    N     N_3   0.147463 0.186405 0.777676 -0.481053
H48   H     H_    0.145220 0.160053 0.819334 0.185228
H49   H     H_    0.135607 0.267156 0.784479 0.222435
N5    N     N_3   0.530457 0.160583 0.640923 -0.522750
H50   H     H_    0.434521 0.152666 0.610769 0.225822
H51   H     H_    0.571987 0.086728 0.636502 0.120839
N6    N     N_3   0.523714 0.184559 0.807838 -0.460261
H52   H     H_    0.426136 0.126085 0.813005 0.184545
H53   H     H_    0.482800 0.258655 0.814556 0.215466
O32   O     O_3   0.372944 0.553557 0.393158 -0.706003
H54   H     H_    0.444421 0.501448 0.401931 0.303224
O33   O     O_3   0.851286 0.947229 0.587153 -0.694267
H55   H     H_    0.969872 0.967895 0.589858 0.351105
N7    N     N_3   0.050534 0.803901 0.219969 -0.467475
H56   H     H_    0.950884 0.827127 0.243265 0.233878
H57   H     H_    0.037632 0.720827 0.215047 0.170587
O34   O     O_3   0.215593 0.958112 0.261809 -0.704221
H58   H     H_    0.236153 0.981216 0.222214 0.338346
O35   O     O_3   0.215060 0.855054 0.587177 -0.741299
H59   H     H_    0.150262 0.807452 0.555522 0.303844

loop_
_geom_bond_atom_site_label_1
_geom_bond_atom_site_label_2
_ccdc_geom_bond_type
C6    H24   S    
C25   N2    Am   
N7    H56   S    
O25   P6    S    
C40   H39   S    
N5    H50   S    
Ba1   P2    S    
O14   P7    D    
C36   N2    S    
Ba1   O1    S    
N3    H43   S    
C52   H11   S    
C1    H10   S    
C4    H18   S    
C47   P5    S    
Ba2   O14   S    
C35   C36   A    
C21   H29   S    
C35   H36   S    
C43   C48   A    
C26   C27   S    
N5    H51   S    
C22   C24   A    
C23   H20   S    
C50   H7    S    
C40   C44   A    
C3    C4    S    
C41   P3    S    
Ba2   O4    S    
C38   C47   A    
Ba2   O9    S    
C30   N1    S    
C34   C45   S    
N3    H44   S    
C16   C17   A    
C7    H25   S    
O24   P1    S    
O10   P5    D    
C3    H15   S    
C50   H6    S    
O8    P7    S    
Ba2   O12   S    
C17   C18   A    
C14   C15   A    
C10   C15   A    
O11   P5    S    
C21   C22   A    
C26   H35   S    
C4    O31   S    
C7    C8    S    
Ba1   O5    S    
O12   P1    S    
O26   P2    D    
C3    O15   S    
C27   P8    S    
C32   P6    S    
N7    H57   S    
O15   P7    S    
C34   O35   S    
C39   C41   A    
C13   N1    Am   
C26   C30   D    
O22   P6    S    
C20   C21   A    
C51   O2    S    
C4    H17   S    
C44   C46   A    
Ba2   O13   S    
C49   C50   S    
C7    O17   S    
Ba1   P1    S    
C46   P7    S    
C5    C6    S    
O30   H46   S    
O9    P5    S    
C2    H14   S    
C8    H26   S    
C12   O3    S    
C5    H21   S    
C52   H13   S    
O28   P3    D    
C43   C44   A    
C7    N5    S    
C15   C19   A    
C5    O11   S    
C2    O25   S    
Ba1   O22   S    
C20   H30   S    
C31   H32   S    
C3    H16   S    
C50   H5    S    
O27   P3    S    
Ba1   O12   S    
C45   H3    S    
C51   H8    S    
C34   H42   S    
C29   C30   S    
Ba2   O6    S    
C48   O33   S    
C27   C37   S    
C23   O34   S    
C31   C32   A    
O16   P8    D    
C6    N4    S    
C49   H4    S    
C10   C11   A    
C33   P1    S    
C5    H22   S    
O6    P8    S    
C24   N2    Am   
N4    H49   S    
C18   C25   A    
C2    H1    S    
C23   N7    S    
C6    H23   S    
C39   C42   A    
N6    H53   S    
C40   C41   A    
C12   H28   S    
O23   P6    D    
C1    C2    S    
C37   H38   S    
O33   H55   S    
C42   C43   A    
C33   C35   A    
O35   H59   S    
C38   C46   A    
C42   P2    S    
C14   C20   A    
C29   H34   S    
C45   N3    S    
C34   O7    S    
O2    P2    S    
C9    C32   A    
C24   O20   D    
C38   H40   S    
N4    H48   S    
C17   H31   S    
O1    P1    D    
C51   C52   S    
O7    P4    S    
C52   H12   S    
O17   P8    S    
C25   O21   D    
Ba1   O8    S    
C8    H27   S    
C16   H33   S    
Ba1   O27   S    
O34   H58   S    
C9    C33   A    
Ba1   O26   S    
C28   P4    S    
C8    N6    S    
C51   H9    S    
C28   C29   D    
C39   H41   S    
Ba2   O5    S    
Ba1   Ba2   S    
Ba2   P4    S    
Ba2   O8    S    
C28   C37   D    
C12   C23   S    
C11   N1    Am   
C1    H19   S    
O5    P4    S    
C12   H37   S    
C11   O18   D    
O29   H45   S    
C9    O32   S    
C49   O29   S    
C13   O19   D    
C18   C19   A    
C47   C48   A    
C19   C22   A    
C10   C16   A    
O13   P2    S    
O31   H47   S    
C49   O24   S    
N6    H52   S    
C31   C36   A    
C1    O30   S    
O32   H54   S    
Ba1   O13   S    
C13   C14   A    
O3    P3    S    
C45   H2    S    
O4    P4    D    
