data_mof_unit_62809.cif
_audit_creation_date              2012-10-26T20:09:14-0400
_audit_creation_method            fapswitch 2.2
_symmetry_space_group_name_H-M    P1
_symmetry_Int_Tables_number       1
_space_group_crystal_system       triclinic
_cell_length_a                    12.745393
_cell_length_b                    13.894208
_cell_length_c                    15.893972
_cell_angle_alpha                 90.308624
_cell_angle_beta                  92.951368
_cell_angle_gamma                 97.493587
_cell_volume                      2786.6701401

loop_
_atom_site_label
_atom_site_type_symbol
_atom_type_description
_atom_site_fract_x
_atom_site_fract_y
_atom_site_fract_z
_atom_type_partial_charge
Br1   Br    Br    0.286463 0.554716 0.888983 -0.445727
Br2   Br    Br    0.706815 0.650155 0.909773 -0.496243
Br3   Br    Br    0.608482 0.037362 0.389954 -0.480141
Br4   Br    Br    0.036800 0.563391 0.634623 -0.455518
Br5   Br    Br    0.672344 0.367541 0.113162 -0.381131
Br6   Br    Br    0.439229 0.295846 0.077536 -0.513489
Br7   Br    Br    0.726656 0.598178 0.102756 -0.394250
C1    C     C_R   0.484098 0.315959 0.500384 0.557039
C2    C     C_2   0.527697 0.975724 0.478475 0.179591
C3    C     C_2   0.472509 0.024222 0.530410 0.281513
C4    C     C_R   0.500484 0.499767 0.339962 0.551867
C5    C     C_1   0.473713 0.127587 0.518286 -0.017798
C6    C     C_1   0.526640 0.873005 0.486928 0.054080
C7    C     C_1   0.477043 0.213475 0.508814 0.000301
C8    C     C_2   0.028577 0.483613 0.467002 0.242518
C9    C     C_2   0.970349 0.515638 0.528650 0.132193
C10   C     C_1   0.854085 0.515425 0.518872 0.252312
C11   C     C_1   0.145921 0.484347 0.479736 0.170933
C12   C     C_3   0.392399 0.486236 0.948224 0.014475
C13   C     C_R   0.515922 0.684050 0.499923 0.540923
C14   C     C_R   0.499607 0.500249 0.660011 0.535660
C15   C     C_3   0.394432 0.506332 0.043948 -0.249161
C16   C     C_3   0.547459 0.405253 0.049484 0.292608
C17   C     C_3   0.565579 0.413487 0.950578 0.474242
C18   C     C_1   0.499504 0.501480 0.749375 -0.004951
C19   C     C_3   0.508792 0.501956 0.083114 -0.009613
C20   C     C_3   0.375781 0.033353 0.651233 -0.011516
C21   C     C_3   0.323138 0.971439 0.719819 -0.346081
C22   C     C_3   0.039250 0.433474 0.326804 -0.014181
C23   C     C_3   0.508879 0.503718 0.917277 0.035150
C24   C     C_3   0.971245 0.405346 0.246760 -0.299654
C25   C     C_3   0.565069 0.242184 0.920276 0.051918
C26   C     C_3   0.484678 0.153041 0.899660 -0.356598
C27   C     C_3   0.707688 0.420142 0.854022 0.030020
C28   C     C_3   0.813981 0.381197 0.855277 -0.326870
C29   C     C_3   0.595426 0.769300 0.087984 0.047432
C30   C     C_3   0.629154 0.812150 0.175100 -0.342632
C31   C     C_3   0.500652 0.724123 0.858659 0.045599
C32   C     C_3   0.544066 0.831228 0.869404 -0.379998
C33   C     C_3   0.565329 0.606491 0.954883 0.380604
C34   C     C_3   0.578584 0.598283 0.055637 0.425485
C35   C     C_1   0.502842 0.502964 0.824903 0.026959
C36   C     C_1   0.504404 0.500243 0.175304 0.093395
C37   C     C_1   0.501992 0.499789 0.250589 0.061800
C38   C     C_1   0.523108 0.786783 0.493786 0.012147
Cu1   Cu    Cu3+1 0.395330 0.493960 0.494700 1.040806
Cu2   Cu    Cu3+1 0.604670 0.506040 0.505300 1.059037
H1    H     H_    0.359608 0.408918 0.936642 0.208710
H2    H     H_    0.093474 0.500807 0.314106 0.143731
H3    H     H_    0.923892 0.464466 0.228835 0.217331
H4    H     H_    0.022688 0.392750 0.194559 0.123110
H5    H     H_    0.916643 0.337796 0.256879 0.199985
H6    H     H_    0.598234 0.236091 0.985378 0.215984
H7    H     H_    0.630095 0.238399 0.877570 0.122620
H8    H     H_    0.454389 0.155417 0.833038 0.141586
H9    H     H_    0.522764 0.086100 0.908844 0.096765
H10   H     H_    0.416894 0.150293 0.941014 0.212019
H11   H     H_    0.718675 0.491107 0.822748 0.190692
H12   H     H_    0.369009 0.578486 0.055896 0.230699
H13   H     H_    0.649812 0.373794 0.811944 0.133244
H14   H     H_    0.838023 0.372302 0.789799 0.124888
H15   H     H_    0.875369 0.432869 0.889808 0.219776
H16   H     H_    0.808739 0.309923 0.887018 0.150936
H17   H     H_    0.542892 0.817427 0.056524 0.173789
H18   H     H_    0.666038 0.770545 0.049737 0.191379
H19   H     H_    0.682045 0.766353 0.209228 0.197962
H20   H     H_    0.672245 0.886368 0.169045 0.137991
H21   H     H_    0.558327 0.816396 0.212176 0.178959
H22   H     H_    0.418921 0.720414 0.830218 0.197047
H23   H     H_    0.333993 0.453863 0.073206 0.164365
H24   H     H_    0.546146 0.690077 0.811900 0.154019
H25   H     H_    0.624741 0.839812 0.900451 0.182820
H26   H     H_    0.548343 0.866084 0.806762 0.117474
H27   H     H_    0.491216 0.868481 0.908259 0.146490
H28   H     H_    0.315246 0.073969 0.619849 0.152919
H29   H     H_    0.441082 0.085060 0.681608 0.124147
H30   H     H_    0.381713 0.930502 0.752969 0.153858
H31   H     H_    0.291297 0.018635 0.766206 0.111210
H32   H     H_    0.256971 0.919294 0.691745 0.194480
H33   H     H_    0.085944 0.373091 0.342768 0.148433
N1    N     N_1   0.238030 0.484880 0.486720 -0.187376
N2    N     N_1   0.761970 0.515120 0.513270 -0.177000
O1    O     O_R   0.399110 0.356330 0.494870 -0.494943
O2    O     O_3   0.972648 0.449193 0.392465 -0.562924
O3    O     O_3   0.515262 0.327291 0.906640 -0.576277
O4    O     O_3   0.677384 0.429948 0.938555 -0.495789
O5    O     O_3   0.536415 0.676257 0.096165 -0.545312
O6    O     O_3   0.495903 0.678640 0.938578 -0.521147
O7    O     O_R   0.575900 0.366540 0.503830 -0.480432
O8    O     O_R   0.411570 0.494900 0.374960 -0.507449
O9    O     O_R   0.588350 0.505100 0.383910 -0.468363
O10   O     O_R   0.424100 0.633460 0.496170 -0.482722
O11   O     O_R   0.600890 0.643670 0.505130 -0.488616
O12   O     O_R   0.411650 0.494900 0.616090 -0.464141
O13   O     O_R   0.588430 0.505100 0.625040 -0.507497
O14   O     O_3   0.415677 0.972450 0.592558 -0.564488

loop_
_geom_bond_atom_site_label_1
_geom_bond_atom_site_label_2
_ccdc_geom_bond_type
C26   H8    S    
C8    C11   S    
C13   O11   A    
C1    O1    A    
C24   H5    S    
C22   H2    S    
C13   O10   A    
C29   C30   S    
C10   N2    T    
C31   C32   S    
C32   H27   S    
Cu1   O10   S    
C14   O12   A    
Br6   C16   S    
C8    C9    D    
C30   H21   S    
C11   N1    T    
C27   C28   S    
C27   O4    S    
C16   C19   S    
C21   H32   S    
C2    C6    S    
Cu1   Cu2   S    
C9    C10   S    
Br5   C16   S    
C1    C7    S    
C16   C17   S    
C21   H31   S    
C17   O3    S    
C13   C38   S    
C26   H9    S    
Br7   C34   S    
C31   H22   S    
C27   H13   S    
Cu2   O7    S    
C20   O14   S    
C20   H28   S    
C25   H7    S    
C19   C36   S    
C29   O5    S    
C34   O5    S    
Br1   C12   S    
C12   C15   S    
C22   O2    S    
C15   H12   S    
C29   H18   S    
C14   O13   A    
C31   O6    S    
Br4   C9    S    
C36   C37   T    
Br3   C2    S    
Br2   C33   S    
Cu1   N1    S    
Cu1   O12   S    
C3    O14   S    
C32   H25   S    
C30   H19   S    
Cu2   O11   S    
C23   C33   S    
C4    C37   S    
C28   H14   S    
C21   H30   S    
C3    C5    S    
C33   C34   S    
C5    C7    T    
C24   H3    S    
C20   H29   S    
C25   H6    S    
C2    C3    D    
C14   C18   S    
C31   H24   S    
C26   H10   S    
C12   H1    S    
Cu2   O9    S    
Cu2   N2    S    
C24   H4    S    
C18   C35   T    
C8    O2    S    
Cu1   O8    S    
C25   C26   S    
C33   O6    S    
C22   C24   S    
C6    C38   T    
C4    O8    A    
C22   H33   S    
C25   O3    S    
C30   H20   S    
C28   H15   S    
C32   H26   S    
C17   C23   S    
Cu1   O1    S    
C4    O9    A    
C15   C19   S    
C20   C21   S    
C27   H11   S    
Cu2   O13   S    
C23   C35   S    
C28   H16   S    
C1    O7    A    
C29   H17   S    
C12   C23   S    
C17   O4    S    
C15   H23   S    
C19   C34   S    
