data_mof_unit_62997.cif
_audit_creation_date              2012-10-26T21:14:22-0400
_audit_creation_method            fapswitch 2.2
_symmetry_space_group_name_H-M    P1
_symmetry_Int_Tables_number       1
_space_group_crystal_system       triclinic
_cell_length_a                    11.058524
_cell_length_b                    19.402524
_cell_length_c                    18.207222
_cell_angle_alpha                 91.14872
_cell_angle_beta                  103.076643
_cell_angle_gamma                 90.971806
_cell_volume                      3803.60465245

loop_
_atom_site_label
_atom_site_type_symbol
_atom_type_description
_atom_site_fract_x
_atom_site_fract_y
_atom_site_fract_z
_atom_type_partial_charge
C1    C     C_R   0.503700 0.367751 0.499764 0.570819
C2    C     C_R   0.496860 0.927912 0.501494 0.057748
C3    C     C_R   0.420903 0.455886 0.708287 0.036855
C4    C     C_R   0.579097 0.544114 0.291712 0.036854
C5    C     C_R   0.417086 0.454314 0.785146 -0.146284
C6    C     C_R   0.582914 0.545687 0.214854 -0.146284
C7    C     C_R   0.494747 0.498906 0.838124 -0.001243
C8    C     C_R   0.505253 0.501094 0.161876 -0.001243
C9    C     C_R   0.575137 0.543395 0.811457 -0.111290
C10   C     C_R   0.424864 0.456605 0.188543 -0.111290
C11   C     C_R   0.577033 0.543663 0.734813 0.253702
C12   C     C_R   0.496300 0.632249 0.500236 0.570820
C13   C     C_R   0.422967 0.456337 0.265187 0.253702
C14   C     C_R   0.512500 0.561549 0.963948 -0.103235
C15   C     C_R   0.487501 0.438451 0.036052 -0.103236
C16   C     C_R   0.262502 0.499959 0.469395 0.573432
C17   C     C_R   0.737498 0.500041 0.530605 0.573433
C18   C     C_R   0.518014 0.562102 0.041841 -0.103487
C19   C     C_R   0.481986 0.437897 0.958159 -0.103487
C20   C     C_R   0.505286 0.500586 0.079209 0.034247
C21   C     C_R   0.494715 0.499414 0.920791 0.034246
C22   C     C_2   0.127322 0.499854 0.451998 -0.103901
C23   C     C_R   0.492163 0.707643 0.501493 0.018708
C24   C     C_2   0.872678 0.500147 0.548002 -0.103901
C25   C     C_2   0.067404 0.500150 0.508082 -0.142539
C26   C     C_2   0.932596 0.499850 0.491918 -0.142539
C27   C     C_R   0.565055 0.744064 0.461102 -0.151298
C28   C     C_R   0.434944 0.255936 0.538896 -0.151299
C29   C     C_R   0.566381 0.815621 0.461856 -0.153571
C30   C     C_R   0.433618 0.184379 0.538143 -0.153572
C31   C     C_R   0.494006 0.852161 0.502496 0.047269
C32   C     C_R   0.505994 0.147839 0.497504 0.047272
C33   C     C_R   0.419464 0.816430 0.543155 0.118365
C34   C     C_R   0.507837 0.292357 0.498507 0.018709
C35   C     C_R   0.580538 0.183570 0.456847 0.118362
C36   C     C_R   0.417448 0.743732 0.542299 0.091638
C37   C     C_R   0.582553 0.256268 0.457703 0.091638
C38   C     C_R   0.386510 0.963972 0.477870 -0.080621
C39   C     C_R   0.613490 0.036027 0.522131 -0.080620
C40   C     C_R   0.389586 0.035729 0.476725 -0.115144
C41   C     C_R   0.610414 0.964271 0.523276 -0.115144
C42   C     C_R   0.503140 0.072088 0.498508 0.057748
Cu1   Cu    Cu3+1 0.499960 0.500000 0.573360 1.013918
Cu2   Cu    Cu3+1 0.500040 0.500000 0.426640 1.013918
H1    H     H_    0.882014 0.499390 0.433237 0.166738
H2    H     H_    0.470411 0.388957 0.927500 0.109658
H3    H     H_    0.923378 0.500556 0.606612 0.120554
H4    H     H_    0.076622 0.499444 0.393388 0.120554
H5    H     H_    0.622472 0.716968 0.429523 0.126737
H6    H     H_    0.377526 0.283033 0.570473 0.126738
H7    H     H_    0.623522 0.842700 0.430167 0.123195
H8    H     H_    0.376477 0.157300 0.569830 0.123196
H9    H     H_    0.298321 0.936518 0.459798 0.128865
H10   H     H_    0.701679 0.063482 0.540202 0.128867
H11   H     H_    0.303715 0.062927 0.458134 0.115151
H12   H     H_    0.117986 0.500611 0.566763 0.166739
H13   H     H_    0.696285 0.937073 0.541866 0.115152
H14   H     H_    0.359944 0.421638 0.668267 0.120968
H15   H     H_    0.640055 0.578363 0.331733 0.120968
H16   H     H_    0.254430 0.841623 0.566014 0.249149
H17   H     H_    0.375423 0.840551 0.642599 0.264328
H18   H     H_    0.624583 0.159449 0.357408 0.264330
H19   H     H_    0.745570 0.158377 0.433992 0.249150
H20   H     H_    0.352582 0.419131 0.802656 0.102013
H21   H     H_    0.647417 0.580870 0.197344 0.102012
H22   H     H_    0.638537 0.577524 0.850331 0.119154
H23   H     H_    0.361464 0.422474 0.149669 0.119154
H24   H     H_    0.520713 0.610240 0.937295 0.116634
H25   H     H_    0.479289 0.389759 0.062705 0.116633
H26   H     H_    0.529589 0.611043 0.072500 0.109658
I1    I     I_    0.705631 0.615200 0.706651 -0.318929
I2    I     I_    0.294369 0.384800 0.293349 -0.318929
I3    I     I_    0.294161 0.690666 0.598490 -0.365444
I4    I     I_    0.705840 0.309334 0.401514 -0.365444
N1    N     N_R   0.499990 0.500020 0.683620 -0.212132
N2    N     N_R   0.500010 0.499980 0.316380 -0.212132
N3    N     N_3   0.348366 0.854616 0.586219 -0.627015
N4    N     N_3   0.651636 0.145384 0.413786 -0.627023
O1    O     O_R   0.499950 0.400180 0.561970 -0.522050
O2    O     O_R   0.500050 0.599820 0.438030 -0.522050
O3    O     O_R   0.500010 0.400190 0.438070 -0.444690
O4    O     O_R   0.499990 0.599810 0.561930 -0.444690
O5    O     O_R   0.320670 0.500000 0.539180 -0.502264
O6    O     O_R   0.679330 0.500000 0.460820 -0.502264
O7    O     O_R   0.320730 0.500010 0.415280 -0.474707
O8    O     O_R   0.679270 0.499990 0.584720 -0.474707

loop_
_geom_bond_atom_site_label_1
_geom_bond_atom_site_label_2
_ccdc_geom_bond_type
C18   H26   S    
C22   H4    S    
C37   I4    S    
C27   C29   A    
C34   C37   A    
Cu1   O5    S    
C14   C18   A    
C25   H12   S    
C19   H2    S    
C39   C41   A    
C10   H23   S    
C15   C19   A    
C12   C23   S    
C8    C20   S    
C14   C21   A    
C35   C37   A    
C24   C26   D    
C11   I1    S    
C39   H10   S    
C2    C41   A    
C1    O3    A    
C33   C36   A    
Cu2   N2    S    
C9    H22   S    
C26   H1    S    
C28   H6    S    
C6    H21   S    
H17   N3    S    
C22   C25   D    
C31   C33   A    
C23   C27   A    
C30   C32   A    
C3    N1    A    
C40   C42   A    
C28   C34   A    
C24   H3    S    
C1    C34   S    
C39   C42   A    
Cu1   N1    S    
C15   C20   A    
C15   H25   S    
H16   N3    S    
C17   C24   S    
C17   O8    A    
C32   C35   A    
Cu2   O2    S    
C4    C6    A    
Cu2   O3    S    
C5    C7    A    
C6    C8    A    
C3    C5    A    
C25   C26   S    
C7    C21   S    
C16   O5    A    
C5    H20   S    
C2    C31   S    
Cu1   Cu2   S    
C2    C38   A    
C13   N2    A    
C40   H11   S    
C12   O4    A    
C9    C11   A    
C16   O7    A    
C1    O1    A    
Cu2   O7    S    
C29   H7    S    
C7    C9    A    
C30   H8    S    
C16   C22   S    
C19   C21   A    
Cu1   O8    S    
H18   N4    S    
Cu2   O6    S    
C10   C13   A    
C13   I2    S    
C35   N4    S    
C17   O6    A    
C28   C30   A    
C41   H13   S    
C29   C31   A    
C11   N1    A    
C38   C40   A    
C33   N3    S    
C38   H9    S    
C12   O2    A    
C4    H15   S    
C18   C20   A    
C14   H24   S    
C4    N2    A    
C36   I3    S    
C3    H14   S    
C8    C10   A    
C23   C36   A    
Cu1   O4    S    
C32   C42   S    
Cu1   O1    S    
C27   H5    S    
H19   N4    S    
