data_mof_unit_8519.cif
_audit_creation_date              2012-12-11T14:50:47-0500
_audit_creation_method            fapswitch 2.2
_symmetry_space_group_name_H-M    P1
_symmetry_Int_Tables_number       1
_space_group_crystal_system       triclinic
_cell_length_a                    10.937955
_cell_length_b                    11.017959
_cell_length_c                    18.826626
_cell_angle_alpha                 90.058029
_cell_angle_beta                  89.507245
_cell_angle_gamma                 60.071934
_cell_volume                      1966.21299319

loop_
_atom_site_label
_atom_site_type_symbol
_atom_type_description
_atom_site_fract_x
_atom_site_fract_y
_atom_site_fract_z
_atom_type_partial_charge
C1    C     C_R   0.292911 0.621842 0.615319 0.550910
C2    C     C_R   0.573496 0.162745 0.785867 -0.158297
C3    C     C_R   0.559217 0.172363 0.714274 -0.134634
C4    C     C_R   0.656254 0.621207 0.600531 0.635212
C5    C     C_R   0.666076 0.167118 0.672129 0.015489
C6    C     C_R   0.271747 0.518379 0.730751 -0.113591
C7    C     C_R   0.237843 0.531676 0.803731 0.035277
C8    C     C_R   0.200931 0.659739 0.838675 0.022066
C9    C     C_R   0.214338 0.762227 0.801445 -0.097121
C10   C     C_R   0.234697 0.752621 0.728773 -0.115564
C11   C     C_R   0.261997 0.631644 0.692146 0.002789
C12   C     C_3   0.676988 0.544193 0.799901 0.197741
C13   C     C_R   0.717847 0.524920 0.270508 -0.131076
C14   C     C_R   0.717270 0.539873 0.197723 -0.130848
C15   C     C_R   0.649699 0.673580 0.167908 0.022149
C16   C     C_R   0.628852 0.225851 0.601629 0.521985
C17   C     C_R   0.570960 0.791780 0.211628 -0.140577
C18   C     C_R   0.568982 0.776258 0.285086 -0.149937
C19   C     C_R   0.647000 0.642908 0.314913 0.020007
C20   C     C_R   0.506655 0.243527 0.278000 -0.130539
C21   C     C_R   0.512533 0.235028 0.204550 0.028914
C22   C     C_R   0.645424 0.180509 0.171171 0.005542
C23   C     C_3   0.702932 0.672123 0.812418 0.002446
C24   C     C_R   0.764002 0.157839 0.210728 -0.162527
C25   C     C_R   0.755929 0.169406 0.283646 -0.158793
C26   C     C_R   0.628750 0.207016 0.317657 0.006558
C27   C     C_R   0.255056 0.712306 0.280555 -0.130908
C28   C     C_R   0.227730 0.646962 0.399774 0.558500
C29   C     C_R   0.234450 0.715379 0.208681 -0.129084
C30   C     C_R   0.148965 0.666094 0.181981 0.052197
C31   C     C_R   0.093064 0.603252 0.226657 -0.106847
C32   C     C_R   0.116505 0.597410 0.299077 -0.132681
C33   C     C_R   0.192663 0.657374 0.326068 0.026379
C34   C     C_3   0.684707 0.643495 0.675223 -0.001186
C35   C     C_R   0.707182 0.093042 0.893507 0.572219
C36   C     C_R   0.724586 0.688719 0.888157 0.567960
C37   C     C_R   0.122007 0.704287 0.906690 0.563642
C38   C     C_R   0.672976 0.111992 0.102296 0.569589
C39   C     C_R   0.693936 0.690423 0.097133 0.546766
C40   C     C_R   0.640099 0.619243 0.390580 0.559108
C41   C     C_R   0.092776 0.708751 0.112222 0.566619
C42   C     C_R   0.612722 0.236937 0.392749 0.552297
C43   C     C_3   0.574200 0.805971 0.782827 -0.198667
C44   C     C_3   0.548034 0.774567 0.706790 0.081024
C45   C     C_3   0.814878 0.667396 0.686014 0.040782
C46   C     C_3   0.835055 0.660445 0.769889 -0.279822
C47   C     C_2   0.866449 0.378426 0.706556 0.575466
C48   C     C_2   0.947962 0.563771 0.644438 0.609363
C49   C     C_2   0.957208 0.090411 0.800363 0.605754
C50   C     C_2   0.245563 0.410068 0.841380 0.572782
C51   C     C_2   0.379184 0.284137 0.165009 0.583450
C52   C     C_2   0.791457 0.805542 0.656630 0.624797
C53   C     C_2   0.746094 0.426054 0.855428 0.630200
C54   C     C_3   0.715738 0.503648 0.719201 -0.136014
C55   C     C_R   0.795935 0.130273 0.701670 -0.061107
C56   C     C_R   0.816160 0.117024 0.775449 0.036186
C57   C     C_R   0.699855 0.134630 0.818881 0.013942
Cr1   Cr    Cr6+3 0.392930 0.397900 0.502230 1.036011
Cr2   Cr    Cr6+3 0.398240 0.708600 0.501260 1.060528
Cr3   Cr    Cr6+3 0.708800 0.393470 0.496460 1.062809
Cr4   Cr    Cr6+3 0.937620 0.938540 0.007640 1.073317
Cr5   Cr    Cr6+3 0.625150 0.937450 0.994520 1.068444
Cr6   Cr    Cr6+3 0.937990 0.625080 0.001190 1.111124
H1    H     H_    0.595472 0.894754 0.783015 0.152699
H2    H     H_    0.773987 0.420135 0.292003 0.143568
H3    H     H_    0.777811 0.447245 0.165091 0.138079
H4    H     H_    0.518934 0.896428 0.189726 0.156889
H5    H     H_    0.509776 0.867861 0.318506 0.139856
H6    H     H_    0.404727 0.284675 0.304054 0.178089
H7    H     H_    0.866607 0.120653 0.186152 0.154131
H8    H     H_    0.848980 0.147806 0.313379 0.137517
H9    H     H_    0.320289 0.752826 0.300553 0.148153
H10   H     H_    0.465556 0.745348 0.707931 0.155683
H11   H     H_    0.278620 0.763189 0.174442 0.140617
H12   H     H_    0.931683 0.565005 0.786594 0.229769
H13   H     H_    0.024831 0.566490 0.206303 0.142980
H14   H     H_    0.072484 0.550426 0.333918 0.137914
H15   H     H_    0.853653 0.745659 0.788608 0.129441
H16   H     H_    0.644473 0.466553 0.699099 0.072530
H17   H     H_    0.008338 0.232684 0.638614 0.357398
H18   H     H_    0.042859 0.494589 0.548548 0.342775
H19   H     H_    0.147501 0.065524 0.772075 0.335243
H20   H     H_    0.221945 0.239966 0.836658 0.349278
H21   H     H_    0.183988 0.307895 0.163201 0.337479
H22   H     H_    0.402617 0.963266 0.682383 0.320455
H23   H     H_    0.882289 0.106957 0.665843 0.211755
H24   H     H_    0.724349 0.940706 0.574407 0.337227
H25   H     H_    0.712796 0.331485 0.939301 0.348150
H26   H     H_    0.511024 0.518887 0.794567 0.335129
H27   H     H_    0.484521 0.170168 0.814819 0.182105
H28   H     H_    0.460411 0.189973 0.692518 0.178581
H29   H     H_    0.302583 0.421007 0.703542 0.183722
H30   H     H_    0.201787 0.854292 0.828212 0.178463
H31   H     H_    0.477347 0.839684 0.815743 0.159079
H32   H     H_    0.232806 0.839465 0.701242 0.172452
O1    O     O_R   0.507430 0.255570 0.581420 -0.523908
O2    O     O_R   0.837200 0.593290 0.915250 -0.468915
O3    O     O_R   0.065330 0.635370 0.931590 -0.468591
O4    O     O_R   0.280190 0.527390 0.578910 -0.481274
O5    O     O_R   0.068300 0.828790 0.091860 -0.526366
O6    O     O_R   0.798730 0.057480 0.079370 -0.519946
O7    O     O_R   0.584680 0.080480 0.076790 -0.473474
O8    O     O_R   0.626790 0.809640 0.067050 -0.504213
O9    O     O_R   0.816010 0.596460 0.076500 -0.519185
O10   O     O_R   0.045680 0.638310 0.081070 -0.485523
O11   O     O_3   0.833590 0.833690 0.001120 -0.295656
O12   O     O_R   0.524460 0.695920 0.424060 -0.502071
O13   O     O_R   0.260310 0.739740 0.584580 -0.499631
O14   O     O_R   0.532250 0.695150 0.573830 -0.471968
O15   O     O_R   0.744930 0.503430 0.576380 -0.449569
O16   O     O_R   0.699250 0.276390 0.571950 -0.476102
O17   O     O_R   0.499020 0.256400 0.419850 -0.520143
O18   O     O_R   0.272400 0.528160 0.429140 -0.505183
O19   O     O_R   0.251910 0.740570 0.423020 -0.516048
O20   O     O_2   0.960104 0.349898 0.748901 -0.417062
O21   O     O_R   0.903493 0.301683 0.643302 -0.656469
O22   O     O_2   0.056316 0.483551 0.674920 -0.491258
O23   O     O_R   0.736530 0.504260 0.414810 -0.511213
O24   O     O_R   0.948907 0.566634 0.570029 -0.643891
O25   O     O_2   0.982406 0.094766 0.862873 -0.452231
O26   O     O_R   0.061068 0.069642 0.750207 -0.727393
O27   O     O_2   0.286503 0.385530 0.902726 -0.463991
O28   O     O_R   0.211840 0.319578 0.805639 -0.654279
O29   O     O_2   0.364207 0.338838 0.106822 -0.471907
O30   O     O_R   0.269182 0.270873 0.195181 -0.725621
O31   O     O_3   0.499110 0.895341 0.664948 -0.655350
O32   O     O_2   0.856626 0.858293 0.681727 -0.560318
O33   O     O_R   0.719439 0.856881 0.592757 -0.605141
O34   O     O_R   0.691460 0.277160 0.422180 -0.508469
O35   O     O_2   0.871810 0.368078 0.868263 -0.423851
O36   O     O_R   0.659587 0.396562 0.898789 -0.671693
O37   O     O_3   0.530981 0.594105 0.808823 -0.735814
O38   O     O_3   0.499990 0.499990 0.499980 -0.304802
O39   O     O_R   0.089490 0.825610 0.930610 -0.495489
O40   O     O_R   0.818370 0.054540 0.929880 -0.462326
O41   O     O_R   0.605870 0.077310 0.915530 -0.508759
O42   O     O_R   0.646440 0.806700 0.917570 -0.520639

loop_
_geom_bond_atom_site_label_1
_geom_bond_atom_site_label_2
_ccdc_geom_bond_type
C35   O41   A    
C40   O23   A    
C4    O14   A    
C27   C29   A    
C50   O27   D    
C55   C56   A    
C1    O4    A    
C52   O33   S    
C2    C57   A    
C24   H7    S    
C39   O9    A    
C13   H2    S    
C45   C46   S    
C27   C33   A    
C47   O20   D    
C12   C23   S    
C44   O31   S    
H26   O37   S    
C41   O10   A    
Cr1   O17   S    
Cr5   O8    S    
Cr6   O3    S    
C28   O18   A    
C30   C31   A    
C49   O25   D    
C18   H5    S    
C22   C38   S    
C43   H31   S    
C23   C43   S    
C56   C57   A    
C3    H28   S    
C18   C19   A    
Cr5   O41   S    
C2    H27   S    
Cr1   O1    S    
H24   O33   S    
C5    C16   S    
C42   O17   A    
C32   H14   S    
H17   O21   S    
C8    C9    A    
C1    C11   S    
C43   H1    S    
Cr1   O18   S    
C30   C41   S    
Cr3   O23   S    
C36   O2    A    
C53   O36   S    
Cr6   O10   S    
C9    C10   A    
H19   O26   S    
C12   C53   S    
Cr5   O42   S    
C23   C46   S    
C21   C22   A    
C51   O29   D    
H22   O31   S    
C46   H12   S    
C52   O32   D    
Cr4   O39   S    
C48   O24   S    
Cr1   O38   S    
C47   O21   S    
C4    C34   S    
C17   H4    S    
C16   O1    A    
C13   C19   A    
C51   O30   S    
C7    C8    A    
C34   C44   S    
C24   C25   A    
C10   C11   A    
C35   O40   A    
C6    C11   A    
C46   H15   S    
C29   H11   S    
C45   C52   S    
C25   C26   A    
Cr2   O38   S    
Cr2   O12   S    
Cr1   O4    S    
Cr4   O6    S    
C43   C44   S    
C29   C30   A    
C31   C32   A    
C49   O26   S    
C17   C18   A    
C14   H3    S    
C41   O5    A    
C37   O3    A    
C34   C45   S    
Cr6   O11   S    
Cr4   O11   S    
C15   C39   S    
C48   O22   D    
C28   O19   A    
C40   O12   A    
C25   H8    S    
C28   C33   S    
C34   C54   S    
C47   C54   S    
C22   C24   A    
C20   H6    S    
Cr4   O5    S    
C8    C37   S    
C9    H30   S    
C21   C51   S    
Cr4   O40   S    
C54   H16   S    
C36   O42   A    
C45   C48   S    
H21   O30   S    
C15   C17   A    
C4    O15   A    
C12   O37   S    
C14   C15   A    
C5    C55   A    
C50   O28   S    
C7    C50   S    
Cr6   O9    S    
C3    C5    A    
Cr3   O34   S    
C39   O8    A    
C6    C7    A    
Cr5   O11   S    
C38   O6    A    
C49   C56   S    
H18   O24   S    
Cr2   O13   S    
C35   C57   S    
C32   C33   A    
C55   H23   S    
C2    C3    A    
C38   O7    A    
Cr3   O16   S    
C31   H13   S    
C20   C26   A    
C10   H32   S    
Cr2   O19   S    
C6    H29   S    
Cr2   O14   S    
C42   O34   A    
C26   C42   S    
C44   H10   S    
Cr3   O15   S    
C19   C40   S    
C1    O13   A    
C20   C21   A    
Cr6   O2    S    
C23   C36   S    
C37   O39   A    
C53   O35   D    
H25   O36   S    
H20   O28   S    
C13   C14   A    
Cr3   O38   S    
C12   C54   S    
C27   H9    S    
C16   O16   A    
Cr5   O7    S    
