data_mof_unit_9991.cif
_audit_creation_date              2013-03-05T15:44:13-0500
_audit_creation_method            fapswitch 2.2
_symmetry_space_group_name_H-M    P1
_symmetry_Int_Tables_number       1
_space_group_crystal_system       triclinic
_cell_length_a                    26.016
_cell_length_b                    27.395211
_cell_length_c                    8.430382
_cell_angle_alpha                 90.00129
_cell_angle_beta                  96.122579
_cell_angle_gamma                 90.001349
_cell_volume                      5974.1774128

loop_
_atom_site_label
_atom_site_type_symbol
_atom_site_description
_atom_site_fract_x
_atom_site_fract_y
_atom_site_fract_z
_atom_type_partial_charge
P1    P     P_3+3 0.893960 0.447890 0.040050 0.477280
P2    P     P_3+3 0.893960 0.552110 0.540050 0.475998
P3    P     P_3+3 0.393960 0.947890 0.040050 0.475165
P4    P     P_3+3 0.393960 0.052110 0.540050 0.475071
O1    O     O_2   0.898940 0.431940 0.867860 -0.370701
O2    O     O_2   0.898940 0.568060 0.367860 -0.371440
O3    O     O_2   0.398940 0.931940 0.867860 -0.371457
O4    O     O_2   0.398940 0.068060 0.367860 -0.371426
O5    O     O_3   0.941140 0.476130 0.123050 -0.361720
O6    O     O_3   0.941140 0.523870 0.623050 -0.361878
O7    O     O_3   0.441140 0.976130 0.123050 -0.363246
O8    O     O_3   0.441140 0.023870 0.623050 -0.363166
O9    O     O_3   0.982430 0.389880 0.635700 -0.387082
O10   O     O_3   0.982430 0.610120 0.135700 -0.356584
O11   O     O_3   0.482430 0.889880 0.635700 -0.356779
O12   O     O_3   0.482430 0.110120 0.135700 -0.356804
O13   O     O_2   0.898429 0.349427 0.736401 -0.369846
O14   O     O_2   0.897854 0.649549 0.235957 -0.373351
O15   O     O_2   0.397826 0.850466 0.735796 -0.373055
O16   O     O_2   0.397833 0.149536 0.235852 -0.373049
O17   O     O_3   0.842858 0.490358 0.033605 -0.605060
O18   O     O_3   0.842790 0.509715 0.533595 -0.604765
O19   O     O_3   0.342761 0.990240 0.033807 -0.604981
O20   O     O_3   0.342792 0.009723 0.533804 -0.605142
O21   O     O_3   0.965677 0.287597 0.646573 -0.514286
O22   O     O_3   0.966624 0.710922 0.154518 -0.489916
O23   O     O_3   0.466629 0.789075 0.654667 -0.489933
O24   O     O_3   0.466615 0.210927 0.154609 -0.489941
H1    H     H_    0.039187 0.316729 0.695414 0.117977
H2    H     H_    0.018211 0.689296 0.992472 0.019537
H3    H     H_    0.518227 0.810631 0.492591 0.019690
H4    H     H_    0.518216 0.189362 0.992547 0.019575
C1    C     C_3   0.043173 0.241345 0.632210 -0.093339
C2    C     C_3   0.040175 0.757909 0.098421 -0.039307
C3    C     C_3   0.540151 0.742025 0.598678 -0.038797
C4    C     C_3   0.540124 0.257973 0.098559 -0.038887
H5    H     H_    0.040508 0.227464 0.754853 0.191411
H6    H     H_    0.063262 0.742100 0.204579 0.179153
H7    H     H_    0.563243 0.757842 0.704828 0.179086
H8    H     H_    0.563220 0.242171 0.204700 0.179033
P5    P     P_3+3 0.105800 0.447360 0.649510 0.508102
P6    P     P_3+3 0.105800 0.552640 0.149510 0.512467
P7    P     P_3+3 0.605800 0.947360 0.649510 0.511562
P8    P     P_3+3 0.605800 0.052640 0.149510 0.511864
P9    P     P_3+3 0.062844 0.343027 0.086099 0.452418
P10   P     P_3+3 0.063153 0.656778 0.585192 0.474884
P11   P     P_3+3 0.563118 0.843199 0.085234 0.474377
P12   P     P_3+3 0.563129 0.156797 0.585253 0.474647
O25   O     O_2   0.100770 0.431440 0.821660 -0.337360
O26   O     O_2   0.100770 0.568560 0.321660 -0.334177
O27   O     O_2   0.600770 0.931440 0.821660 -0.335356
O28   O     O_2   0.600770 0.068560 0.321660 -0.334745
O29   O     O_3   0.017130 0.389790 0.053700 -0.403050
O30   O     O_3   0.017130 0.610210 0.553700 -0.405647
O31   O     O_3   0.517130 0.889790 0.053700 -0.405799
O32   O     O_3   0.517130 0.110210 0.553700 -0.405844
O33   O     O_2   0.101508 0.348969 0.960184 -0.352239
O34   O     O_2   0.100886 0.651651 0.456203 -0.333355
O35   O     O_2   0.600923 0.848360 0.956458 -0.333745
O36   O     O_2   0.600908 0.151654 0.456398 -0.333457
O37   O     O_3   0.160507 0.484961 0.665298 -0.528166
O38   O     O_3   0.160355 0.514834 0.165846 -0.530106
O39   O     O_3   0.660457 0.985031 0.665460 -0.530770
O40   O     O_3   0.660456 0.014972 0.165574 -0.530096
O41   O     O_3   0.031795 0.287523 0.037007 -0.524283
O42   O     O_3   0.031909 0.712544 0.541885 -0.505211
O43   O     O_3   0.531856 0.787459 0.041598 -0.504885
O44   O     O_3   0.531866 0.212542 0.541733 -0.505019
C5    C     C_3   0.981832 0.289508 0.086064 0.408650
C6    C     C_3   0.980471 0.708196 0.577051 0.473749
C7    C     C_3   0.480447 0.791771 0.077084 0.473627
C8    C     C_3   0.480445 0.208208 0.577085 0.473383
H9    H     H_    0.958149 0.317795 0.017751 0.134164
H10   H     H_    0.958339 0.684178 0.488201 0.153043
H11   H     H_    0.458262 0.815826 0.988459 0.152727
H12   H     H_    0.458287 0.184163 0.488373 0.152871
H13   H     H_    0.983459 0.297220 0.215996 0.039213
H14   H     H_    0.978485 0.693108 0.698581 -0.035546
H15   H     H_    0.478526 0.806799 0.198733 -0.035743
H16   H     H_    0.478500 0.193158 0.698686 -0.035644
C9    C     C_3   0.955139 0.240638 0.053178 -0.825531
C10   C     C_3   0.955082 0.758220 0.568975 -0.876937
C11   C     C_3   0.455071 0.741740 0.068900 -0.875947
C12   C     C_3   0.455055 0.258231 0.568939 -0.875878
H17   H     H_    0.951179 0.232814 0.923190 0.277417
H18   H     H_    0.954860 0.773556 0.447013 0.307988
H19   H     H_    0.454771 0.726465 0.946825 0.307932
H20   H     H_    0.454780 0.273527 0.446906 0.307929
H21   H     H_    0.978007 0.211057 0.116995 0.287953
H22   H     H_    0.976552 0.783287 0.655914 0.259930
H23   H     H_    0.476599 0.716639 0.155602 0.260076
H24   H     H_    0.476556 0.283325 0.655724 0.260053
C13   C     C_3   0.147893 0.469115 0.224860 0.284606
C14   C     C_3   0.148385 0.530597 0.725581 0.285588
C15   C     C_3   0.648198 0.969271 0.225058 0.283919
C16   C     C_3   0.648252 0.030684 0.725414 0.284414
H25   H     H_    0.134169 0.473596 0.343727 0.071462
H26   H     H_    0.135088 0.525935 0.844964 0.070597
H27   H     H_    0.634720 0.973795 0.344252 0.070192
H28   H     H_    0.634879 0.026065 0.844705 0.070367
H29   H     H_    0.117654 0.450691 0.142820 0.106245
H30   H     H_    0.117950 0.549191 0.644713 0.102639
H31   H     H_    0.617857 0.950779 0.143561 0.103288
H32   H     H_    0.617847 0.049223 0.644285 0.103094
C17   C     C_3   0.196549 0.437416 0.242638 -0.105497
C18   C     C_3   0.197133 0.562179 0.742395 -0.107801
C19   C     C_3   0.696914 0.937651 0.242087 -0.106503
C20   C     C_3   0.696974 0.062302 0.742337 -0.107267
H33   H     H_    0.228937 0.457570 0.309897 0.179733
H34   H     H_    0.229748 0.541751 0.807420 0.180760
H35   H     H_    0.729374 0.957858 0.308843 0.179993
H36   H     H_    0.729548 0.041959 0.807892 0.180505
H37   H     H_    0.189370 0.404301 0.312297 0.071955
H38   H     H_    0.190405 0.595035 0.813862 0.070904
H39   H     H_    0.689928 0.904528 0.311979 0.070453
H40   H     H_    0.690153 0.095232 0.813329 0.070680
Ba1   Ba    Ba6+2 0.999910 0.465960 0.844870 1.598275
Ba2   Ba    Ba6+2 0.999910 0.534040 0.344870 1.606856
Ba3   Ba    Ba6+2 0.499910 0.965960 0.844870 1.607920
Ba4   Ba    Ba6+2 0.499910 0.034040 0.344870 1.608002
C21   C     C_3   0.822475 0.502317 0.878761 0.736777
C22   C     C_3   0.822522 0.497619 0.378737 0.736783
C23   C     C_3   0.322708 0.002620 0.878966 0.736704
C24   C     C_3   0.322680 0.997413 0.378965 0.736646
H41   H     H_    0.854105 0.508242 0.804871 0.118424
H42   H     H_    0.854212 0.491616 0.305101 0.118438
H43   H     H_    0.354496 0.008595 0.805639 0.117853
H44   H     H_    0.354438 0.991482 0.305509 0.117958
C25   C     C_3   0.783393 0.463913 0.811540 -0.818694
C26   C     C_3   0.783461 0.535971 0.310939 -0.816918
C27   C     C_3   0.283503 0.964492 0.810373 -0.817096
C28   C     C_3   0.283462 0.035564 0.310681 -0.817607
H45   H     H_    0.802989 0.429511 0.783929 0.246124
H46   H     H_    0.803062 0.570368 0.283280 0.246682
H47   H     H_    0.302957 0.929967 0.783153 0.247246
H48   H     H_    0.302912 0.070093 0.283484 0.247100
H49   H     H_    0.761626 0.477523 0.699959 0.270983
H50   H     H_    0.761787 0.522274 0.199308 0.270605
H51   H     H_    0.262132 0.978328 0.698425 0.270300
H52   H     H_    0.262040 0.021770 0.198756 0.270362
H53   H     H_    0.755479 0.456056 0.899197 0.246204
H54   H     H_    0.755459 0.543877 0.398285 0.246116
H55   H     H_    0.255232 0.956758 0.897082 0.245586
H56   H     H_    0.255239 0.043271 0.397563 0.245675
O45   O     O_3   0.058810 0.523750 0.066650 -0.408031
O46   O     O_3   0.058810 0.476250 0.566650 -0.405487
O47   O     O_3   0.558810 0.023750 0.066650 -0.408423
O48   O     O_3   0.558810 0.976250 0.566650 -0.408149
P13   P     P_3+3 0.935154 0.655650 0.106340 0.495516
P14   P     P_3+3 0.935513 0.344022 0.605746 0.486260
P15   P     P_3+3 0.435158 0.155656 0.106306 0.495541
P16   P     P_3+3 0.435168 0.844338 0.606306 0.495616
C29   C     C_3   0.017214 0.291056 0.611511 0.315862
C30   C     C_3   0.998271 0.722084 0.034201 0.254105
C31   C     C_3   0.498267 0.777862 0.534374 0.253538
C32   C     C_3   0.498251 0.222128 0.034304 0.253646
H57   H     H_    0.019200 0.303526 0.486857 0.027282
H58   H     H_    0.974415 0.739067 0.931797 0.068188
H59   H     H_    0.474402 0.760869 0.431993 0.068224
H60   H     H_    0.474387 0.239105 0.931918 0.068252
H61   H     H_    0.084616 0.244760 0.613264 0.102691
H62   H     H_    0.066361 0.765142 0.005299 0.083989
H63   H     H_    0.566338 0.734762 0.505582 0.084016
H64   H     H_    0.566305 0.265236 0.005445 0.083959
H65   H     H_    0.916049 0.241615 0.094728 0.207526
H66   H     H_    0.914594 0.755022 0.598143 0.202524
H67   H     H_    0.414609 0.744909 0.098343 0.202314
H68   H     H_    0.414583 0.255042 0.598285 0.202407
C33   C     C_R   0.911449 0.385859 0.305148 -0.455365
C34   C     C_R   0.911440 0.614204 0.805007 -0.429111
C35   C     C_R   0.411506 0.885763 0.304915 -0.429604
C36   C     C_R   0.411491 0.114256 0.804876 -0.429663
C37   C     C_R   0.883490 0.392124 0.155839 0.292860
C38   C     C_R   0.883530 0.607942 0.655645 0.290273
C39   C     C_R   0.383592 0.892029 0.155557 0.290669
C40   C     C_R   0.383543 0.107959 0.655586 0.290508
C41   C     C_R   0.844198 0.358758 0.103703 -0.236034
C42   C     C_R   0.844276 0.641334 0.603416 -0.238383
C43   C     C_R   0.344357 0.858622 0.103276 -0.238311
C44   C     C_R   0.344229 0.141306 0.603454 -0.238034
C45   C     C_R   0.832402 0.319127 0.201132 0.042209
C46   C     C_R   0.832474 0.680975 0.700829 0.056467
C47   C     C_R   0.332571 0.818966 0.200649 0.056309
C48   C     C_R   0.332409 0.180934 0.700899 0.056075
C49   C     C_R   0.860829 0.314064 0.352902 -0.222631
C50   C     C_R   0.860888 0.686055 0.852616 -0.244663
C51   C     C_R   0.360975 0.813891 0.352451 -0.244342
C52   C     C_R   0.360862 0.186047 0.852615 -0.244637
C53   C     C_R   0.899837 0.347647 0.404975 0.277427
C54   C     C_R   0.899886 0.652478 0.904697 0.238547
C55   C     C_R   0.399953 0.847482 0.404584 0.238718
C56   C     C_R   0.399907 0.152507 0.904620 0.239037
C57   C     C_R   0.794133 0.234060 0.182304 -0.163580
C58   C     C_R   0.794150 0.766012 0.682130 -0.162864
C59   C     C_R   0.294268 0.733921 0.181937 -0.162811
C60   C     C_R   0.293963 0.265919 0.682103 -0.164062
C61   C     C_R   0.254102 0.701310 0.132227 -0.097198
C62   C     C_R   0.253711 0.298460 0.632593 -0.094570
C63   C     C_R   0.753984 0.201433 0.132534 -0.099274
C64   C     C_R   0.753980 0.798616 0.632421 -0.097609
C65   C     C_R   0.208037 0.717787 0.045690 0.145482
C66   C     C_R   0.207584 0.281892 0.546598 0.144436
C67   C     C_R   0.707908 0.217897 0.046014 0.145879
C68   C     C_R   0.707913 0.782131 0.545898 0.145314
C69   C     C_R   0.203515 0.767936 0.010253 -0.156510
C70   C     C_R   0.203111 0.231717 0.511447 -0.165471
C71   C     C_R   0.703361 0.268051 0.010664 -0.156904
C72   C     C_R   0.703399 0.731979 0.510470 -0.156371
C73   C     C_R   0.743533 0.300682 0.060362 -0.103677
C74   C     C_R   0.743597 0.699372 0.560086 -0.104297
C75   C     C_R   0.243706 0.800550 0.059873 -0.104364
C76   C     C_R   0.243399 0.199176 0.560820 -0.106795
C77   C     C_R   0.789583 0.284210 0.147000 0.136045
C78   C     C_R   0.789637 0.715867 0.646727 0.134283
C79   C     C_R   0.289746 0.784064 0.146523 0.134419
C80   C     C_R   0.289486 0.215757 0.646972 0.135698
C81   C     C_R   0.136682 0.687883 0.840165 -0.232329
C82   C     C_R   0.135825 0.311506 0.341849 -0.206483
C83   C     C_R   0.636575 0.187972 0.840397 -0.232905
C84   C     C_R   0.636542 0.812019 0.340379 -0.233788
C85   C     C_R   0.097650 0.654286 0.788288 0.229375
C86   C     C_R   0.096738 0.345065 0.290077 0.244329
C87   C     C_R   0.597570 0.154350 0.788448 0.229060
C88   C     C_R   0.597531 0.845634 0.288457 0.228691
C89   C     C_R   0.114405 0.609676 0.037427 0.318449
C90   C     C_R   0.114084 0.390132 0.538091 0.302457
C91   C     C_R   0.614333 0.109722 0.037555 0.318944
C92   C     C_R   0.614315 0.890276 0.537538 0.319259
C93   C     C_R   0.153737 0.643022 0.089101 -0.251819
C94   C     C_R   0.153417 0.356787 0.589749 -0.270072
C95   C     C_R   0.653646 0.143087 0.089280 -0.251656
C96   C     C_R   0.653634 0.856919 0.589229 -0.251985
C97   C     C_R   0.165157 0.682885 0.991982 -0.005780
C98   C     C_R   0.164599 0.316728 0.493118 -0.013194
C99   C     C_R   0.665045 0.182974 0.992229 -0.005801
C100  C     C_R   0.665027 0.817030 0.492178 -0.005627
C101  C     C_R   0.085648 0.616513 0.889465 -0.536418
C102  C     C_R   0.084972 0.383030 0.390848 -0.552626
C103  C     C_R   0.585577 0.116563 0.889593 -0.536535
C104  C     C_R   0.585542 0.883424 0.389604 -0.536234
H69   H     H_    0.175719 0.637376 0.204008 0.193315
H70   H     H_    0.175594 0.362601 0.704241 0.197928
H71   H     H_    0.675633 0.137434 0.204173 0.193452
H72   H     H_    0.675632 0.862581 0.704098 0.193407
H73   H     H_    0.259609 0.662923 0.159362 0.146201
H74   H     H_    0.259207 0.336864 0.659458 0.146556
H75   H     H_    0.759514 0.163045 0.159598 0.146906
H76   H     H_    0.759485 0.837004 0.659543 0.146109
H77   H     H_    0.829197 0.219796 0.246464 0.144275
H78   H     H_    0.829201 0.780292 0.746333 0.137565
H79   H     H_    0.329318 0.719649 0.246156 0.137627
H80   H     H_    0.329046 0.280259 0.745937 0.137672
H81   H     H_    0.822713 0.363985 0.987876 0.142008
H82   H     H_    0.822794 0.636095 0.487584 0.141628
H83   H     H_    0.322871 0.863871 0.987450 0.141790
H84   H     H_    0.322700 0.136030 0.487709 0.141695
H85   H     H_    0.168445 0.782203 0.946136 0.134007
H86   H     H_    0.168006 0.217369 0.447759 0.146080
H87   H     H_    0.668286 0.282308 0.946549 0.134198
H88   H     H_    0.668331 0.717705 0.446358 0.134202
H89   H     H_    0.738059 0.339079 0.033243 0.141872
H90   H     H_    0.738148 0.660975 0.532915 0.141855
H91   H     H_    0.238249 0.838946 0.032706 0.141616
H92   H     H_    0.237986 0.160761 0.533870 0.142569
H93   H     H_    0.145856 0.716760 0.760185 0.161526
H94   H     H_    0.144928 0.282587 0.261929 0.159616
H95   H     H_    0.645741 0.216860 0.760449 0.161565
H96   H     H_    0.645709 0.783136 0.260414 0.161570
H97   H     H_    0.851854 0.284976 0.432375 0.156501
H98   H     H_    0.851881 0.715113 0.932156 0.153339
H99   H     H_    0.351968 0.784829 0.431976 0.153359
H100  H     H_    0.351831 0.215089 0.932185 0.153281
H101  H     H_    0.055894 0.590467 0.848417 0.169814
H102  H     H_    0.055282 0.409122 0.349676 0.174353
H103  H     H_    0.555847 0.090500 0.848491 0.169585
H104  H     H_    0.555811 0.909485 0.348511 0.169581
H105  H     H_    0.941012 0.412024 0.346747 0.170397
H106  H     H_    0.940912 0.587975 0.846805 0.165589
H107  H     H_    0.440958 0.912006 0.346757 0.165494
H108  H     H_    0.440997 0.088053 0.846617 0.165414
N1    N     N_R   0.211281 0.423211 0.086865 0.277943
O49   O     O_R   0.212484 0.377326 0.047762 -0.375990
O50   O     O_R   0.227033 0.455936 0.991281 -0.347326
N2    N     N_R   0.211101 0.576945 0.586269 0.276998
O51   O     O_R   0.212041 0.622962 0.548655 -0.377155
O52   O     O_R   0.226363 0.544571 0.488619 -0.347015
N3    N     N_R   0.711372 0.923467 0.085944 0.277401
O53   O     O_R   0.712156 0.877599 0.046284 -0.377246
O54   O     O_R   0.727272 0.956181 0.990507 -0.348050
N4    N     N_R   0.711098 0.076906 0.586240 0.276965
O55   O     O_R   0.712018 0.122879 0.548076 -0.377171
O56   O     O_R   0.726554 0.044440 0.489251 -0.347677
Br1   Br    Br    0.786767 0.564197 0.886969 -0.573632
Br2   Br    Br    0.786792 0.435757 0.387342 -0.576211
Br3   Br    Br    0.287234 0.064606 0.888153 -0.577988
Br4   Br    Br    0.287222 0.935409 0.387916 -0.574958
Br5   Br    Br    0.010780 0.195022 0.479112 -0.471631
Br6   Br    Br    0.010157 0.819241 0.156849 -0.418616
Br7   Br    Br    0.510096 0.680714 0.657170 -0.416802
Br8   Br    Br    0.510057 0.319272 0.157037 -0.416709

loop_
_geom_bond_atom_site_label_1
_geom_bond_atom_site_label_2
_geom_bond_distance
_ccdc_geom_bond_type
C28   H56   1.111251 S    
C74   H90   1.082639 S    
C72   H88   1.082659 S    
C89   C101  1.397024 A    
P5    O37   1.750434 S    
C64   H76   1.082468 S    
P7    O39   1.750479 S    
O31   Ba3   2.736125 S    
P8    O40   1.750451 S    
P9    O33   1.546899 D    
P9    C86   1.847777 S    
N2    O51   1.300784 A    
C30   H58   1.110254 S    
C15   H27   1.105968 S    
C69   C75   1.404718 A    
C68   C72   1.408237 A    
P2    O18   1.763090 S    
C17   N1    1.459529 S    
N3    O54   1.301012 A    
C82   C86   1.405396 A    
P4    O8    1.552930 S    
C1    Br5   1.937609 S    
C70   H86   1.082705 S    
C26   H46   1.108024 S    
P5    O25   1.534313 D    
O18   C22   1.394759 S    
C47   C79   1.501732 S    
O3    Ba3   2.813350 S    
C13   H29   1.111702 S    
O37   C14   1.398173 S    
Ba3   O48   2.948827 S    
C57   C63   1.404438 A    
O39   C16   1.398119 S    
C16   C20   1.529278 S    
C73   C77   1.409170 A    
O24   C32   1.406524 S    
C85   C101  1.397396 A    
Ba1   O46   2.948827 S    
C50   C54   1.404720 A    
C1    H61   1.110622 S    
C12   H68   1.110397 S    
C66   C98   1.502367 S    
H3    C31   1.112936 S    
Ba2   O46   2.781965 S    
O44   C8    1.406268 S    
C8    C12   1.519667 S    
C25   H45   1.107987 S    
Ba4   O48   2.781965 S    
C16   H32   1.111769 S    
P1    O1    1.534612 D    
C26   H50   1.109588 S    
C27   H55   1.111274 S    
C34   C38   1.395403 A    
P5    C90   1.851955 S    
O22   P13   1.748433 S    
C12   H20   1.110183 S    
C57   C77   1.408038 A    
C11   H23   1.110642 S    
O16   P15   1.545949 D    
C68   C100  1.502083 S    
C87   C103  1.397428 A    
O42   C6    1.406249 S    
C35   C39   1.395443 A    
P4    O20   1.763003 S    
O10   P13   1.750678 S    
C61   H73   1.082475 S    
C82   H94   1.082456 S    
C94   C98   1.415309 A    
O12   P15   1.750750 S    
C18   N2    1.459502 S    
C34   H106  1.082018 S    
P8    C91   1.852082 S    
C4    Br8   1.938353 S    
P11   O35   1.547147 D    
C48   C52   1.414742 A    
H2    C30   1.112939 S    
C25   H49   1.109486 S    
C14   H30   1.111804 S    
O38   C13   1.398485 S    
P8    Ba4   3.395438 S    
P6    O45   1.557757 S    
C44   C48   1.414866 A    
C91   C95   1.405863 A    
O23   P16   1.748453 S    
C103  H103  1.082080 S    
C21   Br1   1.937876 S    
C5    H13   1.111933 S    
C33   C53   1.396302 A    
C23   Br3   1.938223 S    
C7    H15   1.111150 S    
C36   C56   1.396428 A    
P1    C37   1.848708 S    
C17   H37   1.107324 S    
C3    C31   1.522865 S    
C92   C104  1.397051 A    
O12   Ba4   2.736694 S    
C1    C29   1.521862 S    
C96   C100  1.415324 A    
C24   C28   1.529549 S    
H4    C32   1.112857 S    
C20   N4    1.459446 S    
O25   Ba1   2.815574 S    
P5    O46   1.557802 S    
C62   C66   1.409286 A    
O27   Ba3   2.815574 S    
C58   H78   1.082672 S    
P6    O38   1.750547 S    
C64   C68   1.409196 A    
C43   H83   1.081752 S    
P8    O28   1.534296 D    
P9    O29   1.749576 S    
P10   O34   1.547136 D    
O5    Ba2   2.782340 S    
C6    C10   1.519665 S    
O7    Ba4   2.782340 S    
C15   H31   1.111771 S    
C7    C11   1.519665 S    
C31   H59   1.110340 S    
C83   C99   1.415460 A    
C32   H60   1.110194 S    
P3    O7    1.552885 S    
O19   C23   1.394971 S    
C90   C94   1.405811 A    
C11   H67   1.110394 S    
C19   N3    1.459752 S    
C21   H41   1.095834 S    
C94   H70   1.082162 S    
C70   C76   1.404828 A    
O8    Ba3   2.782429 S    
C23   H43   1.096322 S    
C2    Br6   1.938476 S    
C28   H48   1.108227 S    
C71   H87   1.082665 S    
C60   H80   1.082682 S    
P1    Ba1   3.393776 S    
C88   C104  1.397454 A    
P3    Ba3   3.393776 S    
P6    O26   1.534296 D    
P15   C56   1.845765 S    
P9    O41   1.750533 S    
C13   H25   1.105909 S    
P7    C92   1.852091 S    
C17   H33   1.111019 S    
O26   Ba2   2.815535 S    
C19   H35   1.111265 S    
Ba2   O45   2.948823 S    
C101  H101  1.082081 S    
C2    H62   1.110753 S    
C73   H89   1.082644 S    
C42   H82   1.081693 S    
C49   H97   1.082507 S    
N1    O50   1.300561 A    
C52   C56   1.404776 A    
N2    O52   1.300634 A    
C8    H16   1.111105 S    
O6    Ba1   2.782429 S    
Ba1   Ba2   4.609409 S    
C41   C45   1.414690 A    
C16   H28   1.105918 S    
O11   Ba3   2.736617 S    
C93   C97   1.415318 A    
C26   H54   1.110992 S    
C27   H51   1.109761 S    
C40   C44   1.406416 A    
O24   P15   1.748448 S    
C71   C73   1.404806 A    
C33   C37   1.395587 A    
C45   C77   1.501901 S    
C12   H24   1.110609 S    
P5    Ba1   3.395446 S    
C24   Br4   1.938219 S    
C9    H17   1.110558 S    
C36   C40   1.395430 A    
P7    Ba3   3.395446 S    
C59   C61   1.404350 A    
C84   H96   1.082467 S    
C11   H19   1.110217 S    
O13   P14   1.546817 D    
P2    Ba2   3.393784 S    
C83   H95   1.082468 S    
P11   O31   1.750284 S    
O9    P14   1.750993 S    
P10   O42   1.750649 S    
P3    O3    1.534612 D    
C60   C80   1.407966 A    
C48   C80   1.501819 S    
C25   H53   1.110971 S    
C14   H26   1.105976 S    
Ba3   O47   2.781877 S    
P8    O47   1.557757 S    
Ba1   O45   2.781877 S    
N4    O55   1.300743 A    
C46   C50   1.414728 A    
P7    O48   1.557802 S    
C76   H92   1.082645 S    
C5    H9    1.111837 S    
C22   Br2   1.937978 S    
C38   C42   1.406342 A    
C59   C79   1.408027 A    
C8    H12   1.110647 S    
C24   H44   1.096206 S    
C9    H21   1.109913 S    
C51   H99   1.082484 S    
C63   C67   1.409217 A    
O11   P16   1.750639 S    
C2    C30   1.522777 S    
O23   C31   1.406527 S    
O21   C29   1.406617 S    
P1    O5    1.552885 S    
C81   C85   1.405270 A    
C60   C62   1.404402 A    
P6    Ba2   3.395438 S    
C10   H18   1.110158 S    
C1    H5    1.110731 S    
C20   H36   1.110992 S    
C3    H7    1.111204 S    
C67   C99   1.502151 S    
C47   C51   1.414718 A    
C93   H69   1.082222 S    
C65   C97   1.501975 S    
N3    O53   1.301005 A    
C91   C103  1.397030 A    
P10   O30   1.750330 S    
C35   C55   1.396444 A    
P12   O44   1.750634 S    
C49   C53   1.404948 A    
C15   C19   1.529207 S    
P3    C39   1.849039 S    
C81   H93   1.082469 S    
C81   C97   1.415404 A    
C92   C96   1.405817 A    
C4    C32   1.522654 S    
C10   H66   1.110381 S    
C23   C27   1.529640 S    
C96   H72   1.082191 S    
C21   C25   1.529345 S    
C58   C78   1.408022 A    
O9    Ba1   2.736617 S    
Ba3   Ba4   4.609409 S    
C28   H52   1.109738 S    
C3    Br7   1.938542 S    
C75   H91   1.082637 S    
C10   H22   1.110573 S    
C20   H40   1.107306 S    
P14   C53   1.844193 S    
P7    O27   1.534313 D    
C62   H74   1.082444 S    
O41   C5    1.406519 S    
O43   C7    1.406284 S    
C29   H57   1.111458 S    
C3    H63   1.110748 S    
C5    C9    1.519975 S    
C83   C87   1.405363 A    
Ba4   O47   2.948823 S    
P4    C40   1.849133 S    
C4    H64   1.110756 S    
C102  H102  1.082064 S    
C89   C93   1.405783 A    
C75   C79   1.409133 A    
P11   C88   1.847698 S    
P1    O17   1.763132 S    
C90   C102  1.397062 A    
C6    H14   1.111094 S    
P3    O19   1.762974 S    
P4    O4    1.534628 D    
C44   H84   1.081736 S    
C69   H85   1.082667 S    
P13   C54   1.845662 S    
P10   C85   1.847677 S    
C18   H38   1.107397 S    
P16   C55   1.845665 S    
C27   H47   1.108229 S    
O29   Ba1   2.736125 S    
O20   C24   1.394895 S    
C6    H10   1.110614 S    
C13   C17   1.529238 S    
C76   C80   1.409124 A    
O10   Ba2   2.736694 S    
C59   H79   1.082675 S    
C61   C65   1.409173 A    
C57   H77   1.082680 S    
O14   P13   1.545921 D    
C51   C55   1.404688 A    
C63   H75   1.082473 S    
O32   Ba4   2.736048 S    
P2    O2    1.534628 D    
P11   O43   1.750611 S    
P12   O36   1.547142 D    
C43   C47   1.414852 A    
C58   C64   1.404372 A    
C4    H8    1.111064 S    
C82   C98   1.415447 A    
C45   C49   1.414716 A    
C39   C43   1.406309 A    
N1    O49   1.300743 A    
C74   C78   1.409141 A    
C67   C71   1.408245 A    
C86   C102  1.397360 A    
C104  H104  1.082081 S    
O1    Ba1   2.813350 S    
O21   P14   1.751048 S    
C22   H42   1.096025 S    
C95   H71   1.082213 S    
C50   H98   1.082483 S    
C37   C41   1.406318 A    
O15   P16   1.545938 D    
C42   C46   1.414849 A    
C19   H39   1.107472 S    
C36   H108  1.082017 S    
O28   Ba4   2.815535 S    
O30   Ba2   2.736048 S    
O22   C30   1.406537 S    
C33   H105  1.082026 S    
P2    O6    1.552930 S    
C84   C88   1.405324 A    
C35   H107  1.082013 S    
O4    Ba4   2.813388 S    
H1    C29   1.111520 S    
C18   H34   1.111063 S    
P6    C89   1.851917 S    
P12   O32   1.750346 S    
C14   C18   1.529250 S    
C65   C69   1.408217 A    
C2    H6    1.111137 S    
C84   C100  1.415418 A    
O40   C15   1.398146 S    
C95   C99   1.415350 A    
P12   C87   1.847796 S    
C41   H81   1.081670 S    
C34   C54   1.396411 A    
P2    C38   1.849073 S    
C7    H11   1.110694 S    
O2    Ba2   2.813388 S    
N4    O56   1.300532 A    
O17   C21   1.394612 S    
C72   C74   1.404761 A    
C66   C70   1.408343 A    
C46   C78   1.501796 S    
C9    H65   1.110682 S    
P4    Ba4   3.393784 S    
C22   C26   1.529542 S    
C52   H100  1.082491 S    
