data_mof_unit_27266.cif
_audit_creation_date              2012-12-11T16:25:34-0500
_audit_creation_method            fapswitch 2.2
_symmetry_space_group_name_H-M    P1
_symmetry_Int_Tables_number       1
_space_group_crystal_system       triclinic
_cell_length_a                    20.448735
_cell_length_b                    7.267804
_cell_length_c                    13.33831
_cell_angle_alpha                 90.006589
_cell_angle_beta                  103.565471
_cell_angle_gamma                 89.934045
_cell_volume                      1927.00233527

loop_
_atom_site_label
_atom_site_type_symbol
_atom_type_description
_atom_site_fract_x
_atom_site_fract_y
_atom_site_fract_z
_atom_type_partial_charge
O1    O     O_R   0.449520 0.506760 0.599710 -0.541291
O2    O     O_R   0.550480 0.006760 0.400290 -0.542068
O3    O     O_R   0.587930 0.180200 0.595790 -0.546754
O4    O     O_R   0.412070 0.680200 0.404210 -0.545779
C1    C     C_R   0.613778 0.345280 0.619326 0.801622
C2    C     C_R   0.385768 0.845396 0.381567 0.804884
O5    O     O_R   0.452350 0.177380 0.611700 -0.544983
O6    O     O_R   0.547650 0.677380 0.388300 -0.541090
O7    O     O_R   0.413930 0.001760 0.416320 -0.528980
O8    O     O_R   0.586070 0.501760 0.583680 -0.528935
C3    C     C_R   0.435766 0.344886 0.637144 0.744615
C4    C     C_R   0.564756 0.844727 0.363484 0.746435
O9    O     O_3   0.487550 0.337460 0.435880 -0.390723
O10   O     O_3   0.512450 0.837460 0.564120 -0.391521
V1    V     V_3+5 0.502310 0.064670 0.511900 1.411814
V2    V     V_3+5 0.497690 0.564670 0.488100 1.418512
C5    C     C_R   0.609757 0.791703 0.108794 -0.161741
C6    C     C_R   0.391567 0.291025 0.892519 -0.164477
H1    H     H_    0.519441 0.769229 0.161358 0.154639
H2    H     H_    0.481769 0.268488 0.839467 0.155636
H3    H     H_    0.687933 0.764362 0.982182 0.132862
H4    H     H_    0.313303 0.264479 0.019375 0.132623
H5    H     H_    0.583955 0.760827 0.030379 0.102617
H6    H     H_    0.417494 0.260513 0.970923 0.103974
C7    C     C_R   0.603682 0.847617 0.284331 -0.039912
C8    C     C_R   0.397338 0.347882 0.716867 -0.043043
C9    C     C_R   0.925916 0.912812 0.313859 -0.201710
C10   C     C_R   0.075665 0.407737 0.685890 -0.173972
C11   C     C_R   0.890738 0.925379 0.390389 -0.134014
C12   C     C_R   0.110878 0.413989 0.609325 -0.115588
C13   C     C_R   0.821487 0.902943 0.366744 -0.114867
C14   C     C_R   0.179947 0.390507 0.633547 -0.110566
C15   C     C_R   0.784920 0.869705 0.264271 0.023724
C16   C     C_R   0.216344 0.364465 0.736753 0.021845
C17   C     C_R   0.821497 0.849042 0.185092 -0.032697
C18   C     C_R   0.179690 0.347105 0.816025 -0.025256
C19   C     C_R   0.713245 0.855828 0.238734 0.077255
C20   C     C_R   0.287972 0.353526 0.762662 0.067997
C21   C     C_R   0.679588 0.817088 0.135577 0.088529
C22   C     C_R   0.321673 0.315807 0.865867 0.086111
C23   C     C_R   0.715322 0.798502 0.059477 -0.275075
C24   C     C_R   0.285887 0.297862 0.941987 -0.276429
C25   C     C_R   0.785567 0.816061 0.081369 0.405452
C26   C     C_R   0.215578 0.315932 0.919976 0.409892
C27   C     C_R   0.673337 0.876444 0.312118 -0.204345
C28   C     C_R   0.327761 0.376751 0.689439 -0.219604
C29   C     C_R   0.572537 0.800609 0.183119 -0.171027
C30   C     C_R   0.428658 0.300028 0.817953 -0.173983
C31   C     C_R   0.893138 0.868379 0.212519 -0.077416
C32   C     C_R   0.108048 0.367186 0.788250 -0.065459
H7    H     H_    0.694542 0.909185 0.391859 0.094043
H8    H     H_    0.306538 0.412208 0.610064 0.098790
H9    H     H_    0.979288 0.941518 0.333833 0.128625
H10   H     H_    0.022645 0.437651 0.663925 0.130690
H11   H     H_    0.798184 0.915101 0.430860 0.115815
H12   H     H_    0.203234 0.395840 0.569168 0.112618
H13   H     H_    0.917326 0.956050 0.468808 0.132404
H14   H     H_    0.084419 0.440472 0.530291 0.112883
H15   H     H_    0.111586 0.799630 0.492955 0.127760
H16   H     H_    0.885701 0.299667 0.502719 0.131454
C33   C     C_R   0.228997 0.850974 0.032780 -0.106073
C34   C     C_R   0.771136 0.350807 0.966886 -0.108332
C35   C     C_R   0.283211 0.851460 0.986650 -0.185522
C36   C     C_R   0.717082 0.352071 0.013358 -0.190690
C37   C     C_R   0.348018 0.872153 0.046468 -0.207500
C38   C     C_R   0.652250 0.374015 0.953893 -0.205615
C39   C     C_R   0.359726 0.890379 0.154099 0.429345
C40   C     C_R   0.640367 0.392282 0.846279 0.426118
C41   C     C_R   0.305774 0.866471 0.203958 -0.030837
C42   C     C_R   0.694146 0.367228 0.796098 -0.033259
C43   C     C_R   0.238786 0.857182 0.141438 -0.020923
C44   C     C_R   0.761205 0.357399 0.858102 -0.003831
C45   C     C_R   0.316559 0.858129 0.313410 -0.154419
C46   C     C_R   0.682996 0.357366 0.686795 -0.153103
C47   C     C_R   0.260506 0.854647 0.359077 -0.020310
C48   C     C_R   0.738484 0.352317 0.640163 -0.025362
C49   C     C_R   0.193866 0.835557 0.296769 0.048377
C50   C     C_R   0.805698 0.337722 0.701587 0.017985
C51   C     C_R   0.182779 0.850200 0.187266 -0.149695
C52   C     C_R   0.817147 0.351238 0.811853 -0.139669
C53   C     C_R   0.270082 0.870982 0.467317 -0.210832
C54   C     C_R   0.727377 0.362145 0.531273 -0.170917
C55   C     C_R   0.215960 0.861402 0.514408 0.228237
C56   C     C_R   0.780060 0.350570 0.482060 0.200123
C57   C     C_R   0.152346 0.819482 0.454785 -0.147482
C58   C     C_R   0.844798 0.318551 0.540749 -0.127219
C59   C     C_R   0.141035 0.797829 0.347392 0.126945
C60   C     C_R   0.857892 0.305982 0.648114 0.140934
H17   H     H_    0.179403 0.839922 0.982104 0.127933
H18   H     H_    0.820711 0.339073 0.017550 0.131078
H19   H     H_    0.274715 0.841484 0.903581 0.147096
H20   H     H_    0.725750 0.341873 0.096442 0.150988
H21   H     H_    0.389398 0.879443 0.008736 0.129248
H22   H     H_    0.610993 0.381990 0.991865 0.130956
H23   H     H_    0.319545 0.895152 0.516256 0.110038
H24   H     H_    0.677529 0.381482 0.482446 0.125983
O11   O     O_R   0.913760 0.203480 0.916370 -0.549620
O12   O     O_R   0.086240 0.703480 0.083630 -0.542407
O13   O     O_R   0.047590 0.535230 0.888250 -0.554812
O14   O     O_R   0.952410 0.035230 0.111750 -0.551246
C61   C     C_R   0.066136 0.369497 0.864617 0.770590
C62   C     C_R   0.934853 0.869507 0.136378 0.817770
O15   O     O_R   0.912020 0.532880 0.904260 -0.521839
O16   O     O_R   0.087980 0.032880 0.095740 -0.522999
O17   O     O_R   0.949590 0.708460 0.099750 -0.512688
O18   O     O_R   0.050410 0.208460 0.900250 -0.516718
C63   C     C_R   0.886190 0.363863 0.881158 0.685369
C64   C     C_R   0.113471 0.863617 0.119298 0.765230
O19   O     O_3   0.012370 0.375360 0.064120 -0.382507
O20   O     O_3   0.987630 0.875360 0.935880 -0.387000
V3    V     V_3+5 0.997700 0.648160 0.988110 1.456123
V4    V     V_3+5 0.002300 0.148160 0.011890 1.453176
O21   O     O_3   0.423735 0.932945 0.210581 -0.578764
C65   C     C_3   0.442771 0.108081 0.181230 -0.271610
H25   H     H_    0.400886 0.210003 0.168387 0.119451
H26   H     H_    0.464104 0.095334 0.112456 0.124688
H27   H     H_    0.483124 0.164107 0.243858 0.192475
O22   O     O_3   0.576300 0.435340 0.790043 -0.579123
C66   C     C_3   0.557276 0.610553 0.819474 -0.272072
H28   H     H_    0.599196 0.712146 0.832542 0.119586
H29   H     H_    0.535883 0.597851 0.888193 0.125562
H30   H     H_    0.516956 0.666834 0.756757 0.191406
N1    N     N_3   0.225034 0.890238 0.623343 -0.658394
H31   H     H_    0.274727 0.927717 0.656786 0.228038
H32   H     H_    0.216610 0.764956 0.656522 0.228946
N2    N     N_3   0.766566 0.368680 0.371879 -0.660833
H33   H     H_    0.736420 0.257729 0.339562 0.226097
H34   H     H_    0.811156 0.358387 0.346664 0.230872
N3    N     N_3   0.078340 0.719982 0.292248 -0.688642
H35   H     H_    0.089435 0.590744 0.265979 0.233865
H36   H     H_    0.047334 0.691685 0.342420 0.207790
N4    N     N_3   0.923852 0.246496 0.697966 -0.694363
H37   H     H_    0.947087 0.352283 0.745252 0.204510
H38   H     H_    0.920683 0.126377 0.739498 0.248521
O23   O     O_3   0.820646 0.782190 0.005327 -0.552878
C67   C     C_3   0.788528 0.855121 0.907974 -0.207322
H39   H     H_    0.762042 0.986643 0.913785 0.126519
H40   H     H_    0.752988 0.753051 0.863338 0.138624
H41   H     H_    0.827292 0.882987 0.864084 0.168152
O24   O     O_3   0.180349 0.283832 0.996027 -0.551998
C68   C     C_3   0.212745 0.355765 0.093448 -0.211712
H42   H     H_    0.239600 0.486550 0.087747 0.127842
H43   H     H_    0.248001 0.252658 0.137891 0.139214
H44   H     H_    0.174103 0.384695 0.137454 0.166521

loop_
_geom_bond_atom_site_label_1
_geom_bond_atom_site_label_2
_ccdc_geom_bond_type
C38   C40   A    
C35   C37   A    
N2    H33   S    
C9    C11   A    
C23   C25   A    
O1    C3    A    
O2    C4    A    
C2    O7    A    
C43   C51   A    
C65   H25   S    
O3    V1    S    
O23   C67   S    
C21   C23   A    
O18   V4    S    
O5    C3    A    
C52   C63   S    
C5    H5    S    
C46   C48   A    
C6    H6    S    
C20   C22   A    
C56   C58   A    
O21   C65   S    
C68   H43   S    
C10   H10   S    
C53   H23   S    
C58   C60   A    
N1    H32   S    
C27   H7    S    
C28   H8    S    
O12   C64   A    
C62   O17   A    
O15   V3    S    
C5    C21   A    
C1    C46   S    
C41   C43   A    
C6    C22   A    
O20   V3    S    
C34   C36   A    
C40   O22   S    
O22   C66   S    
C10   C32   A    
N4    H37   S    
C37   C39   A    
C17   C31   A    
C13   C15   A    
C41   C45   A    
C17   C25   A    
C7    C29   A    
C16   C18   A    
C8    C30   A    
C38   H22   S    
C33   C43   A    
O5    V1    S    
O17   V3    S    
C26   O24   S    
C11   C13   A    
C45   C47   A    
C24   C26   A    
C67   H41   S    
C53   C55   A    
C33   H17   S    
C49   C51   A    
C56   N2    S    
C54   H24   S    
C57   C59   A    
N1    H31   S    
O24   C68   S    
C67   H40   S    
O19   V4    S    
C48   C54   A    
C31   C62   S    
O16   V4    S    
O11   V4    S    
H16   C58   S    
C47   C53   A    
C12   H14   S    
C3    C8    S    
C42   C44   A    
C15   C19   A    
C44   C52   A    
C39   C41   A    
C36   C38   A    
O4    V2    S    
H15   C57   S    
C42   C46   A    
O6    C4    A    
O13   V3    S    
O14   C62   A    
C50   C52   A    
C34   C44   A    
O1    V2    S    
C25   O23   S    
O2    V1    S    
C47   C49   A    
H2    C30   S    
C66   H29   S    
H3    C23   S    
N4    H38   S    
O13   C61   A    
C11   H13   S    
O14   V4    S    
C54   C56   A    
C68   H44   S    
O4    C2    A    
C36   H20   S    
C19   C27   A    
C7    C27   A    
O16   C64   A    
C18   C32   A    
C2    C45   S    
N3    H35   S    
C66   H30   S    
C50   C60   A    
C61   O18   A    
N2    H34   S    
O12   V3    S    
C55   C57   A    
C16   C20   A    
C33   C35   A    
C5    C29   A    
C48   C50   A    
C67   H39   S    
O3    C1    A    
C6    C30   A    
C65   H26   S    
C66   H28   S    
C9    H9    S    
C4    C7    S    
C13   H11   S    
C59   N3    S    
C10   C12   A    
C39   O21   S    
C1    O8    A    
C19   C21   A    
O8    V2    S    
C68   H42   S    
C12   C14   A    
H4    C24   S    
C34   H18   S    
C22   C24   A    
C37   H21   S    
C15   C17   A    
C51   C64   S    
H1    C29   S    
O7    V1    S    
C20   C28   A    
C65   H27   S    
C18   C26   A    
C8    C28   A    
O11   C63   A    
C49   C59   A    
C32   C61   S    
O6    V2    S    
O9    V2    S    
C35   H19   S    
C40   C42   A    
C60   N4    S    
O10   V1    S    
O15   C63   A    
C55   N1    S    
C14   H12   S    
C9    C31   A    
C14   C16   A    
N3    H36   S    
