data_mof_unit_45359.cif
_audit_creation_date              2012-12-10T17:50:33-0500
_audit_creation_method            fapswitch 2.2
_symmetry_space_group_name_H-M    P1
_symmetry_Int_Tables_number       1
_space_group_crystal_system       triclinic
_cell_length_a                    15.705183
_cell_length_b                    10.694556
_cell_length_c                    9.947363
_cell_angle_alpha                 92.738397
_cell_angle_beta                  92.243308
_cell_angle_gamma                 91.632312
_cell_volume                      1666.80041763

loop_
_atom_site_label
_atom_site_type_symbol
_atom_type_description
_atom_site_fract_x
_atom_site_fract_y
_atom_site_fract_z
_atom_type_partial_charge
C1    C     C_R   0.502888 0.259529 0.496550 0.860749
C2    C     C_R   0.602756 0.087886 0.833186 0.134292
C3    C     C_R   0.559234 0.977316 0.863645 0.460427
C4    C     C_R   0.338082 0.499547 0.497850 0.883660
C5    C     C_R   0.515647 0.904982 0.760719 -0.155377
C6    C     C_R   0.510358 0.945460 0.627081 -0.008978
C7    C     C_R   0.537951 0.066822 0.604827 0.014018
C8    C     C_R   0.504806 0.124345 0.489834 -0.143975
C9    C     C_R   0.456348 0.054580 0.386240 0.167587
C10   C     C_R   0.438941 0.927404 0.403036 0.214268
C11   C     C_R   0.475747 0.871700 0.515383 -0.157188
C12   C     C_3   0.083066 0.502560 0.500210 0.129880
C13   C     C_R   0.354906 0.407552 0.113660 0.148754
C14   C     C_R   0.310093 0.303238 0.051569 0.312873
C15   C     C_R   0.325835 0.268831 0.917612 0.318584
C16   C     C_R   0.492384 0.739343 0.503986 0.919726
C17   C     C_R   0.385465 0.338632 0.849884 -0.233657
C18   C     C_R   0.441135 0.426378 0.920913 0.001753
C19   C     C_R   0.434710 0.439868 0.063172 -0.039379
C20   C     C_R   0.560034 0.565872 0.078337 0.396522
C21   C     C_R   0.558631 0.568174 0.935176 0.356465
C22   C     C_R   0.661894 0.500797 0.502521 0.930133
C23   C     C_3   0.978696 0.574055 0.615378 -0.178396
C24   C     C_3   0.969456 0.386588 0.514182 0.196167
C25   C     C_3   0.020681 0.434466 0.397734 0.131069
C26   C     C_1   0.249112 0.500386 0.494271 -0.153969
C27   C     C_1   0.750877 0.503124 0.508556 -0.120968
C28   C     C_3   0.032281 0.455089 0.616880 0.151278
C29   C     C_3   0.044568 0.355940 0.274533 -0.776963
C30   C     C_3   0.374777 0.853501 0.310119 -0.823886
C31   C     C_3   0.298314 0.516629 0.143202 -0.762822
C32   C     C_3   0.933331 0.253955 0.524169 -0.871104
C33   C     C_3   0.070819 0.399957 0.742856 -0.802842
C34   C     C_3   0.917094 0.504937 0.511136 0.103508
C35   C     C_3   0.422696 0.115277 0.260390 -0.725284
C36   C     C_3   0.654194 0.164369 0.940050 -0.794290
C37   C     C_3   0.030751 0.621877 0.497415 -0.217123
C38   C     C_3   0.967254 0.553117 0.393386 -0.181570
C39   C     C_1   0.173833 0.501417 0.495180 -0.021466
C40   C     C_1   0.826256 0.504816 0.511903 -0.010184
C41   C     C_R   0.593714 0.130279 0.702648 -0.182947
Cl1   Cl    Cl    0.556991 0.928175 0.029899 -0.588111
Cl2   Cl    Cl    0.636712 0.660287 0.172300 -0.460386
Cl3   Cl    Cl    0.222888 0.235138 0.130134 -0.619853
Cl4   Cl    Cl    0.264764 0.149864 0.827453 -0.566900
Cl5   Cl    Cl    0.635645 0.659117 0.857044 -0.513287
H1    H     H_    0.481101 0.822485 0.789654 0.204607
H2    H     H_    0.353375 0.764931 0.353612 0.212909
H3    H     H_    0.315816 0.907160 0.296448 0.249475
H4    H     H_    0.402639 0.832075 0.211044 0.278484
H5    H     H_    0.335815 0.601136 0.181632 0.245511
H6    H     H_    0.264640 0.542349 0.048536 0.215505
H7    H     H_    0.249374 0.492207 0.215651 0.258916
H8    H     H_    0.986115 0.187165 0.524735 0.260475
H9    H     H_    0.898382 0.247385 0.618513 0.246958
H10   H     H_    0.888978 0.229824 0.436606 0.247835
H11   H     H_    0.019306 0.373762 0.810337 0.248050
H12   H     H_    0.386812 0.320122 0.743903 0.242161
H13   H     H_    0.106610 0.315399 0.714303 0.278747
H14   H     H_    0.114951 0.470058 0.796631 0.242877
H15   H     H_    0.390062 0.050173 0.184099 0.262955
H16   H     H_    0.376513 0.187343 0.289169 0.252644
H17   H     H_    0.476437 0.157637 0.207308 0.251546
H18   H     H_    0.684134 0.249088 0.899061 0.225144
H19   H     H_    0.612233 0.195424 0.021763 0.248263
H20   H     H_    0.705573 0.107032 0.982613 0.272704
H21   H     H_    0.938799 0.593065 0.301575 0.176679
H22   H     H_    0.057787 0.718228 0.490097 0.174736
H23   H     H_    0.959599 0.630778 0.704984 0.173794
H24   H     H_    0.627132 0.216148 0.679605 0.166168
H25   H     H_    0.985878 0.320866 0.217527 0.242418
H26   H     H_    0.083424 0.413894 0.208906 0.258674
H27   H     H_    0.081600 0.275172 0.307073 0.282839
N1    N     N_R   0.499210 0.498800 0.142780 -0.164845
N2    N     N_R   0.499180 0.498720 0.857170 -0.153936
O1    O     O_R   0.500000 0.316780 0.614690 -0.639587
O2    O     O_R   0.499990 0.316750 0.385360 -0.620623
O3    O     O_R   0.376780 0.500000 0.614650 -0.624936
O4    O     O_R   0.376770 0.499980 0.385310 -0.621733
O5    O     O_R   0.500010 0.683250 0.614640 -0.606781
O6    O     O_R   0.500000 0.683220 0.385310 -0.558092
O7    O     O_R   0.623230 0.500020 0.614690 -0.574856
O8    O     O_R   0.623220 0.500000 0.385350 -0.567146
Zn1   Zn    Zn3+2 0.500010 0.500020 0.653130 0.990789
Zn2   Zn    Zn3+2 0.499990 0.499980 0.346870 0.999866

loop_
_geom_bond_atom_site_label_1
_geom_bond_atom_site_label_2
_ccdc_geom_bond_type
C3    Cl1   S    
C18   N2    A    
C1    C8    S    
C1    O2    A    
C23   H23   S    
C31   H6    S    
O5    Zn1   S    
O1    Zn1   S    
C7    C8    A    
C5    H1    S    
C12   C28   S    
C34   C40   S    
C22   O7    A    
C30   H2    S    
C5    C6    A    
C36   H20   S    
C26   C39   T    
C29   H27   S    
C2    C41   A    
C37   H22   S    
C18   C19   A    
C12   C37   S    
C8    C9    A    
C9    C10   A    
C32   H9    S    
C17   H12   S    
C29   H26   S    
C30   H4    S    
O2    Zn2   S    
C33   H13   S    
C13   C14   A    
C32   H8    S    
C25   C29   S    
C13   C19   A    
C24   C25   S    
C4    O4    A    
C6    C11   A    
C36   H19   S    
C23   C37   S    
C24   C34   S    
C16   O5    A    
C24   C32   S    
C4    O3    A    
C37   C38   S    
C25   C38   S    
C11   C16   S    
C10   C30   S    
C27   C40   T    
C23   C34   S    
C17   C18   A    
C20   N1    A    
C35   H15   S    
C23   C28   S    
C31   H7    S    
O8    Zn2   S    
C30   H3    S    
C28   C33   S    
C33   H14   S    
O7    Zn1   S    
C22   C27   S    
C15   Cl4   S    
C38   H21   S    
O4    Zn2   S    
C20   Cl2   S    
C14   Cl3   S    
C21   Cl5   S    
C2    C36   S    
C15   C17   A    
C33   H11   S    
C34   C38   S    
C1    O1    A    
C13   C31   S    
C19   N1    A    
C24   C28   S    
C31   H5    S    
C3    C5    A    
C4    C26   S    
C6    C7    A    
C21   N2    A    
C12   C25   S    
C22   O8    A    
C12   C39   S    
C2    C3    A    
C16   O6    A    
C35   H16   S    
C7    C41   A    
N1    Zn2   S    
N2    Zn1   S    
C10   C11   A    
O3    Zn1   S    
C20   C21   A    
C9    C35   S    
C14   C15   A    
C35   H17   S    
C36   H18   S    
C32   H10   S    
O6    Zn2   S    
C41   H24   S    
C29   H25   S    
