data_mof_unit_44367.cif
_audit_creation_date              2012-12-10T19:45:03-0500
_audit_creation_method            fapswitch 2.2
_symmetry_space_group_name_H-M    P1
_symmetry_Int_Tables_number       1
_space_group_crystal_system       triclinic
_cell_length_a                    15.077692
_cell_length_b                    10.808143
_cell_length_c                    13.665868
_cell_angle_alpha                 90.322209
_cell_angle_beta                  89.943151
_cell_angle_gamma                 89.689704
_cell_volume                      2226.94611084

loop_
_atom_site_label
_atom_site_type_symbol
_atom_type_description
_atom_site_fract_x
_atom_site_fract_y
_atom_site_fract_z
_atom_type_partial_charge
C1    C     C_R   0.498114 0.262129 0.499487 0.794466
C2    C     C_R   0.578788 0.880215 0.668917 0.077181
C3    C     C_R   0.456509 0.102686 0.235468 0.029383
C4    C     C_R   0.543525 0.897319 0.764535 0.029387
C5    C     C_R   0.414322 0.159555 0.155729 -0.177786
C6    C     C_R   0.585720 0.840445 0.844267 -0.177770
C7    C     C_R   0.338812 0.232738 0.169839 -0.137165
C8    C     C_R   0.661234 0.767274 0.830143 -0.137157
C9    C     C_R   0.465979 0.932555 0.421351 -0.206703
C10   C     C_R   0.534031 0.067445 0.578645 -0.206708
C11   C     C_R   0.503191 0.871667 0.501577 -0.093044
C12   C     C_R   0.501889 0.737871 0.500513 0.794473
C13   C     C_R   0.496817 0.128332 0.498420 -0.093045
C14   C     C_R   0.537625 0.939372 0.581700 -0.003970
C15   C     C_R   0.462386 0.060629 0.418296 -0.003968
C16   C     C_R   0.328432 0.500034 0.500048 0.809356
C17   C     C_R   0.671567 0.499965 0.499953 0.809358
C18   C     C_R   0.552891 0.418053 0.792820 0.017841
C19   C     C_R   0.447106 0.581943 0.207180 0.017824
C20   C     C_R   0.447267 0.582042 0.793604 0.027793
C21   C     C_R   0.552732 0.417956 0.206396 0.027806
C22   C     C_R   0.446203 0.584309 0.896729 -0.006459
C23   C     C_R   0.046375 0.522778 0.322700 -0.221246
C24   C     C_R   0.553793 0.415687 0.103271 -0.006457
C25   C     C_R   0.500057 0.500063 0.948152 0.076317
C26   C     C_R   0.499938 0.499931 0.051848 0.076316
C27   C     C_R   0.554056 0.415974 0.895935 -0.011589
C28   C     C_R   0.445937 0.584017 0.104064 -0.011599
C29   C     C_R   0.392832 0.668411 0.949385 -0.215896
C30   C     C_R   0.607161 0.331582 0.050614 -0.215911
C31   C     C_R   0.392496 0.667986 0.052179 -0.229585
C32   C     C_R   0.607493 0.332001 0.947820 -0.229593
C33   C     C_R   0.814648 0.488252 0.588398 -0.265691
C34   C     C_R   0.953625 0.477191 0.677314 -0.221245
C35   C     C_R   0.185351 0.511728 0.411610 -0.265690
C36   C     C_R   0.768366 0.499894 0.499905 -0.075828
C37   C     C_R   0.231633 0.500097 0.500099 -0.075831
C38   C     C_R   0.814749 0.511302 0.411402 -0.253472
C39   C     C_R   0.185250 0.488689 0.588605 -0.253468
C40   C     C_R   0.907145 0.511390 0.410818 0.108110
C41   C     C_R   0.092854 0.488588 0.589194 0.108099
C42   C     C_R   0.953517 0.499970 0.499983 0.063609
C43   C     C_R   0.046482 0.500000 0.500031 0.063611
C44   C     C_R   0.907018 0.488451 0.589092 0.109843
C45   C     C_R   0.303514 0.248377 0.263484 -0.116894
C46   C     C_R   0.092981 0.511520 0.410921 0.109855
C47   C     C_R   0.953905 0.522733 0.322650 -0.218378
C48   C     C_R   0.046094 0.477241 0.677364 -0.218376
C49   C     C_R   0.536583 0.025934 0.216739 0.089365
C50   C     C_R   0.616713 0.050912 0.265247 -0.138238
C51   C     C_R   0.690986 0.975401 0.249368 -0.138989
C52   C     C_R   0.685995 0.874952 0.184769 -0.104951
C53   C     C_R   0.606913 0.850388 0.135325 -0.124109
C54   C     C_R   0.532603 0.925982 0.150662 -0.171698
C55   C     C_R   0.463453 0.974070 0.783282 0.089369
C56   C     C_R   0.696526 0.751647 0.736491 -0.116918
C57   C     C_R   0.383315 0.949092 0.734784 -0.138233
C58   C     C_R   0.309037 0.024589 0.750684 -0.138995
C59   C     C_R   0.314031 0.125029 0.815292 -0.104948
C60   C     C_R   0.393123 0.149596 0.864725 -0.124097
C61   C     C_R   0.467438 0.074013 0.849369 -0.171703
C62   C     C_R   0.343994 0.191749 0.343570 -0.107762
C63   C     C_R   0.656033 0.808266 0.656409 -0.107792
C64   C     C_R   0.421235 0.119788 0.331076 0.077168
Cu1   Cu    Cu3+1 0.500010 0.499980 0.597420 0.941902
Cu2   Cu    Cu3+1 0.499990 0.500020 0.402580 0.941897
H1    H     H_    0.778908 0.478525 0.656794 0.150380
H2    H     H_    0.648638 0.265570 0.088905 0.146904
H3    H     H_    0.350609 0.733517 0.091089 0.137089
H4    H     H_    0.649375 0.266463 0.908910 0.137085
H5    H     H_    0.779080 0.520415 0.342921 0.154611
H6    H     H_    0.220918 0.479590 0.657082 0.154618
H7    H     H_    0.918968 0.531552 0.253754 0.139160
H8    H     H_    0.081031 0.468426 0.746260 0.139162
H9    H     H_    0.081436 0.531590 0.253843 0.138772
H10   H     H_    0.918563 0.468376 0.746173 0.138772
H11   H     H_    0.307453 0.277057 0.107928 0.127877
H12   H     H_    0.221092 0.521459 0.343214 0.150370
H13   H     H_    0.692600 0.722957 0.892050 0.127878
H14   H     H_    0.244439 0.304149 0.273996 0.126308
H15   H     H_    0.755607 0.695894 0.725968 0.126325
H16   H     H_    0.315411 0.204526 0.415717 0.111913
H17   H     H_    0.684609 0.795495 0.584256 0.111914
H18   H     H_    0.440816 0.148407 0.082519 0.140155
H19   H     H_    0.559230 0.851587 0.917482 0.140147
H20   H     H_    0.621599 0.128470 0.315423 0.125048
H21   H     H_    0.752387 0.994605 0.287338 0.127062
H22   H     H_    0.743442 0.816265 0.172919 0.117315
H23   H     H_    0.437912 0.880042 0.361096 0.151809
H24   H     H_    0.603121 0.772462 0.085428 0.130125
H25   H     H_    0.471603 0.905591 0.112265 0.129200
H26   H     H_    0.378425 0.871542 0.684600 0.125049
H27   H     H_    0.247629 0.005383 0.712720 0.127056
H28   H     H_    0.256581 0.183707 0.827156 0.117313
H29   H     H_    0.396918 0.227514 0.914630 0.130123
H30   H     H_    0.528444 0.094408 0.887760 0.129191
H31   H     H_    0.562100 0.119959 0.638899 0.151805
H32   H     H_    0.594069 0.354174 0.751453 0.121693
H33   H     H_    0.405928 0.645822 0.248546 0.121695
H34   H     H_    0.406198 0.645968 0.752845 0.120265
H35   H     H_    0.593800 0.354028 0.247155 0.120265
H36   H     H_    0.351355 0.734422 0.911095 0.146903
N1    N     N_R   0.499960 0.499900 0.743810 -0.179691
N2    N     N_R   0.500040 0.500100 0.256190 -0.179690
O1    O     O_R   0.500000 0.319630 0.582270 -0.583386
O2    O     O_R   0.500000 0.680370 0.417730 -0.583387
O3    O     O_R   0.499990 0.319660 0.417730 -0.581636
O4    O     O_R   0.500010 0.680340 0.582270 -0.581635
O5    O     O_R   0.370260 0.499960 0.582280 -0.589650
O6    O     O_R   0.629740 0.500040 0.417720 -0.589654
O7    O     O_R   0.370250 0.499990 0.417740 -0.587002
O8    O     O_R   0.629750 0.500010 0.582260 -0.586997

loop_
_geom_bond_atom_site_label_1
_geom_bond_atom_site_label_2
_ccdc_geom_bond_type
C40   C47   A    
C12   O2    A    
C57   H26   S    
Cu2   O3    S    
C17   O6    A    
C8    C56   A    
C3    C49   S    
C61   H30   S    
C56   H15   S    
C39   C41   A    
C20   N1    A    
C53   C54   A    
C2    C63   A    
C6    H19   S    
C7    C45   A    
C35   C37   A    
C58   H27   S    
C24   C26   A    
C11   C14   A    
C49   C54   A    
C45   C62   A    
C33   C36   A    
C62   C64   A    
C21   N2    A    
C22   C25   A    
C8    H13   S    
C15   C64   S    
C17   C36   S    
Cu2   O7    S    
Cu1   O4    S    
C16   C37   S    
C7    H11   S    
C21   H35   S    
C40   C42   A    
C62   H16   S    
C59   C60   A    
C23   C46   A    
C41   C43   A    
C42   C44   A    
Cu2   O2    S    
Cu1   O1    S    
C1    O1    A    
C16   O5    A    
C23   C47   A    
C51   C52   A    
C48   H8    S    
C52   H22   S    
C34   C44   A    
C47   H7    S    
C4    C6    A    
C10   C14   A    
C9    H23   S    
C5    C7    A    
C5    H18   S    
C19   H33   S    
C6    C8    A    
C58   C59   A    
C3    C64   A    
C63   H17   S    
C60   C61   A    
C10   H31   S    
C2    C4    A    
Cu1   O8    S    
Cu2   N2    S    
C19   N2    A    
C20   H34   S    
C39   H6    S    
C50   C51   A    
C56   C63   A    
Cu2   O6    S    
C19   C28   A    
C9    C11   A    
Cu1   O5    S    
C1    O3    A    
C59   H28   S    
C20   C22   A    
C49   C50   A    
C55   C57   A    
C4    C55   S    
C1    C13   S    
C42   C43   A    
Cu1   N1    S    
C51   H21   S    
C17   O8    A    
C52   C53   A    
C33   H1    S    
C12   O4    A    
C38   H5    S    
C27   C32   A    
C33   C44   A    
C28   C31   A    
C18   C27   A    
C23   H9    S    
C3    C5    A    
C10   C13   A    
C32   H4    S    
C11   C12   S    
C25   C27   A    
C35   H12   S    
C26   C28   A    
C13   C15   A    
C25   C26   A    
C54   H25   S    
C37   C39   A    
C30   C32   A    
C57   C58   A    
C38   C40   A    
C55   C61   A    
C36   C38   A    
C41   C48   A    
C29   H36   S    
C45   H14   S    
C18   N1    A    
C9    C15   A    
C2    C14   S    
C43   C46   A    
C24   C30   A    
C50   H20   S    
C60   H29   S    
C31   H3    S    
C34   C48   A    
C29   C31   A    
Cu1   Cu2   S    
C21   C24   A    
C22   C29   A    
C53   H24   S    
C18   H32   S    
C35   C46   A    
C30   H2    S    
C16   O7    A    
C34   H10   S    
