data_mof_unit_12718.cif
_audit_creation_date              2012-12-10T17:25:18-0500
_audit_creation_method            fapswitch 2.2
_symmetry_space_group_name_H-M    P1
_symmetry_Int_Tables_number       1
_space_group_crystal_system       triclinic
_cell_length_a                    27.822861
_cell_length_b                    10.860149
_cell_length_c                    9.568518
_cell_angle_alpha                 90.349645
_cell_angle_beta                  89.975851
_cell_angle_gamma                 92.620992
_cell_volume                      2888.14900947

loop_
_atom_site_label
_atom_site_type_symbol
_atom_type_description
_atom_site_fract_x
_atom_site_fract_y
_atom_site_fract_z
_atom_type_partial_charge
C1    C     C_R   0.503956 0.263140 0.500322 0.809003
C2    C     C_R   0.278825 0.503926 0.628395 0.305429
C3    C     C_R   0.253474 0.496063 0.500875 0.338330
C4    C     C_R   0.101732 0.499408 0.495473 -0.043699
C5    C     C_R   0.125266 0.391836 0.458593 -0.019285
C6    C     C_R   0.098087 0.285703 0.420726 -0.148710
C7    C     C_R   0.129457 0.606304 0.532667 -0.030495
C8    C     C_R   0.354513 0.498841 0.500326 -0.069928
C9    C     C_R   0.645379 0.500630 0.499694 -0.038567
C10   C     C_R   0.972150 0.389654 0.466587 0.042577
C11   C     C_R   0.976460 0.612096 0.524037 0.043025
C12   C     C_R   0.407489 0.499612 0.500032 0.824075
C13   C     C_R   0.949067 0.501081 0.495594 0.067541
C14   C     C_R   0.943057 0.280739 0.445251 -0.205787
C15   C     C_R   0.893189 0.282119 0.447515 -0.145637
C16   C     C_R   0.870193 0.391759 0.471786 -0.021141
C17   C     C_R   0.897940 0.501469 0.496264 -0.044083
C18   C     C_R   0.874417 0.611539 0.521489 -0.018376
C19   C     C_R   0.823915 0.609902 0.521588 0.530084
C20   C     C_R   0.819784 0.394053 0.473285 0.534007
C21   C     C_R   0.720574 0.483945 0.373629 -0.112364
C22   C     C_R   0.670467 0.483075 0.374112 -0.234998
C23   C     C_R   0.497508 0.737687 0.501563 0.788636
C24   C     C_R   0.671322 0.519024 0.624690 -0.225233
C25   C     C_R   0.721460 0.520052 0.623861 -0.102530
C26   C     C_R   0.746227 0.502336 0.498420 0.362797
C27   C     C_R   0.023234 0.390315 0.460996 0.042867
C28   C     C_R   0.050612 0.500086 0.495113 0.068854
C29   C     C_R   0.027518 0.610479 0.528999 0.042017
C30   C     C_R   0.048169 0.284752 0.421502 -0.207376
C31   C     C_R   0.106433 0.713341 0.569284 -0.145027
C32   C     C_R   0.951565 0.721445 0.545927 -0.206318
C33   C     C_R   0.901641 0.720825 0.544948 -0.148145
C34   C     C_R   0.592480 0.500265 0.499978 0.773882
C35   C     C_R   0.056573 0.715597 0.567875 -0.204143
C36   C     C_R   0.532136 0.123027 0.754449 -0.151221
C37   C     C_R   0.526846 0.065160 0.883382 -0.156353
C38   C     C_R   0.503099 0.950264 0.891207 -0.139630
C39   C     C_R   0.489177 0.887977 0.768927 -0.155633
C40   C     C_R   0.499368 0.939776 0.635605 0.093279
C41   C     C_R   0.513782 0.065670 0.630752 0.098525
C42   C     C_R   0.508545 0.129450 0.502938 -0.120081
C43   C     C_R   0.501112 0.063130 0.378423 -0.198876
C44   C     C_R   0.497041 0.935913 0.380027 -0.190441
C45   C     C_R   0.175736 0.392907 0.460367 0.511947
C46   C     C_R   0.495931 0.872441 0.507087 -0.113528
C47   C     C_R   0.564065 0.664379 0.145048 -0.185380
C48   C     C_R   0.595371 0.746202 0.073520 0.252784
C49   C     C_R   0.594748 0.745491 0.928787 -0.275793
C50   C     C_R   0.563902 0.663974 0.856541 -0.201757
C51   C     C_R   0.531517 0.580577 0.925582 0.198574
C52   C     C_R   0.531557 0.580623 0.075192 0.151898
C53   C     C_R   0.470155 0.422984 0.073499 -0.063861
C54   C     C_R   0.470178 0.423000 0.925388 -0.068542
C55   C     C_R   0.179859 0.603481 0.533082 0.579235
C56   C     C_R   0.278719 0.489033 0.374627 -0.161355
C57   C     C_R   0.328799 0.490266 0.374163 -0.219333
C58   C     C_R   0.329216 0.506161 0.627032 -0.286099
Cu1   Cu    Cu3+1 0.500000 0.499990 0.640660 0.923842
Cu2   Cu    Cu3+1 0.500000 0.500010 0.359340 0.932885
H1    H     H_    0.348464 0.512737 0.725400 0.157488
H2    H     H_    0.259372 0.483347 0.276435 0.152678
H3    H     H_    0.126921 0.796411 0.599834 0.188127
H4    H     H_    0.969483 0.810303 0.562061 0.136974
H5    H     H_    0.652954 0.533112 0.722914 0.161624
H6    H     H_    0.884435 0.807069 0.562665 0.186028
H7    H     H_    0.741119 0.534077 0.720728 0.139841
H8    H     H_    0.042043 0.801298 0.600484 0.138999
H9    H     H_    0.498324 0.109511 0.279014 0.160955
H10   H     H_    0.551539 0.211504 0.752992 0.164394
H11   H     H_    0.539881 0.111147 0.977622 0.140190
H12   H     H_    0.496342 0.908006 0.991953 0.137760
H13   H     H_    0.468948 0.801808 0.782240 0.170518
H14   H     H_    0.493849 0.887335 0.280986 0.163413
H15   H     H_    0.445719 0.359941 0.128567 0.135595
H16   H     H_    0.566200 0.671529 0.254992 0.213691
H17   H     H_    0.618356 0.808770 0.870840 0.161558
H18   H     H_    0.566793 0.671854 0.746484 0.217896
H19   H     H_    0.445771 0.359922 0.869448 0.144314
H20   H     H_    0.115326 0.202219 0.390132 0.187230
H21   H     H_    0.651427 0.468820 0.276223 0.165855
H22   H     H_    0.739539 0.470548 0.276263 0.139967
H23   H     H_    0.872669 0.196152 0.430290 0.188236
H24   H     H_    0.957549 0.191614 0.428820 0.137501
H25   H     H_    0.030298 0.199654 0.388108 0.138719
H26   H     H_    0.347331 0.484530 0.274941 0.163781
N1    N     N_R   0.201892 0.497468 0.498408 -0.456220
N2    N     N_R   0.797761 0.502122 0.497837 -0.468660
N3    N     N_R   0.500460 0.501210 0.147910 -0.189519
N4    N     N_R   0.500480 0.501290 0.852040 -0.197105
O1    O     O_R   0.500000 0.319640 0.618810 -0.587336
O2    O     O_2   0.792952 0.289016 0.451320 -0.536418
O3    O     O_2   0.206679 0.706004 0.567038 -0.531781
O4    O     O_2   0.801101 0.715238 0.544274 -0.541777
O5    O     O_R   0.500000 0.319660 0.381240 -0.579479
O6    O     O_R   0.430260 0.500010 0.618770 -0.582885
O7    O     O_R   0.430270 0.500030 0.381200 -0.580440
O8    O     O_R   0.500000 0.680340 0.618760 -0.612668
O9    O     O_R   0.500000 0.680360 0.381190 -0.598578
O10   O     O_R   0.569730 0.499970 0.618800 -0.602355
O11   O     O_R   0.569740 0.499990 0.381230 -0.600372
O12   O     O_2   0.198528 0.289876 0.426082 -0.542317
N5    N     N_2   0.253825 0.511954 0.757681 -0.415870
H27   H     H_    0.272721 0.561790 0.833473 0.253633
C59   C     C_3   0.234716 0.395016 0.809958 -0.661123
H28   H     H_    0.214384 0.410402 0.907934 0.230161
H29   H     H_    0.264496 0.333288 0.832644 0.223361
H30   H     H_    0.209755 0.349709 0.733049 0.251447
N6    N     N_2   0.625792 0.833937 0.147044 -0.433008
H31   H     H_    0.641584 0.902071 0.085303 0.258436
C60   C     C_3   0.659233 0.783825 0.245128 -0.642304
H32   H     H_    0.682438 0.859779 0.290552 0.243044
H33   H     H_    0.682528 0.717949 0.191250 0.227516
H34   H     H_    0.639790 0.737297 0.332651 0.222920

loop_
_geom_bond_atom_site_label_1
_geom_bond_atom_site_label_2
_ccdc_geom_bond_type
C10   C27   A    
C23   O9    A    
C21   C26   A    
C41   C42   A    
C60   H32   S    
C25   H7    S    
C7    C55   A    
C55   O3    S    
Cu2   O9    S    
C52   N3    A    
C53   C54   A    
C57   H26   S    
C40   C46   A    
C59   H29   S    
C28   C29   A    
C35   H8    S    
C36   C37   A    
C45   N1    A    
C47   H16   S    
C54   N4    A    
N6    C60   S    
C51   N4    A    
C5    C6    A    
C9    C22   A    
C15   C16   A    
C56   C57   A    
C18   C19   A    
C8    C58   A    
C44   C46   A    
C16   C17   A    
C34   O10   A    
C14   H24   S    
C8    C12   S    
C16   C20   A    
C58   H1    S    
C48   N6    S    
Cu1   Cu2   S    
C43   H9    S    
C23   C46   S    
C21   C22   A    
C27   C30   A    
Cu1   O10   S    
C36   C41   A    
C53   H15   S    
C4    C7    A    
C50   H18   S    
C4    C28   A    
C36   H10   S    
C33   H6    S    
C50   C51   A    
C59   H30   S    
C38   H12   S    
C34   O11   A    
C7    C31   A    
C3    N1    S    
C51   C52   A    
C22   H21   S    
C31   H3    S    
C24   C25   A    
C32   H4    S    
C60   H33   S    
C19   N2    A    
C10   C14   A    
C39   C40   A    
C15   H23   S    
C25   C26   A    
Cu2   N3    S    
C5    C45   A    
Cu1   N4    S    
C43   C44   A    
C37   C38   A    
C8    C57   A    
C20   O2    S    
C3    C56   A    
C6    H20   S    
C47   C48   A    
C1    O5    A    
C17   C18   A    
N5    C59   S    
Cu1   O1    S    
C30   H25   S    
C44   H14   S    
C12   O7    A    
C19   O4    S    
C24   H5    S    
C40   C41   A    
C6    C30   A    
C11   C32   A    
Cu2   O7    S    
C37   H11   S    
C53   N3    A    
C9    C34   S    
C31   C35   A    
C42   C43   A    
Cu2   O11   S    
N5    H27   S    
C54   H19   S    
C48   C49   A    
C4    C5    A    
C10   C13   A    
C2    C58   A    
C9    C24   A    
C47   C52   A    
C59   H28   S    
C29   C35   A    
C13   C17   A    
C32   C33   A    
C2    C3    A    
N6    H31   S    
C11   C13   A    
C38   C39   A    
C2    N5    S    
C20   N2    A    
C49   H17   S    
Cu1   O6    S    
C60   H34   S    
C56   H2    S    
C39   H13   S    
C55   N1    A    
C18   C33   A    
C45   O12   S    
Cu2   O5    S    
C1    C42   S    
C23   O8    A    
C21   H22   S    
C11   C29   A    
C26   N2    S    
C49   C50   A    
C1    O1    A    
C27   C28   A    
Cu1   O8    S    
C14   C15   A    
C12   O6    A    
