data_mof_unit_17274.cif
_audit_creation_date              2012-12-10T17:26:20-0500
_audit_creation_method            fapswitch 2.2
_symmetry_space_group_name_H-M    P1
_symmetry_Int_Tables_number       1
_space_group_crystal_system       triclinic
_cell_length_a                    10.187002
_cell_length_b                    10.33438
_cell_length_c                    27.694003
_cell_angle_alpha                 91.211749
_cell_angle_beta                  81.868822
_cell_angle_gamma                 94.286787
_cell_volume                      2877.97369586

loop_
_atom_site_label
_atom_site_type_symbol
_atom_type_description
_atom_site_fract_x
_atom_site_fract_y
_atom_site_fract_z
_atom_type_partial_charge
C1    C     C_R   0.553920 0.735389 0.494895 0.763362
C2    C     C_R   0.445960 0.264330 0.500837 0.797539
C3    C     C_R   0.443112 0.540184 0.901198 -0.218449
C4    C     C_R   0.438527 0.522411 0.104428 -0.217175
C5    C     C_R   0.480274 0.658152 0.876353 -0.102633
C6    C     C_R   0.409378 0.402710 0.128765 -0.104652
C7    C     C_R   0.485518 0.776000 0.902863 0.369412
C8    C     C_R   0.352424 0.295102 0.104971 0.367772
C9    C     C_R   0.424582 0.423670 0.874426 -0.038288
C10   C     C_R   0.483783 0.633577 0.129835 -0.040581
C11   C     C_R   0.505898 0.522624 0.646472 -0.168167
C12   C     C_R   0.491917 0.489307 0.353046 -0.160465
C13   C     C_R   0.460925 0.648298 0.029414 0.087402
C14   C     C_R   0.397215 0.419090 0.977487 0.088082
C15   C     C_R   0.383196 0.417513 0.029146 0.000424
C16   C     C_R   0.449009 0.654994 0.979118 0.004574
C17   C     C_R   0.426986 0.529601 0.054303 -0.015913
C18   C     C_R   0.429130 0.538157 0.952694 -0.016041
C19   C     C_R   0.515253 0.754546 0.054619 -0.253214
C20   C     C_R   0.389821 0.303512 0.949795 -0.252710
C21   C     C_R   0.523061 0.750146 0.104549 0.472711
C22   C     C_R   0.398232 0.304563 0.899009 0.468962
C23   C     C_R   0.501699 0.503784 0.593915 0.900381
C24   C     C_R   0.498066 0.496216 0.405966 0.890944
C25   C     C_R   0.456055 0.774285 0.954266 0.293082
C26   C     C_R   0.326843 0.307864 0.056578 0.296385
C27   C     C_2   0.578205 0.873788 0.484312 0.203772
C28   C     C_2   0.421021 0.124995 0.492204 0.227780
C29   C     C_2   0.503605 0.927104 0.454138 0.217124
C30   C     C_2   0.496955 0.068236 0.454682 0.207102
C31   C     C_2   0.923665 0.494956 0.510070 0.494280
C32   C     C_2   0.068588 0.468444 0.504853 0.639520
C33   C     C_R   0.509207 0.654383 0.825236 0.626356
C34   C     C_R   0.435955 0.395264 0.176941 0.622949
C35   C     C_R   0.436171 0.429982 0.823384 0.557583
C36   C     C_R   0.490768 0.623342 0.179933 0.558168
C37   C     C_R   0.585195 0.467125 0.721256 -0.154716
C38   C     C_R   0.597287 0.522209 0.269596 -0.205101
C39   C     C_R   0.589743 0.452004 0.671121 0.144247
C40   C     C_R   0.607126 0.520213 0.319236 0.134780
C41   C     C_R   0.420157 0.609802 0.673029 0.105308
C42   C     C_R   0.367888 0.458111 0.335959 0.079466
C43   C     C_R   0.411048 0.616902 0.724226 0.173213
C44   C     C_R   0.359129 0.467697 0.285891 0.177940
C45   C     C_R   0.494622 0.545545 0.747923 0.174696
C46   C     C_R   0.474896 0.497217 0.253026 0.202303
H1    H     H_    0.684946 0.547228 0.243604 0.170340
H2    H     H_    0.648155 0.411983 0.740229 0.181583
H3    H     H_    0.559132 0.840517 0.035490 0.198903
H4    H     H_    0.384458 0.210023 0.966847 0.199394
N1    N     N_R   0.480009 0.543487 0.800094 -0.359422
N2    N     N_R   0.467677 0.505481 0.202006 -0.358920
N3    N     N_2   0.842700 0.448890 0.480020 -0.012367
N4    N     N_2   0.157300 0.551110 0.519980 0.030117
O1    O     O_R   0.431060 0.692470 0.504020 -0.610329
O2    O     O_R   0.568940 0.307530 0.495980 -0.601193
O3    O     O_R   0.651120 0.659650 0.491200 -0.629271
O4    O     O_R   0.348880 0.340350 0.508800 -0.555019
O5    O     O_R   0.389980 0.516390 0.577660 -0.575895
O6    O     O_R   0.610020 0.483610 0.422340 -0.585901
O7    O     O_R   0.610040 0.483570 0.564830 -0.623602
O8    O     O_R   0.389960 0.516430 0.435170 -0.579165
O9    O     O_2   0.567721 0.759463 0.800643 -0.486922
O10   O     O_2   0.431734 0.279239 0.198731 -0.483641
O11   O     O_2   0.520015 0.729566 0.206673 -0.473715
O12   O     O_2   0.404062 0.324088 0.796916 -0.479043
Zn1   Zn    Zn3+2 0.353060 0.521910 0.508560 1.024302
Zn2   Zn    Zn3+2 0.646940 0.478090 0.491440 0.976583
N5    N     N_2   0.342634 0.688729 0.648070 -0.280220
H5    H     H_    0.250950 0.708015 0.666468 0.239594
C47   C     C_3   0.415047 0.801844 0.624695 -0.686913
H6    H     H_    0.445072 0.872860 0.652413 0.225960
H7    H     H_    0.350755 0.848891 0.602120 0.257224
H8    H     H_    0.505363 0.774330 0.600544 0.223240
N6    N     N_2   0.253093 0.414324 0.368818 -0.256696
H9    H     H_    0.163757 0.441869 0.360616 0.241758
C48   C     C_3   0.248858 0.278686 0.381464 -0.636861
H10   H     H_    0.264293 0.216749 0.348226 0.204490
H11   H     H_    0.150379 0.247912 0.401996 0.268239
H12   H     H_    0.326494 0.263136 0.404621 0.238272
O13   O     O_3   0.329581 0.050368 0.523641 -0.782330
H13   H     H_    0.288247 0.108311 0.549511 0.339050
O14   O     O_3   0.661769 0.952294 0.509563 -0.778157
H14   H     H_    0.701942 0.896587 0.531381 0.336010
O15   O     O_3   0.109294 0.350453 0.486957 -0.765885
H15   H     H_    0.030892 0.286868 0.490072 0.333020
O16   O     O_3   0.876591 0.565815 0.550717 -0.762360
H16   H     H_    0.808014 0.619346 0.541756 0.372101
O17   O     O_3   0.117613 0.667719 0.535478 -0.687413
H17   H     H_    0.198256 0.716246 0.544382 0.377130
O18   O     O_3   0.897207 0.390994 0.439025 -0.753791
H18   H     H_    0.820950 0.361140 0.422198 0.374382
N7    N     N_2   0.310735 0.685895 0.752684 -0.323642
H19   H     H_    0.214646 0.652114 0.749225 0.222952
C49   C     C_3   0.331688 0.826106 0.754005 -0.612399
H20   H     H_    0.310202 0.860615 0.792328 0.277473
H21   H     H_    0.263434 0.870305 0.732226 0.208427
H22   H     H_    0.435706 0.859758 0.739542 0.268997
N8    N     N_2   0.233599 0.458728 0.268429 -0.321112
H23   H     H_    0.170231 0.527605 0.282650 0.215527
C50   C     C_3   0.168886 0.330148 0.264089 -0.680212
H24   H     H_    0.131965 0.320780 0.228265 0.262805
H25   H     H_    0.082864 0.314968 0.293356 0.211660
H26   H     H_    0.237726 0.252949 0.266498 0.282392
O19   O     O_3   0.515030 0.891704 0.878167 -0.700530
H27   H     H_    0.554287 0.956665 0.899870 0.342606
O20   O     O_3   0.318184 0.180130 0.129805 -0.700933
H28   H     H_    0.320238 0.107324 0.105880 0.352399
N9    N     N_2   0.731307 0.558518 0.335065 -0.273425
H29   H     H_    0.766176 0.651407 0.324554 0.233078
C51   C     C_3   0.832035 0.466895 0.323307 -0.732393
H30   H     H_    0.920453 0.498723 0.340975 0.244710
H31   H     H_    0.863059 0.461627 0.283244 0.226090
H32   H     H_    0.793983 0.369008 0.336903 0.243929
N10   N     N_2   0.674832 0.360143 0.647227 -0.297816
H33   H     H_    0.741812 0.394898 0.618263 0.285909
C52   C     C_3   0.610081 0.233956 0.638769 -0.693871
H34   H     H_    0.685863 0.166640 0.623591 0.247664
H35   H     H_    0.538480 0.240810 0.612335 0.224920
H36   H     H_    0.556842 0.193443 0.673604 0.257425
O21   O     O_3   0.574248 0.857214 0.128444 -0.679616
H37   H     H_    0.593977 0.931198 0.105694 0.337935
O22   O     O_3   0.387109 0.189488 0.872965 -0.679426
H38   H     H_    0.362972 0.116271 0.895835 0.335265
O23   O     O_3   0.421711 0.885330 0.980322 -0.783750
H39   H     H_    0.387968 0.946264 0.958670 0.343413
O24   O     O_3   0.237537 0.221288 0.037154 -0.773365
H40   H     H_    0.175864 0.178496 0.063951 0.358850
N11   N     N_2   0.583147 0.143814 0.419018 -0.342489
H41   H     H_    0.680160 0.151775 0.426055 0.258547
C53   C     C_3   0.573982 0.108586 0.368708 -0.776743
H42   H     H_    0.628382 0.184883 0.344504 0.248134
H43   H     H_    0.468712 0.100183 0.362116 0.256021
H44   H     H_    0.619042 0.015049 0.359317 0.257787
N12   N     N_2   0.436260 0.851185 0.420047 -0.342020
H45   H     H_    0.465555 0.759007 0.412360 0.211137
C54   C     C_3   0.294754 0.863177 0.423280 -0.642696
H46   H     H_    0.254678 0.802523 0.394375 0.222570
H47   H     H_    0.273989 0.965440 0.417836 0.233791
H48   H     H_    0.243650 0.829550 0.459385 0.277849

loop_
_geom_bond_atom_site_label_1
_geom_bond_atom_site_label_2
_ccdc_geom_bond_type
O16   H16   S    
N7    H19   S    
C27   C29   D    
C8    C26   A    
C14   C18   A    
C49   H20   S    
C53   H44   S    
O13   H13   S    
C49   H22   S    
O22   H38   S    
C48   H10   S    
C23   O5    A    
C54   H47   S    
C42   N6    S    
C50   H24   S    
O8    Zn1   S    
C41   N5    S    
C19   C21   A    
N9    C51   S    
O15   H15   S    
C44   N8    S    
C9    C22   A    
C45   N1    S    
N10   H33   S    
C46   N2    S    
C3    C18   A    
N12   C54   S    
C11   C23   S    
N5    C47   S    
N3    Zn2   S    
C25   O23   S    
C12   C42   A    
O5    Zn1   S    
O14   H14   S    
N10   C52   S    
C5    C33   A    
N3    O18   S    
C20   H4    S    
O20   H28   S    
C7    O19   S    
C36   N2    A    
C24   O6    A    
C1    C27   S    
C50   H25   S    
C41   C43   A    
N5    H5    S    
C42   C44   A    
C32   N4    D    
C44   C46   A    
C48   H11   S    
C10   C21   A    
C54   H48   S    
C31   O16   S    
C13   C19   A    
C14   C20   A    
N12   H45   S    
N4    O17   S    
C4    C6    A    
C52   H36   S    
O18   H18   S    
C5    C7    A    
C36   O11   S    
C15   C26   A    
C6    C8    A    
N4    Zn1   S    
C35   O12   S    
C3    C5    A    
O2    Zn2   S    
C6    C34   A    
C12   C40   A    
N6    H9    S    
C29   C30   S    
C3    C9    A    
C1    O3    A    
C43   C45   A    
C19   H3    S    
N8    H23   S    
C33   O9    S    
C34   O10   S    
O21   H37   S    
C51   H31   S    
C31   N3    D    
C37   H2    S    
C11   C39   A    
N6    C48   S    
C38   H1    S    
C4    C17   A    
N8    C50   S    
C20   C22   A    
C50   H26   S    
C39   N10   S    
C35   N1    A    
O23   H39   S    
O3    Zn2   S    
C4    C10   A    
O24   H40   S    
C8    O20   S    
C22   O22   S    
N11   H41   S    
C54   H46   S    
C48   H12   S    
C16   C25   A    
C15   C17   A    
C24   O8    A    
C51   H30   S    
C29   N12   S    
C28   O13   S    
C31   C32   S    
C53   H43   S    
C47   H8    S    
O1    Zn1   S    
C49   H21   S    
C40   N9    S    
C33   N1    A    
C30   N11   S    
O19   H27   S    
C12   C24   S    
C34   N2    A    
C7    C25   A    
C13   C17   A    
C52   H35   S    
C1    O1    A    
C47   H6    S    
C37   C39   A    
C2    O2    A    
C52   H34   S    
C38   C40   A    
O7    Zn2   S    
N7    C49   S    
C32   O15   S    
C28   C30   D    
C43   N7    S    
C10   C36   A    
C11   C41   A    
C51   H32   S    
C26   O24   S    
C21   O21   S    
C2    O4    A    
C38   C46   A    
C27   O14   S    
O4    Zn1   S    
C23   O7    A    
O6    Zn2   S    
C16   C18   A    
C13   C16   A    
C47   H7    S    
C9    C35   A    
C14   C15   A    
C2    C28   S    
O17   H17   S    
N9    H29   S    
C37   C45   A    
C53   H42   S    
N11   C53   S    
