data_mof_unit_44543.cif
_audit_creation_date              2012-10-26T18:32:22-0400
_audit_creation_method            fapswitch 2.2
_symmetry_space_group_name_H-M    P1
_symmetry_Int_Tables_number       1
_space_group_crystal_system       triclinic
_cell_length_a                    12.323044
_cell_length_b                    13.23531
_cell_length_c                    15.882308
_cell_angle_alpha                 76.491923
_cell_angle_beta                  101.151564
_cell_angle_gamma                 117.362743
_cell_volume                      2225.79294677

loop_
_atom_site_label
_atom_site_type_symbol
_atom_type_description
_atom_site_fract_x
_atom_site_fract_y
_atom_site_fract_z
_atom_type_partial_charge
C1    C     C_R   0.855010 0.286460 0.506700 0.568286
C2    C     C_R   0.229317 0.834991 0.461680 -0.041499
C3    C     C_R   0.811127 0.084853 0.572702 -0.086198
C4    C     C_R   0.999834 0.499712 0.659583 0.585988
C5    C     C_R   0.729722 0.969739 0.592478 -0.133054
C6    C     C_R   0.608462 0.931418 0.556436 -0.077896
C7    C     C_R   0.568210 0.007215 0.495425 0.053961
C8    C     C_R   0.656274 0.119914 0.466398 -0.005087
C9    C     C_R   0.443589 0.974542 0.462130 -0.031113
C10   C     C_R   0.411299 0.046445 0.390568 0.056490
C11   C     C_R   0.503850 0.150543 0.354222 0.448757
C12   C     C_3   0.090454 0.433496 0.076863 0.525180
C13   C     C_R   0.624486 0.187054 0.392227 -0.057886
C14   C     C_R   0.349871 0.872695 0.499340 -0.081177
C15   C     C_R   0.197104 0.905682 0.391607 -0.097119
C16   C     C_R   0.145496 0.713649 0.485592 0.539267
C17   C     C_R   0.774139 0.162166 0.512661 0.035731
C18   C     C_R   0.395024 0.431917 0.669688 -0.072003
C19   C     C_R   0.755002 0.627826 0.371695 0.028048
C20   C     C_R   0.665908 0.667652 0.341265 -0.107852
C21   C     C_R   0.571541 0.639916 0.391190 0.276880
C22   C     C_R   0.561361 0.561716 0.471100 -0.044695
C23   C     C_3   0.002449 0.488146 0.086541 -0.043047
C24   C     C_R   0.660417 0.528538 0.502698 0.058984
C25   C     C_R   0.462120 0.517275 0.524847 -0.061922
C26   C     C_R   0.489245 0.488225 0.615180 -0.099298
C27   C     C_R   0.605612 0.493117 0.646902 0.360618
C28   C     C_R   0.000443 0.500587 0.340534 0.551446
C29   C     C_R   0.662658 0.471101 0.590299 0.270861
C30   C     C_R   0.336820 0.490298 0.493573 0.565793
C31   C     C_R   0.272836 0.397437 0.634724 0.336929
C32   C     C_3   0.081005 0.419084 0.977105 0.365677
C33   C     C_3   0.867452 0.418256 0.947233 -0.246853
C34   C     C_3   0.048855 0.614479 0.032163 0.084164
C35   C     C_3   0.866572 0.424440 0.043642 0.019599
C36   C     C_1   0.999870 0.498418 0.251519 0.167654
C37   C     C_3   0.001249 0.482868 0.920299 -0.111117
C38   C     C_3   0.052788 0.609749 0.936387 -0.248057
C39   C     C_1   0.000886 0.494471 0.177038 0.166656
C40   C     C_1   0.997532 0.488680 0.826360 0.078848
C41   C     C_1   0.997261 0.494729 0.749723 0.120935
C42   C     C_R   0.287098 0.011693 0.356769 0.434657
Cu1   Cu    Cu3+1 0.098280 0.475420 0.519630 1.171161
Cu2   Cu    Cu3+1 0.901720 0.524580 0.480370 1.031471
F1    F     F_    0.208097 0.513750 0.097830 -0.491852
F2    F     F_    0.477924 0.219693 0.283773 -0.493685
F3    F     F_    0.252655 0.077705 0.288338 -0.503846
F4    F     F_    0.633636 0.467409 0.734000 -0.598437
F5    F     F_    0.303075 0.503572 0.407094 -0.525366
H1    H     H_    0.978396 0.645357 0.031324 0.121912
H2    H     H_    0.675309 0.726736 0.280115 0.184465
H3    H     H_    0.810558 0.459668 0.904920 0.179876
H4    H     H_    0.822077 0.328549 0.934614 0.248818
H5    H     H_    0.822962 0.482968 0.039593 0.139862
H6    H     H_    0.145558 0.663499 0.915353 0.238968
H7    H     H_    0.995731 0.651019 0.894094 0.122777
H8    H     H_    0.127176 0.284786 0.300369 0.381676
H9    H     H_    0.393857 0.645679 0.918613 0.380309
H10   H     H_    0.932366 0.179444 0.847464 0.394418
H11   H     H_    0.095214 0.089025 0.684744 0.363963
H12   H     H_    0.103507 0.876630 0.361318 0.159768
H13   H     H_    0.652608 0.891369 0.376682 0.331740
H14   H     H_    0.486336 0.271638 0.504613 0.348625
H15   H     H_    0.736315 0.198651 0.234253 0.382644
H16   H     H_    0.247411 0.805635 0.191658 0.403192
H17   H     H_    0.368449 0.818556 0.556804 0.142285
H18   H     H_    0.902294 0.113633 0.606270 0.198101
H19   H     H_    0.549573 0.841274 0.575478 0.140028
H20   H     H_    0.759550 0.910779 0.638558 0.139759
H21   H     H_    0.692712 0.268987 0.363427 0.166734
H22   H     H_    0.415199 0.399877 0.737191 0.246893
H23   H     H_    0.829642 0.656512 0.332629 0.158244
N1    N     N_R   0.246300 0.438200 0.549400 -0.253818
N2    N     N_R   0.754300 0.561180 0.451130 -0.241154
O1    O     O_R   0.972520 0.318130 0.524690 -0.471694
O2    O     O_2   0.171380 0.268140 0.145599 -0.089242
O3    O     O_3   0.130893 0.354158 0.258088 -0.437898
O4    O     O_2   0.309105 0.424926 0.000708 -0.108784
O5    O     O_2   0.225699 0.459077 0.850297 -0.244564
O6    O     O_3   0.314324 0.624297 0.939736 -0.477496
O7    O     O_2   0.106022 0.219406 0.985419 -0.116136
O8    O     O_2   0.902445 0.189938 0.004812 -0.219848
O9    O     O_3   0.971093 0.262589 0.851518 -0.473367
O10   O     O_2   0.214963 0.248344 0.785002 -0.195681
O11   O     O_2   0.043757 0.272214 0.691879 -0.245393
O12   O     O_R   0.806530 0.359650 0.491530 -0.428396
O13   O     O_3   0.139011 0.159715 0.643535 -0.533770
O14   O     O_2   0.397591 0.688436 0.285945 -0.083619
O15   O     O_2   0.436260 0.731582 0.433848 -0.318558
O16   O     O_3   0.595442 0.865610 0.324629 -0.495145
O17   O     O_2   0.738469 0.302169 0.649247 -0.221617
O18   O     O_2   0.532573 0.256621 0.675560 -0.203649
O19   O     O_3   0.566721 0.268431 0.518534 -0.528887
O20   O     O_2   0.638844 0.309474 0.094753 -0.167118
O21   O     O_2   0.723912 0.189066 0.066712 -0.148518
O22   O     O_3   0.800860 0.273776 0.210119 -0.525861
O23   O     O_R   0.083030 0.479240 0.637150 -0.458332
O24   O     O_2   0.302238 0.729511 0.062905 -0.084812
O25   O     O_2   0.185416 0.842915 0.022151 -0.224221
O26   O     O_3   0.180867 0.730591 0.178860 -0.497896
O27   O     O_R   0.917040 0.520750 0.603990 -0.496533
O28   O     O_R   0.193470 0.640350 0.508470 -0.479167
O29   O     O_R   0.027480 0.681870 0.475310 -0.528641
O30   O     O_R   0.082960 0.479250 0.396010 -0.406536
O31   O     O_R   0.916970 0.520760 0.362850 -0.547167
O32   O     O_2   0.958053 0.212103 0.165142 -0.195865
S1    S     S_3+6 0.083735 0.310431 0.160638 0.196999
S2    S     S_3+6 0.235280 0.481653 0.940566 0.146495
S3    S     S_3+6 0.013644 0.268322 0.957971 0.123405
S4    S     S_3+6 0.163943 0.269637 0.692083 0.082428
S5    S     S_3+6 0.494393 0.729991 0.359770 0.074621
S6    S     S_3+6 0.627062 0.321851 0.611312 0.093146
S7    S     S_3+6 0.754713 0.294847 0.103387 0.092766
S8    S     S_3+6 0.185007 0.731827 0.073422 0.119483

loop_
_geom_bond_atom_site_label_1
_geom_bond_atom_site_label_2
_ccdc_geom_bond_type
C27   F4    S    
Cu1   N1    S    
C8    C13   A    
C10   C42   A    
C29   S6    S    
C19   C20   A    
C18   C26   A    
Cu1   Cu2   S    
C24   N2    A    
O25   S8    D    
C7    C8    A    
O13   S4    S    
Cu2   O31   S    
C33   H3    S    
C12   C23   S    
C26   C27   A    
H10   O9    S    
C20   H2    S    
C5    C6    A    
O24   S8    D    
C27   C29   A    
C4    C41   S    
C25   C30   A    
H16   O26   S    
O4    S2    D    
Cu1   O30   S    
C5    H20   S    
C24   C29   A    
O14   S5    D    
H11   O13   S    
C38   H6    S    
C22   C25   A    
O9    S3    S    
C35   S7    S    
C2    C16   S    
C9    C10   A    
H9    O6    S    
C6    H19   S    
C21   C22   A    
C12   C32   S    
C35   H5    S    
Cu1   O1    S    
C19   H23   S    
O16   S5    S    
Cu2   O12   S    
C21   S5    S    
O20   S7    D    
C19   N2    A    
C33   H4    S    
C34   H1    S    
C32   S3    S    
C1    O1    A    
O8    S3    D    
H8    O3    S    
O3    S1    S    
O26   S8    S    
H15   O22   S    
O11   S4    D    
C30   N1    A    
O18   S6    D    
C25   C26   A    
O10   S4    D    
O17   S6    D    
C9    C14   A    
C37   C38   S    
C28   O30   A    
C16   O29   A    
C28   O31   A    
C23   C34   S    
C4    O27   A    
C15   H12   S    
C32   C37   S    
C14   H17   S    
Cu2   N2    S    
C2    C15   A    
C16   O28   A    
C40   C41   T    
C30   F5    S    
O7    S3    D    
O2    S1    D    
C23   C35   S    
C32   S2    S    
C22   C24   A    
O22   S7    S    
C34   S8    S    
C18   H22   S    
C7    C9    A    
H14   O19   S    
C34   C38   S    
C36   C39   T    
C3    H18   S    
Cu1   O23   S    
C15   C42   A    
C12   F1    S    
C3    C5    A    
C12   S1    S    
Cu2   O27   S    
C6    C7    A    
C37   C40   S    
O6    S2    S    
C1    C17   S    
C8    C17   A    
O15   S5    D    
Cu2   O29   S    
Cu1   O28   S    
C11   C13   A    
C13   H21   S    
O21   S7    D    
C23   C39   S    
H13   O16   S    
C33   C35   S    
C31   S4    S    
O5    S2    D    
C3    C17   A    
C42   F3    S    
C2    C14   A    
C33   C37   S    
C31   N1    A    
C10   C11   A    
O19   S6    S    
C1    O12   A    
C38   H7    S    
C20   C21   A    
C28   C36   S    
O32   S1    D    
C11   F2    S    
C18   C31   A    
C4    O23   A    
