data_mof_unit_17365.cif
_audit_creation_date              2012-12-10T18:07:39-0500
_audit_creation_method            fapswitch 2.2
_symmetry_space_group_name_H-M    P1
_symmetry_Int_Tables_number       1
_space_group_crystal_system       triclinic
_cell_length_a                    11.54332
_cell_length_b                    12.645061
_cell_length_c                    13.094869
_cell_angle_alpha                 82.365321
_cell_angle_beta                  90.568909
_cell_angle_gamma                 102.499371
_cell_volume                      1849.20960875

loop_
_atom_site_label
_atom_site_type_symbol
_atom_type_description
_atom_site_fract_x
_atom_site_fract_y
_atom_site_fract_z
_atom_type_partial_charge
C1    C     C_R   0.487245 0.438741 0.691271 0.834009
C2    C     C_R   0.698728 0.603293 0.911584 -0.148564
C3    C     C_R   0.644048 0.531228 0.846014 -0.166245
C4    C     C_R   0.717770 0.500958 0.500193 0.902200
C5    C     C_R   0.486179 0.533170 0.131719 -0.326519
C6    C     C_R   0.649184 0.678677 0.169296 0.356096
C7    C     C_R   0.470035 0.399262 0.800825 -0.114385
C8    C     C_R   0.335778 0.088212 0.346432 -0.411611
C9    C     C_R   0.644566 0.801786 0.625680 0.687176
C10   C     C_R   0.668765 0.905505 0.657402 -0.355181
C11   C     C_R   0.611380 0.984582 0.611649 -0.275619
C12   C     C_R   0.546738 0.598035 0.200785 -0.247289
C13   C     C_R   0.529071 0.961388 0.533083 0.054876
C14   C     C_R   0.503557 0.853908 0.506020 0.128852
C15   C     C_R   0.472627 0.040853 0.479583 0.010093
C16   C     C_R   0.516731 0.561120 0.308924 0.936790
C17   C     C_R   0.391482 0.011165 0.400789 0.110227
C18   C     C_R   0.367843 0.905187 0.375751 -0.260196
C19   C     C_R   0.423447 0.827908 0.427485 -0.184528
C20   C     C_R   0.495501 0.149925 0.499176 -0.165161
C21   C     C_R   0.359396 0.194663 0.371312 0.689539
C22   C     C_R   0.282245 0.499121 0.499663 0.881514
C23   C     C_R   0.374719 0.312289 0.833272 -0.190708
C24   C     C_1   0.838842 0.502564 0.500327 -0.183081
C25   C     C_1   0.940909 0.501517 0.499954 -0.006430
C26   C     C_1   0.059192 0.499022 0.499355 -0.007162
C27   C     C_1   0.161216 0.497771 0.499173 -0.189115
C28   C     C_R   0.694191 0.687597 0.068443 0.453760
C29   C     C_3   0.690343 0.837345 0.240589 0.134077
C30   C     C_3   0.758611 0.893361 0.326274 -0.311409
C31   C     C_3   0.740432 0.009582 0.324575 -0.980299
C32   C     C_3   0.824603 0.755669 0.654984 -0.362482
C33   C     C_3   0.766071 0.850595 0.969310 -0.370864
C34   C     C_R   0.337922 0.291416 0.936020 -0.158221
C35   C     C_3   0.184951 0.245718 0.326357 -0.340029
C36   C     C_R   0.390658 0.361319 0.005174 -0.185131
C37   C     C_R   0.486465 0.450581 0.973104 0.137030
C38   C     C_R   0.533957 0.460407 0.872846 0.067514
C39   C     C_R   0.537206 0.530282 0.036595 0.024626
C40   C     C_R   0.643080 0.608622 0.004517 -0.037214
H1    H     H_    0.306781 0.882046 0.315048 0.156188
H2    H     H_    0.356269 0.341849 0.083225 0.164125
H3    H     H_    0.264564 0.223923 0.961217 0.145035
H4    H     H_    0.688995 0.530014 0.774154 0.174117
H5    H     H_    0.593499 0.830042 0.253803 0.126760
H6    H     H_    0.718300 0.889396 0.166189 0.152097
H7    H     H_    0.728376 0.845091 0.401977 0.224311
H8    H     H_    0.854919 0.896448 0.316678 0.228125
H9    H     H_    0.780644 0.061511 0.253209 0.264338
H10   H     H_    0.783530 0.044960 0.392245 0.270627
H11   H     H_    0.644455 0.009708 0.327546 0.278321
H12   H     H_    0.276030 0.066200 0.284629 0.157633
H13   H     H_    0.863418 0.812254 0.710447 0.154582
H14   H     H_    0.849561 0.793679 0.574252 0.165638
H15   H     H_    0.864371 0.682857 0.670262 0.194682
H16   H     H_    0.840733 0.923046 0.964648 0.196747
H17   H     H_    0.685365 0.875932 0.994403 0.136853
H18   H     H_    0.752772 0.827319 0.890670 0.180018
H19   H     H_    0.149252 0.319696 0.302155 0.197522
H20   H     H_    0.153961 0.214768 0.407350 0.163461
H21   H     H_    0.147879 0.184828 0.274214 0.154871
H22   H     H_    0.556757 0.180611 0.556254 0.154436
H23   H     H_    0.634077 0.062882 0.639162 0.162407
H24   H     H_    0.731658 0.925174 0.717446 0.152569
H25   H     H_    0.403772 0.748860 0.402936 0.206173
H26   H     H_    0.784400 0.655073 0.888550 0.187536
H27   H     H_    0.403211 0.479152 0.158051 0.194855
H28   H     H_    0.325605 0.263598 0.778464 0.154257
N1    N     N_R   0.440320 0.222190 0.444690 -0.139541
N2    N     N_R   0.559060 0.776980 0.554780 -0.174736
O1    O     O_R   0.471500 0.366730 0.627160 -0.628339
O2    O     O_3   0.700445 0.721276 0.669974 -0.593685
O3    O     O_3   0.796370 0.765415 0.038490 -0.586096
O4    O     O_3   0.309889 0.275187 0.317287 -0.596530
O5    O     O_R   0.509620 0.544830 0.662520 -0.559164
O6    O     O_R   0.646490 0.410960 0.482310 -0.619421
O7    O     O_R   0.684610 0.589050 0.517670 -0.569965
O8    O     O_R   0.490380 0.455170 0.337480 -0.558776
O9    O     O_R   0.528500 0.633270 0.372840 -0.632288
O10   O     O_R   0.315390 0.410950 0.482330 -0.582470
O11   O     O_R   0.353510 0.589040 0.517690 -0.632479
O12   O     O_3   0.717386 0.733632 0.241345 -0.606840
Zn1   Zn    Zn3+2 0.474550 0.381080 0.476390 0.977645
Zn2   Zn    Zn3+2 0.525450 0.618920 0.523610 0.973469

loop_
_geom_bond_atom_site_label_1
_geom_bond_atom_site_label_2
_ccdc_geom_bond_type
C35   O4    S    
C33   H18   S    
C6    O12   S    
C36   H2    S    
C9    O2    S    
C5    H27   S    
C32   O2    S    
C26   C27   T    
C1    O1    A    
C30   H8    S    
C36   C37   A    
C37   C38   A    
C11   H23   S    
C6    C12   A    
O9    Zn2   S    
C4    C24   S    
O5    Zn2   S    
C28   C40   A    
C35   H19   S    
C18   C19   A    
O8    Zn1   S    
C6    C28   A    
C12   C16   S    
C3    C38   A    
N2    Zn2   S    
C9    C10   A    
C8    H12   S    
C32   H15   S    
C16   O8    A    
C33   H16   S    
C13   C14   A    
C14   N2    A    
C31   H9    S    
O10   Zn1   S    
C28   O3    S    
O6    Zn1   S    
C32   H14   S    
C8    C21   A    
O1    Zn1   S    
C15   C20   A    
C3    H4    S    
C1    O5    A    
C22   O11   A    
C30   H7    S    
C9    N2    A    
C5    C12   A    
C18   H1    S    
C39   C40   A    
O7    Zn2   S    
C25   C26   S    
C21   O4    S    
C21   N1    A    
C35   H20   S    
C23   H28   S    
C29   C30   S    
N1    Zn1   S    
C23   C34   A    
C17   C18   A    
C35   H21   S    
C24   C25   T    
C33   O3    S    
C22   C27   S    
C5    C39   A    
C20   N1    A    
C31   H10   S    
C32   H13   S    
O11   Zn2   S    
C15   C17   A    
C33   H17   S    
C1    C7    S    
C14   C19   A    
C10   H24   S    
C34   H3    S    
C31   H11   S    
C2    H26   S    
C8    C17   A    
C29   H6    S    
C16   O9    A    
C13   C15   A    
C2    C3    A    
C22   O10   A    
C4    O7    A    
C37   C39   A    
C11   C13   A    
C30   C31   S    
C7    C23   A    
C7    C38   A    
C19   H25   S    
C34   C36   A    
C20   H22   S    
C4    O6    A    
C10   C11   A    
C2    C40   A    
C29   O12   S    
C29   H5    S    
