data_mof_unit_43412.cif
_audit_creation_date              2012-12-10T20:55:01-0500
_audit_creation_method            fapswitch 2.2
_symmetry_space_group_name_H-M    P1
_symmetry_Int_Tables_number       1
_space_group_crystal_system       triclinic
_cell_length_a                    15.769105
_cell_length_b                    15.079593
_cell_length_c                    10.643776
_cell_angle_alpha                 89.931539
_cell_angle_beta                  90.533609
_cell_angle_gamma                 89.545859
_cell_volume                      2530.81013075

loop_
_atom_site_label
_atom_site_type_symbol
_atom_type_description
_atom_site_fract_x
_atom_site_fract_y
_atom_site_fract_z
_atom_type_partial_charge
C1    C     C_R   0.338764 0.500274 0.500076 0.970402
C2    C     C_R   0.661192 0.499611 0.499276 0.835792
C3    C     C_R   0.957425 0.415105 0.521412 0.360430
C4    C     C_R   0.045766 0.415683 0.525608 0.352845
C5    C     C_1   0.824327 0.497225 0.519277 0.136679
C6    C     C_1   0.176204 0.499573 0.526518 0.170570
C7    C     C_1   0.250618 0.500630 0.512567 -0.081300
C8    C     C_1   0.749594 0.498532 0.507904 -0.159121
C9    C     C_R   0.462663 0.953733 0.399544 0.286413
C10   C     C_R   0.532786 0.953204 0.603527 0.292851
C11   C     C_R   0.497805 0.905321 0.501575 -0.268815
C12   C     C_R   0.531760 0.047281 0.604317 0.360938
C13   C     C_R   0.461335 0.047838 0.399958 0.375445
C14   C     C_R   0.497405 0.095245 0.501404 -0.281234
C15   C     C_1   0.499135 0.807139 0.500686 0.344883
C16   C     C_1   0.499313 0.193029 0.500154 0.207935
C17   C     C_R   0.498790 0.500001 0.260050 0.970095
C18   C     C_R   0.501745 0.499836 0.739976 0.966406
C19   C     C_R   0.652226 0.544539 0.135450 -0.338654
C20   C     C_R   0.656039 0.538713 0.874130 -0.299686
C21   C     C_R   0.727483 0.565431 0.073002 0.432460
C22   C     C_R   0.730017 0.558146 0.942067 0.484731
C23   C     C_R   0.579144 0.520865 0.936689 -0.027495
C24   C     C_R   0.577726 0.522334 0.067764 0.003503
C25   C     C_R   0.501793 0.499685 0.128099 -0.208329
C26   C     C_R   0.503691 0.499044 0.872097 -0.206544
C27   C     C_R   0.428346 0.474850 0.062901 0.308338
C28   C     C_R   0.429092 0.475130 0.933451 0.321472
C29   C     C_R   0.954852 0.574896 0.564265 0.268704
C30   C     C_R   0.043106 0.575574 0.567184 0.307435
C31   C     C_R   0.913037 0.495599 0.536242 -0.226026
C32   C     C_R   0.087612 0.496797 0.542857 -0.221648
H1    H     H_    0.653173 0.544147 0.236824 0.151171
H2    H     H_    0.660048 0.535901 0.772816 0.164762
N1    N     N_1   0.500000 0.270550 0.500000 -0.100301
N2    N     N_1   0.500000 0.729450 0.500000 -0.076983
O1    O     O_R   0.378020 0.573650 0.500040 -0.586889
O2    O     O_R   0.621980 0.573650 0.499960 -0.610976
O3    O     O_R   0.378020 0.426320 0.500100 -0.609885
O4    O     O_R   0.621980 0.426320 0.499900 -0.620099
O5    O     O_R   0.500000 0.573680 0.316780 -0.604842
O6    O     O_R   0.500000 0.573680 0.683220 -0.588669
O7    O     O_R   0.500000 0.426350 0.316830 -0.604253
O8    O     O_R   0.500000 0.426350 0.683170 -0.616004
Zn1   Zn    Zn3+2 0.500000 0.598370 0.500000 1.059289
Zn2   Zn    Zn3+2 0.500000 0.401630 0.500000 0.993024
Cl1   Cl    Cl    0.334742 0.445232 0.143448 -0.576811
Cl2   Cl    Cl    0.335963 0.446888 0.848175 -0.600996
O9    O     O_3   0.801787 0.585125 0.137592 -0.622819
C33   C     C_3   0.788807 0.656546 0.221498 0.104314
H3    H     H_    0.762398 0.631340 0.310938 0.138187
H4    H     H_    0.744755 0.708159 0.182311 0.152173
C34   C     C_3   0.873833 0.699999 0.251689 -0.317658
H5    H     H_    0.864715 0.749396 0.327869 0.228398
H6    H     H_    0.919725 0.648815 0.285751 0.247411
C35   C     C_3   0.910146 0.747120 0.137315 -0.705950
H7    H     H_    0.866220 0.800540 0.104895 0.253294
H8    H     H_    0.920414 0.699576 0.059333 0.288984
H9    H     H_    0.971937 0.777271 0.162908 0.250661
O10   O     O_3   0.804796 0.573843 0.879582 -0.585237
C36   C     C_3   0.855168 0.495631 0.880215 0.103558
H10   H     H_    0.846740 0.462072 0.788426 0.124977
H11   H     H_    0.838657 0.447090 0.955526 0.123920
C37   C     C_3   0.948337 0.520380 0.898190 -0.256787
H12   H     H_    0.966177 0.571210 0.827975 0.261968
H13   H     H_    0.957517 0.549092 0.993355 0.246664
C38   C     C_3   0.006540 0.439670 0.884739 -0.956800
H14   H     H_    0.992359 0.389724 0.958228 0.277536
H15   H     H_    0.073668 0.460293 0.895341 0.305682
H16   H     H_    0.998101 0.409066 0.790820 0.222469
Cl3   Cl    Cl    0.097748 0.675591 0.596022 -0.488949
Cl4   Cl    Cl    0.896810 0.673691 0.592484 -0.524459
O11   O     O_3   0.915849 0.338109 0.487110 -0.580831
C39   C     C_3   0.880414 0.298702 0.594933 0.080944
H17   H     H_    0.835964 0.344822 0.642869 0.119723
H18   H     H_    0.931167 0.278313 0.662522 0.122676
C40   C     C_3   0.830625 0.216711 0.555140 -0.314277
H19   H     H_    0.782242 0.235893 0.483245 0.239179
H20   H     H_    0.874612 0.167416 0.512757 0.239291
C41   C     C_3   0.786005 0.174377 0.666611 -0.864468
H21   H     H_    0.833017 0.154413 0.739898 0.261430
H22   H     H_    0.751480 0.114472 0.634673 0.304725
H23   H     H_    0.739527 0.221661 0.707659 0.257641
O12   O     O_3   0.090612 0.338937 0.497572 -0.592502
C42   C     C_3   0.127168 0.303186 0.608820 0.088083
H24   H     H_    0.079735 0.261262 0.656817 0.145287
H25   H     H_    0.149190 0.354942 0.676284 0.156707
C43   C     C_3   0.203566 0.245580 0.573830 -0.331802
H26   H     H_    0.182523 0.191153 0.510766 0.228914
H27   H     H_    0.250288 0.286673 0.522836 0.235758
C44   C     C_3   0.246792 0.205520 0.689772 -0.916595
H28   H     H_    0.271247 0.258751 0.752049 0.300019
H29   H     H_    0.300945 0.163183 0.660164 0.243340
H30   H     H_    0.201496 0.163983 0.742701 0.271674
O13   O     O_3   0.432731 0.093069 0.294402 -0.590785
C45   C     C_3   0.347822 0.120265 0.312708 0.094846
H31   H     H_    0.341543 0.161577 0.398886 0.119802
H32   H     H_    0.305952 0.061395 0.320769 0.177132
C46   C     C_3   0.319083 0.175715 0.199494 -0.328023
H33   H     H_    0.362183 0.233151 0.188585 0.261674
H34   H     H_    0.322687 0.134518 0.113130 0.239053
C47   C     C_3   0.228531 0.210267 0.214161 -0.835699
H35   H     H_    0.224880 0.256935 0.294488 0.280842
H36   H     H_    0.184249 0.154448 0.229468 0.255821
H37   H     H_    0.208787 0.246336 0.127557 0.289273
O14   O     O_3   0.572396 0.092227 0.700527 -0.602370
C48   C     C_3   0.511970 0.121744 0.788757 0.132171
H38   H     H_    0.496520 0.066260 0.853421 0.197921
H39   H     H_    0.452042 0.146213 0.743629 0.108753
C49   C     C_3   0.550059 0.198138 0.864325 -0.339280
H40   H     H_    0.609741 0.175385 0.910986 0.243334
H41   H     H_    0.565491 0.253527 0.799584 0.230268
C50   C     C_3   0.488886 0.231991 0.963953 -0.895110
H42   H     H_    0.428786 0.255604 0.919531 0.284341
H43   H     H_    0.518085 0.288112 0.015642 0.267656
H44   H     H_    0.474930 0.178305 0.031988 0.286280
Cl5   Cl    Cl    0.421032 0.897249 0.267944 -0.532055
Cl6   Cl    Cl    0.579885 0.896110 0.731351 -0.523312

loop_
_geom_bond_atom_site_label_1
_geom_bond_atom_site_label_2
_ccdc_geom_bond_type
C6    C32   S    
C9    Cl5   S    
O11   C39   S    
C43   H27   S    
O13   C45   S    
C18   C26   S    
C21   O9    S    
C30   Cl3   S    
C40   H19   S    
O4    Zn2   S    
C39   H18   S    
C13   O13   S    
C19   C21   A    
C18   O6    A    
C16   N1    T    
C22   O10   S    
C42   C43   S    
O14   C48   S    
C45   C46   S    
C35   H7    S    
C47   H37   S    
C23   C26   A    
C36   H11   S    
C9    C13   A    
C49   H40   S    
O2    Zn1   S    
C11   C15   S    
C39   C40   S    
C45   H32   S    
C33   H4    S    
C48   H38   S    
C20   C23   A    
C1    O1    A    
C29   Cl4   S    
C20   H2    S    
C12   O14   S    
C40   H20   S    
C21   C22   A    
C48   H39   S    
C47   H35   S    
C41   H23   S    
O8    Zn2   S    
C49   H41   S    
C34   H6    S    
C33   C34   S    
C39   H17   S    
C42   H25   S    
C38   H14   S    
C37   C38   S    
C24   C25   A    
C41   H22   S    
C19   H1    S    
C44   H28   S    
C42   H24   S    
O10   C36   S    
C38   H15   S    
O6    Zn1   S    
C37   H13   S    
C36   C37   S    
C47   H36   S    
C17   O7    A    
C29   C30   A    
C10   Cl6   S    
C18   O8    A    
C44   H29   S    
C2    O2    A    
C46   H33   S    
C4    O12   S    
C43   C44   S    
C23   C24   A    
C45   H31   S    
C33   H3    S    
N2    Zn1   S    
O12   C42   S    
C3    C31   A    
C9    C11   A    
C49   C50   S    
C4    C32   A    
C10   C12   A    
O3    Zn2   S    
C46   H34   S    
C12   C14   A    
C48   C49   S    
C14   C16   S    
O1    Zn1   S    
C3    C4    A    
C15   N2    T    
C50   H42   S    
C34   C35   S    
C27   Cl1   S    
C28   Cl2   S    
C1    C7    S    
C2    C8    S    
C20   C22   A    
C41   H21   S    
C5    C8    T    
C34   H5    S    
C6    C7    T    
C25   C27   A    
C26   C28   A    
C35   H9    S    
C38   H16   S    
C17   C25   S    
C37   H12   S    
C50   H44   S    
C19   C24   A    
C29   C31   A    
C44   H30   S    
C30   C32   A    
C40   C41   S    
C35   H8    S    
C36   H10   S    
C3    O11   S    
O7    Zn2   S    
C17   O5    A    
C10   C11   A    
C1    O3    A    
C2    O4    A    
C46   C47   S    
C43   H26   S    
O9    C33   S    
C27   C28   A    
O5    Zn1   S    
C5    C31   S    
C13   C14   A    
N1    Zn2   S    
C50   H43   S    
