data_mof_unit_53905.cif
_audit_creation_date              2012-12-11T16:04:55-0500
_audit_creation_method            fapswitch 2.2
_symmetry_space_group_name_H-M    P1
_symmetry_Int_Tables_number       1
_space_group_crystal_system       triclinic
_cell_length_a                    10.567565
_cell_length_b                    10.604928
_cell_length_c                    16.854496
_cell_angle_alpha                 98.736954
_cell_angle_beta                  98.831909
_cell_angle_gamma                 62.43694
_cell_volume                      1647.55590488

loop_
_atom_site_label
_atom_site_type_symbol
_atom_type_description
_atom_site_fract_x
_atom_site_fract_y
_atom_site_fract_z
_atom_type_partial_charge
C1    C     C_R   0.353099 0.778508 0.399723 0.545413
C2    C     C_3   0.644194 0.440023 0.234748 -0.122505
C3    C     C_3   0.750176 0.385306 0.309141 0.024673
C4    C     C_3   0.828693 0.236728 0.264860 -0.127353
C5    C     C_3   0.929847 0.287775 0.238469 -0.167199
C6    C     C_3   0.851793 0.435995 0.284400 -0.111498
C7    C     C_3   0.748405 0.487664 0.209093 0.283902
C8    C     C_3   0.824463 0.341125 0.163296 0.059242
C9    C     C_3   0.379926 0.771302 0.201273 -0.078255
C10   C     C_3   0.262627 0.783617 0.249850 -0.123945
C11   C     C_3   0.331185 0.840005 0.324678 0.041639
C12   C     C_R   0.371177 0.347474 0.358639 0.534471
C13   C     C_3   0.449456 0.826297 0.276905 -0.088210
C14   C     C_3   0.354684 0.982216 0.256147 -0.138579
C15   C     C_3   0.236555 0.994366 0.305768 -0.146515
C16   C     C_3   0.167722 0.938421 0.229932 -0.126475
C17   C     C_3   0.285873 0.925480 0.181941 0.049852
C18   C     C_3   0.457524 0.259417 0.774577 -0.147384
C19   C     C_3   0.397463 0.400565 0.735460 -0.128794
C20   C     C_3   0.336435 0.333181 0.661953 0.011614
C21   C     C_3   0.397657 0.192067 0.700155 -0.115041
C22   C     C_3   0.254119 0.252019 0.736485 0.285277
C23   C     C_R   0.707902 0.414337 0.390273 0.569725
C24   C     C_3   0.192370 0.393201 0.697406 -0.115614
C25   C     C_3   0.253896 0.458553 0.772827 -0.155412
C26   C     C_3   0.314478 0.317304 0.810853 0.068312
C27   C     C_1   0.760152 0.373160 0.716738 -0.057152
C28   C     C_1   0.806018 0.333765 0.783356 -0.036290
C29   C     C_1   0.360918 0.760069 0.715394 -0.064598
C30   C     C_1   0.329343 0.806359 0.783192 -0.044608
C31   C     C_R   0.885719 0.313295 0.087958 0.545457
C32   C     C_R   0.320274 0.300436 0.119679 0.525687
C33   C     C_R   0.255547 0.962482 0.099285 0.559031
C34   C     C_R   0.380144 0.713949 0.631762 0.535890
C35   C     C_R   0.876362 0.303000 0.862673 0.573431
C36   C     C_R   0.306766 0.291945 0.890702 0.569700
C37   C     C_R   0.283385 0.878056 0.860277 0.579928
C38   C     C_R   0.366764 0.345395 0.584528 0.532710
C39   C     C_R   0.714378 0.412490 0.635528 0.537306
C40   C     C_1   0.345555 0.338867 0.274686 -0.070887
C41   C     C_1   0.334056 0.328852 0.203302 -0.068634
C42   C     C_3   0.723774 0.290467 0.188766 -0.163418
Cr1   Cr    Cr6+3 0.608340 0.611040 0.520430 1.003765
Cr2   Cr    Cr6+3 0.287650 0.601120 0.489350 0.993996
Cr3   Cr    Cr6+3 0.604040 0.287870 0.490280 1.000614
Cr4   Cr    Cr6+3 0.054020 0.052700 0.970850 1.020180
Cr5   Cr    Cr6+3 0.059230 0.375120 0.993390 1.020921
Cr6   Cr    Cr6+3 0.374950 0.061200 0.992340 1.036021
H1    H     H_    0.526733 0.498422 0.237712 0.089772
H2    H     H_    0.395046 0.061576 0.256275 0.127178
H3    H     H_    0.179302 0.083566 0.350897 0.117238
H4    H     H_    0.052799 0.980798 0.207215 0.123774
H5    H     H_    0.457652 0.461811 0.732639 0.098055
H6    H     H_    0.565392 0.207546 0.807826 0.128666
H7    H     H_    0.456170 0.084101 0.668888 0.123189
H8    H     H_    0.085160 0.445819 0.663626 0.135760
H9    H     H_    0.197771 0.566385 0.804747 0.132038
H10   H     H_    0.672228 0.231233 0.148128 0.135221
H11   H     H_    0.861348 0.134417 0.290442 0.132319
H12   H     H_    0.047532 0.231005 0.236602 0.108874
H13   H     H_    0.905234 0.493918 0.324642 0.122402
H14   H     H_    0.225313 0.700905 0.248087 0.124330
H15   H     H_    0.432836 0.684213 0.154251 0.165631
H16   H     H_    0.563472 0.778447 0.301187 0.156090
O1    O     O_R   0.751220 0.499230 0.435170 -0.520039
O2    O     O_R   0.297880 0.469080 0.560050 -0.509451
O3    O     O_R   0.489720 0.254590 0.564810 -0.519761
O4    O     O_R   0.725220 0.304230 0.585080 -0.497945
O5    O     O_3   0.500010 0.500010 0.500020 -0.301671
O6    O     O_R   0.171830 0.913880 0.057510 -0.523405
O7    O     O_R   0.940690 0.186050 0.054730 -0.531193
O8    O     O_R   0.920470 0.405720 0.075010 -0.522972
O9    O     O_R   0.196690 0.370460 0.084120 -0.511474
O10   O     O_R   0.412990 0.180750 0.091610 -0.530559
O11   O     O_R   0.366620 0.943130 0.065760 -0.489336
O12   O     O_R   0.477220 0.727600 0.436870 -0.519718
O13   O     O_R   0.160510 0.906330 0.879210 -0.510776
O14   O     O_R   0.930190 0.179050 0.889450 -0.491454
O15   O     O_R   0.909140 0.398170 0.896710 -0.496707
O16   O     O_R   0.186190 0.363460 0.918830 -0.487394
O17   O     O_R   0.401670 0.173200 0.913310 -0.514138
O18   O     O_R   0.356120 0.936130 0.900470 -0.472132
O19   O     O_3   0.162740 0.163010 0.985530 -0.268646
O20   O     O_R   0.258650 0.745120 0.411470 -0.515236
O21   O     O_R   0.297070 0.467240 0.395960 -0.501037
O22   O     O_R   0.488830 0.252610 0.387790 -0.519034
O23   O     O_R   0.724400 0.302390 0.420980 -0.493109
O24   O     O_R   0.752100 0.501210 0.612190 -0.500688
O25   O     O_R   0.478040 0.729440 0.600970 -0.505545
O26   O     O_R   0.259530 0.747110 0.588490 -0.520416
O27   O     O_3   0.175395 0.174992 0.738548 -0.544831
C43   C     C_3   0.151413 0.118812 0.659007 -0.010658
H17   H     H_    0.254350 0.035553 0.637045 0.148446
H18   H     H_    0.100068 0.203848 0.616660 0.133402
C44   C     C_3   0.052706 0.049279 0.656166 -0.320254
H19   H     H_    0.944103 0.129015 0.668350 0.162191
H20   H     H_    0.045180 0.995524 0.595045 0.137941
H21   H     H_    0.090591 0.971491 0.701508 0.173332
O28   O     O_3   0.700913 0.620199 0.177283 -0.572093
C45   C     C_3   0.813162 0.659668 0.180949 0.020637
H22   H     H_    0.813592 0.688270 0.120312 0.168228
H23   H     H_    0.922629 0.573865 0.196721 0.140369
C46   C     C_3   0.786852 0.790666 0.240441 -0.402611
H24   H     H_    0.793278 0.764462 0.302684 0.137294
H25   H     H_    0.869980 0.826042 0.238101 0.101593
H26   H     H_    0.679849 0.879415 0.224728 0.169921

loop_
_geom_bond_atom_site_label_1
_geom_bond_atom_site_label_2
_ccdc_geom_bond_type
C18   C21   S    
C39   O4    A    
Cr2   O2    S    
C19   C20   S    
C1    C11   S    
Cr5   O15   S    
C3    C6    S    
C42   H10   S    
C44   H21   S    
C7    C8    S    
C1    O20   A    
Cr1   O25   S    
C7    O28   S    
C12   O21   A    
Cr1   O24   S    
Cr5   O16   S    
C6    H13   S    
Cr3   O23   S    
C8    C42   S    
C32   O10   A    
C5    C6    S    
C15   C16   S    
Cr6   O17   S    
C18   C19   S    
C9    C13   S    
C43   H17   S    
C46   H24   S    
C3    C23   S    
C33   O11   A    
C2    C7    S    
C28   C35   S    
C27   C39   S    
C16   C17   S    
C18   C26   S    
Cr3   O3    S    
C22   O27   S    
C15   H3    S    
C9    C10   S    
C19   H5    S    
C11   C15   S    
C31   O7    A    
Cr1   O5    S    
C23   O23   A    
C21   C22   S    
C8    C31   S    
Cr6   O11   S    
C10   H14   S    
C17   C33   S    
C39   O24   A    
C45   H23   S    
Cr3   O5    S    
C25   H9    S    
Cr6   O10   S    
C24   C25   S    
Cr5   O9    S    
C36   O16   A    
C32   O9    A    
Cr4   O14   S    
C25   C26   S    
C37   O13   A    
C29   C34   S    
C45   C46   S    
C30   C37   S    
C12   C40   S    
C34   O26   A    
C29   C30   T    
C2    H1    S    
C5    C8    S    
C20   C38   S    
O28   C45   S    
C36   O17   A    
Cr1   O1    S    
Cr3   O4    S    
C43   H18   S    
Cr2   O5    S    
C46   H25   S    
C20   C21   S    
Cr4   O7    S    
C33   O6    A    
C9    C17   S    
C31   O8    A    
Cr5   O19   S    
C22   C24   S    
C37   O18   A    
C32   C41   S    
Cr2   O21   S    
O27   C43   S    
Cr2   O26   S    
C21   H7    S    
C26   C36   S    
Cr1   O12   S    
C38   O2    A    
C40   C41   T    
C5    H12   S    
C9    H15   S    
C1    O12   A    
C16   H4    S    
C4    C5    S    
Cr2   O20   S    
Cr4   O13   S    
C44   H20   S    
C6    C7    S    
C24   H8    S    
C35   O14   A    
Cr6   O19   S    
C12   O22   A    
C23   O1    A    
C2    C3    S    
C34   O25   A    
C10   C16   S    
C11   C13   S    
C14   H2    S    
C13   H16   S    
C4    C42   S    
C2    C42   S    
C4    H11   S    
C35   O15   A    
C45   H22   S    
Cr6   O18   S    
Cr3   O22   S    
C46   H26   S    
C43   C44   S    
C19   C25   S    
Cr5   O8    S    
Cr4   O6    S    
C10   C11   S    
C18   H6    S    
Cr4   O19   S    
C38   O3    A    
C22   C26   S    
C44   H19   S    
C14   C15   S    
C13   C14   S    
C20   C24   S    
C3    C4    S    
C27   C28   T    
C14   C17   S    
