data_mof_unit_62322.cif
_audit_creation_date              2012-12-10T20:05:22-0500
_audit_creation_method            fapswitch 2.2
_symmetry_space_group_name_H-M    P1
_symmetry_Int_Tables_number       1
_space_group_crystal_system       orthorhombic
_cell_length_a                    15.887479
_cell_length_b                    15.88748
_cell_length_c                    34.519103
_cell_angle_alpha                 90.0
_cell_angle_beta                  90.0
_cell_angle_gamma                 90.0
_cell_volume                      8713.0359943

loop_
_atom_site_label
_atom_site_type_symbol
_atom_type_description
_atom_site_fract_x
_atom_site_fract_y
_atom_site_fract_z
_atom_type_partial_charge
C1    C     C_R   0.500000 1.000000 0.356081 0.509744
C2    C     C_R   0.660035 0.839965 0.750000 0.509465
C3    C     C_R   0.999997 0.346687 0.020212 -0.129682
C4    C     C_R   0.653313 0.000000 0.979788 -0.129682
C5    C     C_R   0.346687 1.000000 0.020212 -0.129682
C6    C     C_R   0.999997 0.346687 0.979788 -0.129682
C7    C     C_R   0.000003 0.653313 0.020212 -0.129682
C8    C     C_R   0.839965 0.339965 0.250000 0.509465
C9    C     C_R   0.160035 0.660035 0.750000 0.509465
C10   C     C_R   0.660035 0.839965 0.250000 0.509465
C11   C     C_R   0.339965 0.160035 0.750000 0.509465
C12   C     C_R   0.160035 0.660035 0.250000 0.509465
C13   C     C_R   0.839965 0.339965 0.750000 0.509465
C14   C     C_R   0.339965 0.839965 0.750000 0.509465
C15   C     C_R   0.660035 0.160035 0.250000 0.509465
C16   C     C_R   0.839965 0.660035 0.750000 0.509465
C17   C     C_R   0.500000 1.000000 0.643919 0.509744
C18   C     C_R   0.160035 0.339965 0.250000 0.509465
C19   C     C_R   0.660035 0.160035 0.750000 0.509465
C20   C     C_R   0.339965 0.839965 0.250000 0.509465
C21   C     C_R   0.160035 0.339965 0.750000 0.509465
C22   C     C_R   0.839965 0.660035 0.250000 0.509465
C23   C     C_1   0.276665 0.776665 0.250000 -0.019647
C24   C     C_1   0.723335 0.223335 0.750000 -0.019647
C25   C     C_1   0.223335 0.276665 0.250000 -0.019647
C26   C     C_1   0.776665 0.723335 0.750000 -0.019647
C27   C     C_1   0.723335 0.223335 0.250000 -0.019647
C28   C     C_R   1.000000 0.500000 0.356081 0.509744
C29   C     C_1   0.276665 0.776665 0.750000 -0.019647
C30   C     C_1   0.776665 0.723335 0.250000 -0.019647
C31   C     C_1   0.223335 0.276665 0.750000 -0.019647
C32   C     C_1   0.276665 0.223335 0.750000 -0.019647
C33   C     C_1   0.723335 0.776665 0.250000 -0.019647
C34   C     C_1   0.223335 0.723335 0.750000 -0.019647
C35   C     C_1   0.776665 0.276665 0.250000 -0.019647
C36   C     C_1   0.723335 0.776665 0.750000 -0.019647
C37   C     C_1   0.276665 0.223335 0.250000 -0.019647
C38   C     C_1   0.776665 0.276665 0.750000 -0.019647
C39   C     C_R   1.000000 0.500000 0.643919 0.509744
C40   C     C_1   0.223335 0.723335 0.250000 -0.019647
C41   C     C_R   0.076532 0.500001 0.418898 -0.130870
C42   C     C_R   0.923468 0.499999 0.581102 -0.130870
C43   C     C_R   0.500000 0.923468 0.418898 -0.130870
C44   C     C_R   0.500000 0.076532 0.581102 -0.130870
C45   C     C_R   0.923468 0.499999 0.418898 -0.130870
C46   C     C_R   0.076532 0.500001 0.581102 -0.130870
C47   C     C_R   0.500000 0.076532 0.418898 -0.130870
C48   C     C_R   0.500000 0.923468 0.581102 -0.130870
C49   C     C_R   0.576532 0.000000 0.918898 -0.130870
C50   C     C_R   0.000000 0.500000 0.856081 0.509744
C51   C     C_R   0.423468 1.000000 0.081102 -0.130870
C52   C     C_R   0.999999 0.423468 0.918898 -0.130870
C53   C     C_R   0.000001 0.576532 0.081102 -0.130870
C54   C     C_R   0.423468 1.000000 0.918898 -0.130870
C55   C     C_R   0.576532 0.000000 0.081102 -0.130870
C56   C     C_R   0.000001 0.576532 0.918898 -0.130870
C57   C     C_R   0.999999 0.423468 0.081102 -0.130870
C58   C     C_R   1.000000 0.500000 0.398558 0.008622
C59   C     C_R   1.000000 0.500000 0.601442 0.008622
C60   C     C_R   0.500000 1.000000 0.398558 0.008622
C61   C     C_R   1.000000 0.500000 0.143919 0.509744
C62   C     C_R   0.500000 1.000000 0.601442 0.008622
C63   C     C_R   0.500000 0.000000 0.898557 0.008622
C64   C     C_R   0.500000 1.000000 0.101442 0.008622
C65   C     C_R   1.000000 0.500000 0.898557 0.008622
C66   C     C_R   1.000000 0.500000 0.101442 0.008622
C67   C     C_R   0.922936 0.499999 0.459335 0.009478
C68   C     C_R   0.077064 0.500001 0.540665 0.009478
C69   C     C_R   0.500000 0.077064 0.459335 0.009478
C70   C     C_R   0.500000 0.922936 0.540665 0.009478
C71   C     C_R   0.077064 0.500001 0.459335 0.009478
C72   C     C_R   0.500000 0.000000 0.856081 0.509744
C73   C     C_R   0.922936 0.499999 0.540665 0.009478
C74   C     C_R   0.500000 0.922936 0.459335 0.009478
C75   C     C_R   0.500000 0.077064 0.540665 0.009478
C76   C     C_R   0.422936 1.000000 0.959335 0.009478
C77   C     C_R   0.577064 0.000000 0.040665 0.009478
C78   C     C_R   0.000001 0.577064 0.959335 0.009478
C79   C     C_R   0.999999 0.422936 0.040665 0.009478
C80   C     C_R   0.577064 0.000000 0.959335 0.009478
C81   C     C_R   0.422936 1.000000 0.040665 0.009478
C82   C     C_R   0.999999 0.422936 0.959335 0.009478
C83   C     C_R   0.500000 1.000000 0.143919 0.509744
C84   C     C_R   0.000001 0.577064 0.040665 0.009478
C85   C     C_R   1.000000 0.500000 0.479655 0.062308
C86   C     C_R   1.000000 0.500000 0.520345 0.062308
C87   C     C_R   0.500000 1.000000 0.479655 0.062308
C88   C     C_R   0.500000 0.000000 0.520345 0.062308
C89   C     C_R   0.500000 0.000000 0.979655 0.062308
C90   C     C_R   0.500000 1.000000 0.020345 0.062308
C91   C     C_R   1.000000 0.500000 0.979655 0.062308
C92   C     C_R   1.000000 0.500000 0.020345 0.062308
C93   C     C_R   0.846687 0.499998 0.479788 -0.129682
C94   C     C_R   0.339965 0.160035 0.250000 0.509465
C95   C     C_R   0.153313 0.500002 0.520212 -0.129682
C96   C     C_R   0.500000 0.153313 0.479788 -0.129682
C97   C     C_R   0.500000 0.846687 0.520212 -0.129682
C98   C     C_R   0.153313 0.500002 0.479788 -0.129682
C99   C     C_R   0.846687 0.499998 0.520212 -0.129682
C100  C     C_R   0.500000 0.846687 0.479788 -0.129682
C101  C     C_R   0.500000 0.153313 0.520212 -0.129682
C102  C     C_R   0.346687 1.000000 0.979788 -0.129682
C103  C     C_R   0.653313 0.000000 0.020212 -0.129682
C104  C     C_R   0.000003 0.653313 0.979788 -0.129682
H1    H     H_    0.135766 0.500001 0.403298 0.136689
H2    H     H_    0.364234 1.000000 0.096702 0.136689
H3    H     H_    0.999997 0.364234 0.903298 0.136689
H4    H     H_    0.000002 0.635765 0.096702 0.136689
H5    H     H_    0.364234 1.000000 0.903298 0.136689
H6    H     H_    0.635765 0.000000 0.096702 0.136689
H7    H     H_    0.000002 0.635765 0.903298 0.136689
H8    H     H_    0.999997 0.364234 0.096702 0.136689
H9    H     H_    0.787090 0.499998 0.464520 0.112467
H10   H     H_    0.212910 0.500002 0.535480 0.112467
H11   H     H_    0.500000 0.212910 0.464520 0.112467
H12   H     H_    0.864234 0.499998 0.596702 0.136689
H13   H     H_    0.500000 0.787090 0.535480 0.112467
H14   H     H_    0.212910 0.500002 0.464520 0.112467
H15   H     H_    0.787090 0.499998 0.535480 0.112467
H16   H     H_    0.500000 0.787090 0.464520 0.112467
H17   H     H_    0.500000 0.212910 0.535480 0.112467
H18   H     H_    0.287090 0.999999 0.964520 0.112467
H19   H     H_    0.712910 0.000000 0.035480 0.112467
H20   H     H_    0.000004 0.712910 0.964520 0.112467
H21   H     H_    0.999996 0.287090 0.035480 0.112467
H22   H     H_    0.712910 0.000000 0.964520 0.112467
H23   H     H_    0.500000 0.864234 0.403298 0.136689
H24   H     H_    0.287090 0.999999 0.035480 0.112467
H25   H     H_    0.999996 0.287090 0.964520 0.112467
H26   H     H_    0.000004 0.712910 0.035480 0.112467
H27   H     H_    0.500000 0.135765 0.596702 0.136689
H28   H     H_    0.864234 0.499998 0.403298 0.136689
H29   H     H_    0.135766 0.500001 0.596702 0.136689
H30   H     H_    0.500000 0.135765 0.403298 0.136689
H31   H     H_    0.500000 0.864234 0.596702 0.136689
H32   H     H_    0.635765 0.000000 0.903298 0.136689
O1    O     O_3   0.500000 0.000000 0.250000 -0.442631
O2    O     O_R   0.500000 0.930770 0.662510 -0.545229
O3    O     O_R   0.930770 0.500000 0.337490 -0.545229
O4    O     O_R   0.069230 0.500000 0.662510 -0.545230
O5    O     O_R   1.000000 0.430770 0.837490 -0.545229
O6    O     O_R   0.000000 0.569230 0.162510 -0.545230
O7    O     O_R   0.569230 0.000000 0.837490 -0.545230
O8    O     O_R   0.430770 0.000000 0.162510 -0.545229
O9    O     O_R   1.000000 0.569230 0.837490 -0.545230
O10   O     O_R   1.000000 0.430770 0.162510 -0.545229
O11   O     O_R   0.430770 0.000000 0.837490 -0.545229
O12   O     O_3   0.500000 0.000000 0.750000 -0.442631
O13   O     O_R   0.569230 0.000000 0.162510 -0.545230
O14   O     O_R   0.402530 0.166640 0.272980 -0.534846
O15   O     O_R   0.597470 0.833360 0.727020 -0.534846
O16   O     O_R   0.833360 0.402530 0.272980 -0.534846
O17   O     O_R   0.166640 0.597470 0.727020 -0.534846
O18   O     O_R   0.597470 0.833360 0.272980 -0.534846
O19   O     O_R   0.402530 0.166640 0.727020 -0.534846
O20   O     O_R   0.166640 0.597470 0.272980 -0.534846
O21   O     O_R   0.833360 0.402530 0.727020 -0.534846
O22   O     O_R   0.402530 0.833360 0.727020 -0.534846
O23   O     O_3   1.000000 0.500000 0.250000 -0.442631
O24   O     O_R   0.597470 0.166640 0.272980 -0.534846
O25   O     O_R   0.833360 0.597470 0.727020 -0.534846
O26   O     O_R   0.166640 0.402530 0.272980 -0.534846
O27   O     O_R   0.597470 0.166640 0.727020 -0.534846
O28   O     O_R   0.402530 0.833360 0.272980 -0.534846
O29   O     O_R   0.166640 0.402530 0.727020 -0.534846
O30   O     O_R   0.833360 0.597470 0.272980 -0.534846
O31   O     O_R   0.902530 0.666640 0.772980 -0.534846
O32   O     O_R   0.097470 0.333360 0.227020 -0.534845
O33   O     O_R   0.333360 0.902530 0.772980 -0.534846
O34   O     O_3   1.000000 0.500000 0.750000 -0.442631
O35   O     O_R   0.666640 0.097470 0.227020 -0.534846
O36   O     O_R   0.097470 0.333360 0.772980 -0.534846
O37   O     O_R   0.902530 0.666640 0.227020 -0.534846
O38   O     O_R   0.666640 0.097470 0.772980 -0.534846
O39   O     O_R   0.333360 0.902530 0.227020 -0.534846
O40   O     O_R   0.902530 0.333360 0.227020 -0.534846
O41   O     O_R   0.097470 0.666640 0.772980 -0.534846
O42   O     O_R   0.333360 0.097470 0.227020 -0.534846
O43   O     O_R   0.666640 0.902530 0.772980 -0.534846
O44   O     O_R   0.097470 0.666640 0.227020 -0.534846
O45   O     O_R   0.500000 0.930770 0.337490 -0.545229
O46   O     O_R   0.902530 0.333360 0.772980 -0.534846
O47   O     O_R   0.666640 0.902530 0.227020 -0.534846
O48   O     O_R   0.333360 0.097470 0.772980 -0.534846
O49   O     O_R   0.500000 0.069230 0.662510 -0.545230
O50   O     O_R   0.069230 0.500000 0.337490 -0.545230
O51   O     O_R   0.930770 0.500000 0.662510 -0.545229
O52   O     O_R   0.500000 0.069230 0.337490 -0.545230
Zn1   Zn    Zn3+2 0.401050 0.000000 0.217300 0.947341
Zn2   Zn    Zn3+2 0.098950 0.500000 0.282700 0.947341
Zn3   Zn    Zn3+2 0.500000 0.901050 0.717300 0.947341
Zn4   Zn    Zn3+2 0.500000 0.098950 0.282700 0.947341
Zn5   Zn    Zn3+2 0.098950 0.500000 0.717300 0.947341
Zn6   Zn    Zn3+2 0.901050 0.500000 0.282700 0.947341
Zn7   Zn    Zn3+2 0.500000 0.098950 0.717300 0.947341
Zn8   Zn    Zn3+2 0.500000 0.901050 0.282700 0.947341
Zn9   Zn    Zn3+2 0.598950 0.000000 0.782700 0.947341
Zn10  Zn    Zn3+2 1.000000 0.401050 0.217300 0.947341
Zn11  Zn    Zn3+2 1.000000 0.598950 0.782700 0.947341
Zn12  Zn    Zn3+2 0.598950 0.000000 0.217300 0.947341
Zn13  Zn    Zn3+2 0.401050 0.000000 0.782700 0.947341
Zn14  Zn    Zn3+2 1.000000 0.598950 0.217300 0.947341
Zn15  Zn    Zn3+2 1.000000 0.401050 0.782700 0.947341
Zn16  Zn    Zn3+2 0.901050 0.500000 0.717300 0.947341

loop_
_geom_bond_atom_site_label_1
_geom_bond_atom_site_label_2
_ccdc_geom_bond_type
O23   Zn6   S    
C87   C88   A    
O50   Zn2   S    
C49   C63   A    
C46   C59   A    
C72   O7    A    
C68   C86   A    
C57   C79   A    
O25   Zn16  S    
O2    Zn3   S    
C57   C66   A    
C69   C96   A    
C103  H19   S    
C10   O18   A    
C13   C38   S    
C5    C102  A    
C95   C98   A    
C56   C78   A    
C85   C86   A    
C44   H27   S    
C28   O3    A    
C41   H1    S    
C14   O22   A    
C53   C84   A    
C6    C82   A    
O6    Zn14  S    
C48   C70   A    
C8    O16   A    
C12   O20   A    
C41   C58   A    
C4    C80   A    
O44   Zn14  S    
C6    H25   S    
C83   O8    A    
C55   C77   A    
O12   Zn9   S    
C57   H8    S    
O8    Zn1   S    
C95   H10   S    
C23   C40   T    
C20   O28   A    
C4    C103  A    
C26   C36   T    
C21   O29   A    
C94   O42   A    
C80   C89   A    
O45   Zn8   S    
C47   C69   A    
C7    H26   S    
C48   H31   S    
C25   C37   T    
C47   C60   A    
C71   C85   A    
C15   C27   S    
C61   C66   S    
O23   Zn10  S    
C8    O40   A    
C52   H3    S    
C17   O49   A    
C42   C73   A    
C45   C67   A    
C24   C38   T    
O1    Zn12  S    
C96   H11   S    
C17   O2    A    
C100  H16   S    
C74   C87   A    
O4    Zn5   S    
C93   C99   A    
C56   H7    S    
O34   Zn16  S    
C69   C87   A    
O3    Zn6   S    
C11   O19   A    
C76   C89   A    
C41   C71   A    
O18   Zn8   S    
C3    C6    A    
C43   C74   A    
O15   Zn3   S    
C7    C84   A    
O1    Zn8   S    
C70   C88   A    
C96   C101  A    
C16   C26   S    
C10   O47   A    
O23   Zn2   S    
C18   C25   S    
O49   Zn7   S    
C14   O33   A    
C13   O21   A    
O34   Zn11  S    
O12   Zn13  S    
C98   H14   S    
C76   C102  A    
O7    Zn9   S    
C71   C98   A    
C77   C90   A    
C67   C85   A    
C68   C95   A    
C51   C64   A    
C78   C104  A    
O46   Zn15  S    
O5    Zn15  S    
O11   Zn13  S    
O24   Zn4   S    
C104  H20   S    
C1    C60   S    
C43   H23   S    
C91   C92   A    
O42   Zn1   S    
C1    O45   A    
O23   Zn14  S    
C74   C100  A    
O43   Zn9   S    
O33   Zn13  S    
C44   C62   A    
C99   H15   S    
O51   Zn16  S    
C9    O17   A    
C101  H17   S    
C82   C91   A    
C54   H5    S    
O37   Zn14  S    
C8    C35   S    
C22   O30   A    
C12   C40   S    
C44   C75   A    
C61   O10   A    
C64   C83   S    
C46   C68   A    
O35   Zn12  S    
C28   O50   A    
C17   C62   S    
O1    Zn4   S    
C5    C81   A    
C75   C88   A    
O12   Zn7   S    
C48   C62   A    
C31   C32   T    
C20   C23   S    
O27   Zn7   S    
C4    H22   S    
C39   C59   S    
C55   C64   A    
C21   C31   S    
O28   Zn8   S    
C79   C92   A    
C15   O35   A    
O21   Zn16  S    
C19   O27   A    
C52   C82   A    
C53   C66   A    
O34   Zn15  S    
O32   Zn10  S    
C43   C60   A    
O1    Zn1   S    
C81   C90   A    
C50   O9    A    
C42   H12   S    
C12   O44   A    
C49   H32   S    
C11   C32   S    
C7    C104  A    
C47   H30   S    
O41   Zn11  S    
C9    C34   S    
C16   O25   A    
O36   Zn15  S    
C54   C76   A    
C77   C103  A    
C2    O43   A    
C14   C29   S    
C45   C58   A    
C21   O36   A    
O26   Zn2   S    
C97   C100  A    
C9    O41   A    
C75   C101  A    
C1    O52   A    
C2    C36   S    
C2    O15   A    
C73   C99   A    
C51   C81   A    
C39   O4    A    
O38   Zn9   S    
C18   O32   A    
C22   O37   A    
C22   C30   S    
C30   C33   T    
C11   O48   A    
O30   Zn6   S    
O40   Zn10  S    
O10   Zn10  S    
O29   Zn5   S    
C42   C59   A    
O39   Zn1   S    
O34   Zn5   S    
C50   O5    A    
O9    Zn11  S    
O48   Zn13  S    
C28   C58   S    
C78   C91   A    
C94   O14   A    
C72   O11   A    
C84   C92   A    
O47   Zn12  S    
C49   C80   A    
O16   Zn6   S    
C3    H21   S    
O52   Zn4   S    
C27   C35   T    
C3    C79   A    
C19   C24   S    
C19   O38   A    
C39   O51   A    
C15   O24   A    
C55   H6    S    
O22   Zn3   S    
C46   H29   S    
C18   O26   A    
C53   H4    S    
O12   Zn3   S    
C51   H2    S    
C29   C34   T    
C5    H24   S    
C37   C94   S    
C93   H9    S    
C10   C33   S    
C97   H13   S    
C50   C65   S    
C73   C86   A    
O19   Zn7   S    
O13   Zn12  S    
O14   Zn4   S    
C20   O39   A    
C61   O6    A    
O17   Zn5   S    
C63   C72   S    
C45   H28   S    
C13   O46   A    
C54   C63   A    
C70   C97   A    
C67   C93   A    
O31   Zn11  S    
C16   O31   A    
C89   C90   A    
C102  H18   S    
C52   C65   A    
C56   C65   A    
C83   O13   A    
O20   Zn2   S    
