data_mof_unit_64254.cif
_audit_creation_date              2012-12-10T16:51:44-0500
_audit_creation_method            fapswitch 2.2
_symmetry_space_group_name_H-M    P1
_symmetry_Int_Tables_number       1
_space_group_crystal_system       triclinic
_cell_length_a                    30.121893
_cell_length_b                    30.154462
_cell_length_c                    21.782594
_cell_angle_alpha                 89.999764
_cell_angle_beta                  133.944246
_cell_angle_gamma                 90.000651
_cell_volume                      14245.7475343

loop_
_atom_site_label
_atom_site_type_symbol
_atom_type_description
_atom_site_fract_x
_atom_site_fract_y
_atom_site_fract_z
_atom_type_partial_charge
C1    C     C_R   0.688995 0.810138 0.882145 0.975669
C2    C     C_R   0.311005 0.810138 0.117855 0.975662
C3    C     C_R   0.188995 0.310138 0.882145 0.975669
C4    C     C_R   0.811003 0.310138 0.117854 0.975677
C5    C     C_R   0.453283 0.790918 0.999676 0.034605
C6    C     C_R   0.546702 0.790918 0.000290 0.034610
C7    C     C_R   0.953326 0.290919 0.999766 0.034611
C8    C     C_R   0.046744 0.290919 0.000380 0.034598
C9    C     C_R   0.476588 0.668142 0.999909 -0.107964
C10   C     C_R   0.523450 0.668142 0.000168 -0.108067
C11   C     C_R   0.976484 0.168143 0.999707 -0.107991
C12   C     C_R   0.023345 0.168143 0.999964 -0.107950
C13   C     C_R   0.523112 0.831766 0.999497 -0.102993
C14   C     C_R   0.476856 0.831767 0.000434 -0.103016
C15   C     C_R   0.023203 0.331768 0.999683 -0.103003
C16   C     C_R   0.976946 0.331767 0.000619 -0.102963
C17   C     C_2   0.560221 0.877858 0.689958 -0.170976
C18   C     C_2   0.439779 0.877859 0.310043 -0.170946
C19   C     C_2   0.060220 0.377857 0.689956 -0.170999
C20   C     C_2   0.939778 0.377864 0.310032 -0.171070
C21   C     C_2   0.589226 0.902998 0.676245 -0.386187
C22   C     C_2   0.410774 0.902997 0.323756 -0.386192
C23   C     C_2   0.089226 0.402998 0.676246 -0.386168
C24   C     C_2   0.910776 0.402995 0.323760 -0.386176
C25   C     C_2   0.592556 0.841229 0.750771 0.437655
C26   C     C_2   0.407444 0.841229 0.249229 0.437642
C27   C     C_2   0.092556 0.341228 0.750768 0.437640
C28   C     C_2   0.907443 0.341235 0.249216 0.437665
C29   C     C_2   0.653186 0.845036 0.820298 -0.417029
C30   C     C_2   0.346814 0.845036 0.179703 -0.417016
C31   C     C_2   0.153185 0.345036 0.820297 -0.417025
C32   C     C_2   0.846809 0.345037 0.179702 -0.417057
C33   C     C_R   0.131456 0.748801 0.077535 -0.240093
C34   C     C_R   0.868545 0.748801 0.922466 -0.240123
C35   C     C_R   0.631456 0.248799 0.077534 -0.240077
C36   C     C_R   0.368545 0.248801 0.922466 -0.240072
C37   C     C_R   0.115280 0.750155 0.999952 -0.055688
C38   C     C_R   0.884720 0.750156 0.000049 -0.055723
C39   C     C_R   0.615280 0.250155 0.999952 -0.055688
C40   C     C_R   0.384720 0.250156 0.000049 -0.055679
C41   C     C_R   0.053594 0.751547 0.922380 -0.245320
C42   C     C_R   0.946406 0.751549 0.077621 -0.245335
C43   C     C_R   0.553594 0.251547 0.922380 -0.245319
C44   C     C_R   0.446406 0.251547 0.077621 -0.245316
C45   C     C_R   0.663109 0.749970 0.999853 0.913108
C46   C     C_R   0.336891 0.749970 0.000146 0.913058
C47   C     C_R   0.163108 0.249970 0.999853 0.913047
C48   C     C_R   0.836890 0.249970 0.000146 0.913055
C49   C     C_R   0.007128 0.750866 0.921747 0.119088
C50   C     C_R   0.992872 0.750868 0.078254 0.119095
C51   C     C_R   0.507128 0.250867 0.921747 0.119093
C52   C     C_R   0.492872 0.250866 0.078254 0.119090
C53   C     C_R   0.023196 0.750214 0.999989 0.060792
C54   C     C_R   0.976804 0.750214 0.000012 0.060794
C55   C     C_R   0.523196 0.250213 0.999989 0.060800
C56   C     C_R   0.476804 0.250213 0.000012 0.060799
C57   C     C_R   0.085652 0.749539 0.078208 0.116137
C58   C     C_R   0.914348 0.749538 0.921792 0.116140
C59   C     C_R   0.585652 0.249537 0.078208 0.116137
C60   C     C_R   0.414348 0.249539 0.921792 0.116137
C61   C     C_R   0.945040 0.750687 0.844439 -0.200966
C62   C     C_R   0.054960 0.750689 0.155561 -0.200985
C63   C     C_R   0.445040 0.250688 0.844439 -0.200963
C64   C     C_R   0.554960 0.250686 0.155561 -0.200954
C65   C     C_R   0.898818 0.749710 0.844462 -0.197032
C66   C     C_R   0.101182 0.749712 0.155539 -0.197028
C67   C     C_R   0.398818 0.249711 0.844462 -0.197013
C68   C     C_R   0.601182 0.249709 0.155539 -0.197009
C69   C     C_2   0.941508 0.626220 0.317412 -0.190697
C70   C     C_2   0.058473 0.626337 0.682344 -0.190748
C71   C     C_2   0.441535 0.126377 0.317738 -0.190757
C72   C     C_2   0.558474 0.126338 0.682340 -0.190777
C73   C     C_2   0.913602 0.600112 0.331553 -0.272624
C74   C     C_2   0.086486 0.600052 0.668601 -0.272285
C75   C     C_2   0.413486 0.100033 0.331351 -0.272258
C76   C     C_2   0.586488 0.100051 0.668603 -0.272346
C77   C     C_2   0.905286 0.661027 0.252711 -0.262688
C78   C     C_2   0.094696 0.661142 0.747055 -0.262916
C79   C     C_2   0.405311 0.161182 0.253024 -0.262946
C80   C     C_2   0.594697 0.161143 0.747052 -0.262951
C81   C     C_2   0.847317 0.653328 0.177455 -0.282652
C82   C     C_2   0.152498 0.653341 0.822544 -0.282917
C83   C     C_2   0.347562 0.153345 0.177456 -0.283019
C84   C     C_2   0.652496 0.153342 0.822543 -0.282890
C85   C     C_R   0.057317 0.561677 0.614182 0.933545
C86   C     C_R   0.942704 0.561691 0.385854 0.933814
C87   C     C_R   0.557317 0.061677 0.614182 0.933576
C88   C     C_R   0.442678 0.061673 0.385807 0.933492
C89   C     C_R   0.810546 0.689503 0.117757 0.894749
C90   C     C_R   0.189411 0.689503 0.882239 0.894703
C91   C     C_R   0.310603 0.189503 0.117762 0.894694
C92   C     C_R   0.689411 0.189503 0.882239 0.894699
C93   C     C_R   0.558603 0.939440 0.616934 0.972022
C94   C     C_R   0.441397 0.939440 0.383066 0.972002
C95   C     C_R   0.058603 0.439441 0.616934 0.972025
C96   C     C_R   0.941397 0.439440 0.383067 0.972100
C97   C     C_R   0.836895 0.750042 0.000015 0.873123
C98   C     C_R   0.163105 0.750042 0.999985 0.873045
C99   C     C_R   0.336895 0.250042 0.000015 0.873029
C100  C     C_R   0.663105 0.250042 0.999985 0.873053
C101  C     C_R   0.405300 0.789970 0.996393 -0.176106
C102  C     C_R   0.594684 0.789971 0.003573 -0.176113
C103  C     C_R   0.905342 0.289973 0.996482 -0.176075
C104  C     C_R   0.094726 0.289969 0.003661 -0.176130
C105  C     C_R   0.384770 0.749959 0.000441 -0.072421
C106  C     C_R   0.615231 0.749958 0.999558 -0.072415
C107  C     C_R   0.884768 0.249959 0.000440 -0.072377
C108  C     C_R   0.115228 0.249959 0.999556 -0.072439
C109  C     C_R   0.409395 0.709946 0.004557 -0.180788
C110  C     C_R   0.590623 0.709944 0.995477 -0.180692
C111  C     C_R   0.909345 0.209943 0.004464 -0.180828
C112  C     C_R   0.090572 0.209947 0.995382 -0.180800
C113  C     C_R   0.453907 0.708991 0.000928 0.033951
C114  C     C_R   0.546113 0.708990 0.999111 0.033919
C115  C     C_R   0.953854 0.208991 0.000827 0.033953
C116  C     C_R   0.046058 0.208992 0.999008 0.033939
C117  C     C_R   0.476865 0.749953 0.000154 0.061746
C118  C     C_R   0.523137 0.749953 0.999848 0.061743
C119  C     C_R   0.976860 0.249954 0.000149 0.061717
C120  C     C_R   0.023131 0.249954 0.999842 0.061738
H1    H     H_    0.383875 0.820154 0.992149 0.173386
H2    H     H_    0.616098 0.820156 0.007791 0.173379
H3    H     H_    0.883951 0.320160 0.992308 0.173347
H4    H     H_    0.116172 0.320153 0.007946 0.173402
H5    H     H_    0.041987 0.752215 0.862796 0.149598
H6    H     H_    0.958013 0.752218 0.137204 0.149572
H7    H     H_    0.541987 0.252216 0.862796 0.149595
H8    H     H_    0.458013 0.252216 0.137204 0.149603
H9    H     H_    0.932298 0.751052 0.784108 0.155638
H10   H     H_    0.067703 0.751056 0.215892 0.155630
H11   H     H_    0.432298 0.251054 0.784108 0.155631
H12   H     H_    0.567703 0.251052 0.215893 0.155635
H13   H     H_    0.851002 0.749320 0.784146 0.159440
H14   H     H_    0.148998 0.749323 0.215855 0.159439
H15   H     H_    0.351002 0.249322 0.784146 0.159440
H16   H     H_    0.648998 0.249319 0.215855 0.159441
H17   H     H_    0.989824 0.622018 0.352029 0.184299
H18   H     H_    0.010061 0.622302 0.647343 0.184150
H19   H     H_    0.489978 0.122398 0.352863 0.184102
H20   H     H_    0.510062 0.122307 0.647332 0.184162
H21   H     H_    0.867181 0.607781 0.302699 0.174966
H22   H     H_    0.133036 0.607562 0.697820 0.174965
H23   H     H_    0.366894 0.107490 0.302014 0.174952
H24   H     H_    0.633039 0.107558 0.697827 0.174977
H25   H     H_    0.926127 0.693600 0.267761 0.191755
H26   H     H_    0.074041 0.693802 0.731768 0.192100
H27   H     H_    0.425908 0.193872 0.268391 0.192181
H28   H     H_    0.574044 0.193803 0.731765 0.192097
H29   H     H_    0.392261 0.679766 0.008872 0.180584
H30   H     H_    0.607769 0.679764 0.991189 0.180674
H31   H     H_    0.892178 0.179761 0.008711 0.180559
H32   H     H_    0.107684 0.179769 0.991026 0.180563
H33   H     H_    0.511807 0.883092 0.654105 0.205152
H34   H     H_    0.488192 0.883093 0.345895 0.205152
H35   H     H_    0.011806 0.383090 0.654100 0.205140
H36   H     H_    0.988189 0.383105 0.345870 0.205157
H37   H     H_    0.635712 0.895188 0.705699 0.165079
H38   H     H_    0.364288 0.895186 0.294303 0.165071
H39   H     H_    0.135714 0.395189 0.705702 0.165081
H40   H     H_    0.864294 0.395178 0.294320 0.165108
H41   H     H_    0.676937 0.876327 0.835789 0.144204
H42   H     H_    0.323063 0.876326 0.164212 0.144206
H43   H     H_    0.176935 0.376328 0.835791 0.144210
H44   H     H_    0.823050 0.376322 0.164220 0.144205
H45   H     H_    0.179648 0.748070 0.137113 0.156190
H46   H     H_    0.820352 0.748068 0.862888 0.156190
H47   H     H_    0.679648 0.248067 0.137113 0.156192
H48   H     H_    0.320352 0.248070 0.862888 0.156192
O1    O     O_R   0.679230 0.769690 0.858450 -0.568145
O2    O     O_R   0.320770 0.769690 0.141550 -0.568149
O3    O     O_R   0.179230 0.269690 0.858450 -0.568142
O4    O     O_R   0.820770 0.269690 0.141550 -0.568158
O5    O     O_R   0.082500 0.545230 0.590410 -0.619760
O6    O     O_R   0.917500 0.545230 0.409590 -0.619658
O7    O     O_R   0.582500 0.045230 0.590410 -0.619781
O8    O     O_R   0.417500 0.045230 0.409590 -0.619822
O9    O     O_R   0.507930 0.954750 0.590450 -0.612074
O10   O     O_R   0.492070 0.954750 0.409550 -0.612056
O11   O     O_R   0.007930 0.454750 0.590450 -0.612089
O12   O     O_R   0.992070 0.454750 0.409550 -0.612148
O13   O     O_R   0.582530 0.954770 0.590430 -0.615866
O14   O     O_R   0.417470 0.954770 0.409570 -0.615885
O15   O     O_R   0.082530 0.454770 0.590430 -0.615856
O16   O     O_R   0.917470 0.454770 0.409570 -0.615798
O17   O     O_R   0.730270 0.820760 0.960570 -0.622301
O18   O     O_R   0.269730 0.820760 0.039430 -0.622287
O19   O     O_R   0.230270 0.320760 0.960570 -0.622292
O20   O     O_R   0.769730 0.320760 0.039430 -0.622311
O21   O     O_R   0.658400 0.724440 0.948940 -0.591913
O22   O     O_R   0.341600 0.724440 0.051060 -0.591910
O23   O     O_R   0.158400 0.224440 0.948940 -0.591918
O24   O     O_R   0.841600 0.224440 0.051060 -0.591887
O25   O     O_R   0.709450 0.775510 0.051050 -0.624676
O26   O     O_R   0.290550 0.775510 0.948950 -0.624663
O27   O     O_R   0.209450 0.275510 0.051050 -0.624672
O28   O     O_R   0.790550 0.275510 0.948950 -0.624669
O29   O     O_R   0.769710 0.679220 0.039380 -0.607618
O30   O     O_R   0.230290 0.679220 0.960620 -0.607272
O31   O     O_R   0.269710 0.179220 0.039380 -0.607156
O32   O     O_R   0.730290 0.179220 0.960620 -0.607268
O33   O     O_R   0.820750 0.730290 0.141500 -0.616209
O34   O     O_R   0.179250 0.730290 0.858500 -0.616364
O35   O     O_R   0.320750 0.230290 0.141500 -0.616424
O36   O     O_R   0.679250 0.230290 0.858500 -0.616375
O37   O     O_R   0.790530 0.724470 0.948890 -0.624398
O38   O     O_R   0.209470 0.724470 0.051110 -0.624405
O39   O     O_R   0.290530 0.224470 0.948890 -0.624400
O40   O     O_R   0.709470 0.224470 0.051110 -0.624401
O41   O     O_R   0.841580 0.775540 0.051010 -0.625330
O42   O     O_R   0.158420 0.775540 0.948990 -0.625343
O43   O     O_R   0.341580 0.275540 0.051010 -0.625353
O44   O     O_R   0.658420 0.275540 0.948990 -0.625348
O45   O     O_R   0.007900 0.545210 0.590430 -0.614876
O46   O     O_R   0.992100 0.545210 0.409570 -0.615094
O47   O     O_R   0.507900 0.045210 0.590430 -0.614829
O48   O     O_R   0.492100 0.045210 0.409570 -0.614754
Zn1   Zn    Zn3+2 0.715910 0.715890 0.931790 1.062796
Zn2   Zn    Zn3+2 0.284090 0.715890 0.068210 1.062990
Zn3   Zn    Zn3+2 0.215910 0.215890 0.931790 1.063067
Zn4   Zn    Zn3+2 0.784090 0.215890 0.068210 1.062993
Zn5   Zn    Zn3+2 0.784070 0.784090 0.068160 0.999238
Zn6   Zn    Zn3+2 0.215930 0.784090 0.931840 0.999165
Zn7   Zn    Zn3+2 0.284070 0.284090 0.068160 0.999102
Zn8   Zn    Zn3+2 0.715930 0.284090 0.931840 0.999098
Zn9   Zn    Zn3+2 0.450180 0.999980 0.499990 1.009133
Zn10  Zn    Zn3+2 0.549820 0.999980 0.500010 1.009221
Zn11  Zn    Zn3+2 0.950180 0.499980 0.499990 1.009247
Zn12  Zn    Zn3+2 0.049820 0.499980 0.500010 1.009024
C121  C     C_2   0.820988 0.607581 0.146059 0.988060
O49   O     O_2   0.768442 0.600383 0.113150 -0.546175
O50   O     O_R   0.854522 0.572996 0.151426 -0.749231
H49   H     H_    0.895261 0.583041 0.172517 0.317697
C122  C     C_2   0.178444 0.607526 0.854103 0.988299
O51   O     O_2   0.231029 0.600046 0.887415 -0.546255
O52   O     O_R   0.144490 0.573190 0.848409 -0.749161
H50   H     H_    0.103724 0.583470 0.826957 0.317721
C123  C     C_2   0.321737 0.107505 0.145842 0.988337
O53   O     O_2   0.269139 0.099932 0.112401 -0.546264
O54   O     O_R   0.355827 0.073250 0.151638 -0.749110
H51   H     H_    0.396603 0.083607 0.173205 0.317721
C124  C     C_2   0.678438 0.107527 0.854102 0.988332
O55   O     O_2   0.731021 0.100046 0.887418 -0.546280
O56   O     O_R   0.644481 0.073194 0.848403 -0.749177
H52   H     H_    0.603715 0.083475 0.826947 0.317731
C125  C     C_2   0.452183 0.625113 0.999489 0.957502
O57   O     O_2   0.397415 0.616339 0.941327 -0.582709
O58   O     O_R   0.492300 0.594420 0.064775 -0.770072
H53   H     H_    0.470463 0.566291 0.057129 0.359513
C126  C     C_2   0.547875 0.625113 0.000629 0.957539
O59   O     O_2   0.602648 0.616355 0.058798 -0.582247
O60   O     O_R   0.507772 0.594402 0.935375 -0.770109
H54   H     H_    0.529622 0.566276 0.943047 0.359533
C127  C     C_2   0.952025 0.125114 0.999180 0.957512
O61   O     O_2   0.897245 0.116381 0.940999 -0.582736
O62   O     O_R   0.992104 0.094375 0.064384 -0.770086
H55   H     H_    0.970233 0.066251 0.056666 0.359515
C128  C     C_2   0.047712 0.125114 0.000310 0.957490
O63   O     O_2   0.102471 0.116310 0.058462 -0.582840
O64   O     O_R   0.007568 0.094453 0.934965 -0.770086
H56   H     H_    0.029379 0.066322 0.942560 0.359496
C129  C     C_2   0.546859 0.874791 0.998598 0.951443
O65   O     O_2   0.542897 0.883484 0.940095 -0.590534
O66   O     O_R   0.572469 0.905565 0.063837 -0.773559
H57   H     H_    0.586437 0.933681 0.055844 0.356281
C130  C     C_2   0.453094 0.874792 0.001302 0.951455
O67   O     O_2   0.457056 0.883497 0.059802 -0.590498
O68   O     O_R   0.427471 0.905552 0.936039 -0.773567
H58   H     H_    0.413492 0.933669 0.944010 0.356292
C131  C     C_2   0.047001 0.374793 0.998886 0.951432
O69   O     O_2   0.043044 0.383525 0.940399 -0.590549
O70   O     O_R   0.072651 0.405524 0.064201 -0.773602
H59   H     H_    0.086653 0.433644 0.056276 0.356259
C132  C     C_2   0.953233 0.374792 0.001583 0.951395
O71   O     O_2   0.957202 0.383462 0.060100 -0.590606
O72   O     O_R   0.927648 0.405593 0.936391 -0.773595
H60   H     H_    0.913700 0.433705 0.944424 0.356218
Cl1   Cl    Cl    0.548361 0.795311 0.732784 -0.550782
Cl2   Cl    Cl    0.451639 0.795312 0.267215 -0.550773
Cl3   Cl    Cl    0.048362 0.295307 0.732776 -0.550797
Cl4   Cl    Cl    0.951645 0.295328 0.267174 -0.550764

loop_
_geom_bond_atom_site_label_1
_geom_bond_atom_site_label_2
_ccdc_geom_bond_type
O40   Zn4   S    
O1    Zn1   S    
C55   C56   A    
C83   C123  S    
C82   C90   S    
O42   Zn6   S    
C55   C59   A    
C70   C78   S    
C19   H35   S    
C68   H16   S    
C62   H10   S    
C89   O33   A    
O54   H51   S    
C18   C26   S    
O33   Zn5   S    
C57   C66   A    
C72   C76   D    
C103  H3    S    
C40   C99   S    
C71   C79   S    
C100  O40   A    
O66   H57   S    
C99   O43   A    
C53   C54   A    
O38   Zn2   S    
C28   Cl4   S    
O8    Zn9   S    
C98   O42   A    
C91   O35   A    
O37   Zn1   S    
C126  O59   D    
C50   C54   A    
O7    Zn10  S    
C97   O41   A    
C64   C68   A    
C47   O27   A    
C56   C60   A    
C46   O22   A    
C38   C42   A    
C15   C131  S    
C24   C96   S    
O44   Zn8   S    
C129  O65   D    
C122  O52   S    
C49   C53   A    
C48   C107  S    
C88   O48   A    
O56   H52   S    
C46   C105  S    
C32   H44   S    
C36   H48   S    
C72   C80   S    
O41   Zn5   S    
C35   C59   A    
C128  O63   D    
C94   O10   A    
C1    O1    A    
C65   H13   S    
O34   Zn6   S    
C36   C40   A    
O2    Zn2   S    
O12   Zn12  S    
C3    O3    A    
C66   H14   S    
C52   C56   A    
C93   O13   A    
C103  C107  A    
C64   H12   S    
C60   C67   A    
C94   O14   A    
O48   Zn10  S    
C7    C119  A    
C23   H39   S    
C70   C74   D    
C87   O47   A    
C35   H47   S    
O52   H50   S    
C112  H32   S    
C69   C73   D    
C84   C124  S    
O35   Zn7   S    
C63   H11   S    
O27   Zn7   S    
O46   Zn12  S    
C130  O67   D    
C110  C114  A    
C40   C44   A    
C18   H34   S    
C14   C130  S    
C61   H9    S    
O64   H56   S    
O26   Zn6   S    
C91   O31   A    
C44   C52   A    
C104  C108  A    
O25   Zn5   S    
C74   H22   S    
C17   H33   S    
C81   C89   S    
C74   C85   S    
O17   Zn5   S    
C131  O69   D    
C48   O28   A    
C25   C29   D    
C22   C94   S    
C86   O6    A    
O30   Zn2   S    
C2    O18   A    
C21   H37   S    
C96   O16   A    
C38   C97   S    
O29   Zn1   S    
O22   Zn2   S    
C9    C10   A    
C41   C49   A    
C37   C98   S    
C34   C38   A    
C26   Cl2   S    
O21   Zn1   S    
C46   O26   A    
C31   H43   S    
C69   H17   S    
C123  O54   S    
C34   H46   S    
O10   Zn10  S    
C5    C101  A    
C126  O60   S    
C101  C105  A    
C49   C61   A    
C15   C16   A    
C62   C66   A    
C4    O4    A    
C27   C31   D    
C80   C84   D    
C41   H5    S    
C11   C115  A    
C28   C32   D    
O31   Zn3   S    
C53   C57   A    
O60   H54   S    
C10   C114  A    
C52   C64   A    
C43   H7    S    
C129  O66   S    
C93   O9    A    
C95   O11   A    
C27   Cl3   S    
C20   C28   S    
C36   C60   A    
C12   C128  S    
C100  O44   A    
O11   Zn11  S    
C101  H1    S    
C108  C112  A    
C3    O19   A    
C124  O56   S    
C45   O25   A    
C5    C117  A    
C19   C23   D    
O6    Zn11  S    
C86   O46   A    
C63   C67   A    
C67   H15   S    
O45   Zn11  S    
C85   O45   A    
C59   C68   A    
C8    C104  A    
C78   C82   D    
C58   C65   A    
C85   O5    A    
C77   C81   D    
C109  H29   S    
C11   C12   A    
O43   Zn7   S    
O19   Zn7   S    
C11   C127  S    
C1    C29   S    
C132  O71   D    
C51   C63   A    
O14   Zn9   S    
C114  C118  A    
O68   H58   S    
C96   O12   A    
C119  C120  A    
C3    C31   S    
C130  O68   S    
C76   C87   S    
C5    C14   A    
O28   Zn8   S    
C22   H38   S    
C2    O2    A    
C113  C117  A    
C76   H24   S    
C25   Cl1   S    
C7    C16   A    
O72   H60   S    
C42   C50   A    
O3    Zn3   S    
C111  H31   S    
C8    C15   A    
C115  C119  A    
C125  O58   S    
O32   Zn4   S    
C73   H21   S    
C47   O23   A    
C30   H42   S    
C72   H20   S    
O23   Zn3   S    
O62   H55   S    
O20   Zn8   S    
C112  C116  A    
C19   C27   S    
C45   C106  S    
C8    C120  A    
C33   C37   A    
C92   O36   A    
C106  C110  A    
C45   O21   A    
C89   O29   A    
C105  C109  A    
C44   H8    S    
C33   C57   A    
C9    C125  S    
C20   H36   S    
C18   C22   D    
C107  C111  A    
C33   H45   S    
O18   Zn6   S    
C71   C75   D    
C125  O57   D    
C16   C132  S    
C110  H30   S    
O5    Zn12  S    
O4    Zn4   S    
O15   Zn12  S    
C79   H27   S    
O58   H53   S    
C24   H40   S    
C75   H23   S    
C71   H19   S    
C104  H4    S    
C109  C113  A    
O13   Zn10  S    
C87   O7    A    
C90   O30   A    
C78   H26   S    
O39   Zn3   S    
C88   O8    A    
C69   C77   S    
C2    C30   S    
C10   C126  S    
C97   O37   A    
C1    O17   A    
C4    O20   A    
C131  O70   S    
O16   Zn11  S    
C17   C25   S    
C121  O50   S    
C92   O32   A    
C117  C118  A    
C6    C13   A    
C79   C83   D    
C70   H18   S    
C95   O15   A    
C39   C100  S    
C127  O61   D    
C77   H25   S    
C21   C93   S    
C43   C51   A    
C124  O55   D    
C50   C62   A    
C35   C39   A    
C83   C91   S    
C7    C103  A    
C90   O34   A    
O24   Zn4   S    
C132  O72   S    
C23   C95   S    
C102  C106  A    
C51   C55   A    
O47   Zn9   S    
C6    C102  A    
C61   C65   A    
C37   C41   A    
C123  O53   D    
C73   C86   S    
C48   O24   A    
C42   H6    S    
O9    Zn9   S    
C4    C32   S    
C116  C120  A    
C75   C88   S    
C80   H28   S    
C54   C58   A    
C39   C43   A    
C111  C115  A    
C47   C108  S    
C127  O62   S    
C82   C122  S    
C99   O39   A    
O50   H49   S    
C34   C58   A    
C9    C113  A    
C102  H2    S    
C121  O49   D    
C98   O38   A    
C81   C121  S    
C84   C92   S    
C29   H41   S    
C128  O64   S    
C13   C14   A    
C13   C129  S    
C20   C24   D    
O36   Zn8   S    
O70   H59   S    
C122  O51   D    
C6    C118  A    
C12   C116  A    
C26   C30   D    
C17   C21   D    
