data_mof_unit_28907.cif
_audit_creation_date              2013-03-05T15:54:35-0500
_audit_creation_method            fapswitch 2.2
_symmetry_space_group_name_H-M    P1
_symmetry_Int_Tables_number       1
_space_group_crystal_system       triclinic
_cell_length_a                    17.363764
_cell_length_b                    24.435659
_cell_length_c                    14.811216
_cell_angle_alpha                 90.47793
_cell_angle_beta                  125.296965
_cell_angle_gamma                 88.835647
_cell_volume                      5127.96275235

loop_
_atom_site_label
_atom_site_type_symbol
_atom_site_description
_atom_site_fract_x
_atom_site_fract_y
_atom_site_fract_z
_atom_type_partial_charge
C1    C     C_R   0.808541 0.625462 0.908735 -0.125783
C2    C     C_R   0.149751 0.651073 0.094034 -0.133248
C3    C     C_R   0.308591 0.125535 0.908696 -0.125827
C4    C     C_R   0.649749 0.151073 0.094036 -0.133220
H1    H     H_    0.748629 0.631051 0.824022 0.105985
H2    H     H_    0.191334 0.664226 0.179405 0.102543
H3    H     H_    0.248714 0.131140 0.823967 0.105991
H4    H     H_    0.691331 0.164225 0.179408 0.102529
N1    N     N_R   0.892620 0.603790 0.941770 -0.043619
N2    N     N_R   0.107380 0.603790 0.058230 -0.041093
N3    N     N_R   0.392620 0.103790 0.941770 -0.043619
N4    N     N_R   0.607380 0.103790 0.058230 -0.041091
C5    C     C_R   0.910615 0.370849 0.095119 0.353621
C6    C     C_R   0.055951 0.348271 0.907928 0.320001
C7    C     C_R   0.410610 0.870852 0.095116 0.353598
C8    C     C_R   0.556051 0.848280 0.907961 0.319970
N5    N     N_R   0.952270 0.397640 0.058010 -0.093730
N6    N     N_R   0.047730 0.397640 0.941990 -0.089266
N7    N     N_R   0.452270 0.897640 0.058010 -0.093717
N8    N     N_R   0.547730 0.897640 0.941990 -0.089239
C9    C     C_R   0.052377 0.547156 0.305489 -0.161280
C10   C     C_R   0.020659 0.546686 0.753919 -0.143616
C11   C     C_R   0.552354 0.047159 0.305476 -0.161188
C12   C     C_R   0.520660 0.046686 0.753922 -0.143628
N9    N     N_R   0.026310 0.529110 0.206760 -0.046477
N10   N     N_R   0.973690 0.529110 0.793240 -0.046222
N11   N     N_R   0.526310 0.029110 0.206760 -0.046473
N12   N     N_R   0.473690 0.029110 0.793240 -0.046224
C13   C     C_R   0.740311 0.455247 0.700153 -0.108589
C14   C     C_R   0.269007 0.453575 0.252665 -0.122191
C15   C     C_R   0.240340 0.955251 0.700117 -0.108646
C16   C     C_R   0.769012 0.953571 0.252741 -0.122051
N13   N     N_R   0.818570 0.472310 0.793020 -0.033391
N14   N     N_R   0.181430 0.472310 0.206980 -0.041627
N15   N     N_R   0.318570 0.972310 0.793020 -0.033402
N16   N     N_R   0.681430 0.972310 0.206980 -0.041618
C17   C     C_R   0.055468 0.456846 0.309120 -0.043036
C18   C     C_R   0.018566 0.455359 0.748317 -0.085350
C19   C     C_R   0.555462 0.956848 0.309118 -0.043061
C20   C     C_R   0.518560 0.955359 0.748309 -0.085173
H5    H     H_    0.082886 0.416811 0.343133 0.162817
H6    H     H_    0.030550 0.413420 0.736633 0.157732
H7    H     H_    0.582881 0.916813 0.343133 0.162815
H8    H     H_    0.530530 0.913419 0.736605 0.157706
N17   N     N_R   0.026930 0.472300 0.207330 -0.058297
N18   N     N_R   0.973070 0.472300 0.792670 -0.034527
N19   N     N_R   0.526930 0.972300 0.207330 -0.058302
N20   N     N_R   0.473070 0.972300 0.792670 -0.034493
C21   C     C_R   0.739099 0.546731 0.699205 -0.145785
C22   C     C_R   0.269507 0.545551 0.252102 -0.142679
C23   C     C_R   0.239146 0.046734 0.699165 -0.145628
C24   C     C_R   0.769516 0.045551 0.252169 -0.142828
H9    H     H_    0.723957 0.588534 0.669508 0.098100
H10   H     H_    0.292655 0.587422 0.269292 0.104673
H11   H     H_    0.224022 0.088540 0.669489 0.097977
H12   H     H_    0.792662 0.087423 0.269350 0.104668
N21   N     N_R   0.817960 0.529130 0.792460 -0.043660
N22   N     N_R   0.182040 0.529130 0.207540 -0.042133
N23   N     N_R   0.317960 0.029130 0.792460 -0.043669
N24   N     N_R   0.682040 0.029130 0.207540 -0.042113
C25   C     C_R   0.815784 0.371338 0.909796 -0.143948
C26   C     C_R   0.147763 0.348638 0.091228 -0.168640
C27   C     C_R   0.315780 0.871343 0.909793 -0.144307
C28   C     C_R   0.647858 0.848673 0.091263 -0.168771
N25   N     N_R   0.894850 0.397640 0.943830 -0.051999
N26   N     N_R   0.105150 0.397640 0.056170 -0.065096
N27   N     N_R   0.394850 0.897640 0.943830 -0.052040
N28   N     N_R   0.605150 0.897640 0.056170 -0.065082
C29   C     C_R   0.902730 0.625189 0.093779 -0.118093
C30   C     C_R   0.058010 0.652415 0.909829 -0.156605
C31   C     C_R   0.402751 0.125271 0.093753 -0.118173
C32   C     C_R   0.558008 0.152416 0.909831 -0.156615
N29   N     N_R   0.950040 0.603780 0.055950 -0.042328
N30   N     N_R   0.049960 0.603780 0.944050 -0.041498
N31   N     N_R   0.450040 0.103780 0.055950 -0.042310
N32   N     N_R   0.549960 0.103780 0.944050 -0.041499
C33   C     C_R   0.812559 0.638291 0.003145 0.063485
C34   C     C_R   0.120587 0.681841 0.002793 0.084051
C35   C     C_R   0.312614 0.138416 0.003081 0.063502
C36   C     C_R   0.620583 0.181842 0.002796 0.084042
C37   C     C_R   0.824343 0.354312 0.004069 -0.119877
C38   C     C_R   0.117100 0.315680 0.000242 -0.087262
C39   C     C_R   0.324335 0.854318 0.004065 -0.119713
C40   C     C_R   0.617302 0.815720 0.000305 -0.087172
C41   C     C_R   0.070756 0.502748 0.371836 0.044378
C42   C     C_R   0.049667 0.501523 0.723990 0.039682
C43   C     C_R   0.570737 0.002751 0.371827 0.044379
C44   C     C_R   0.549664 0.001524 0.723988 0.039609
C45   C     C_R   0.689802 0.501181 0.641865 0.018513
C46   C     C_R   0.324770 0.498776 0.280415 0.029319
C47   C     C_R   0.189878 0.001188 0.641792 0.018536
C48   C     C_R   0.824781 0.998771 0.280561 0.029393
Ni1   Ni    Ni4+2 0.934160 0.565860 0.869070 0.209005
Ni2   Ni    Ni4+2 0.065840 0.565860 0.130930 0.202601
Ni3   Ni    Ni4+2 0.434160 0.065860 0.869070 0.208975
Ni4   Ni    Ni4+2 0.565840 0.065860 0.130930 0.202610
Ni5   Ni    Ni4+2 0.067260 0.435560 0.132230 0.243799
Ni6   Ni    Ni4+2 0.932740 0.435560 0.867770 0.290550
Ni7   Ni    Ni4+2 0.567260 0.935560 0.132230 0.243815
Ni8   Ni    Ni4+2 0.432740 0.935560 0.867770 0.290466
C49   C     C_3   0.520199 0.468135 0.530891 -0.154983
C50   C     C_3   0.489848 0.447628 0.416248 -0.160611
C51   C     C_3   0.020150 0.968520 0.531281 -0.154727
C52   C     C_3   0.989644 0.947566 0.416861 -0.160748
C53   C     C_3   0.454697 0.518553 0.478917 -0.137538
C54   C     C_3   0.569284 0.480626 0.425300 -0.133889
C55   C     C_3   0.954883 0.018992 0.478792 -0.137753
C56   C     C_3   0.069202 0.980189 0.425457 -0.134153
H13   H     H_    0.529439 0.442526 0.598233 0.113430
H14   H     H_    0.470592 0.405098 0.385155 0.114651
H15   H     H_    0.029310 0.943227 0.598934 0.113497
H16   H     H_    0.970209 0.904973 0.386292 0.114540
C57   C     C_3   0.424961 0.498191 0.364934 0.177654
C58   C     C_3   0.597672 0.501100 0.538480 0.180222
C59   C     C_3   0.924982 0.998182 0.365019 0.177732
C60   C     C_3   0.097751 0.001110 0.538425 0.180218
C61   C     C_3   0.501924 0.531316 0.371646 -0.155364
C62   C     C_3   0.532810 0.551624 0.487030 -0.161903
C63   C     C_3   0.002070 0.030932 0.371272 -0.155143
C64   C     C_3   0.033128 0.051690 0.486454 -0.161968
H17   H     H_    0.491500 0.556865 0.303637 0.120448
H18   H     H_    0.551496 0.594259 0.517658 0.117159
H19   H     H_    0.991722 0.056165 0.302950 0.120492
H20   H     H_    0.052033 0.094382 0.516579 0.117148
C65   C     C_R   0.812042 0.272621 0.083648 0.283643
C66   C     C_R   0.104644 0.228070 0.906789 0.271554
C67   C     C_R   0.312046 0.772615 0.083620 0.283641
C68   C     C_R   0.604732 0.727982 0.907035 0.271845
C69   C     C_R   0.766842 0.314916 0.007198 0.053809
C70   C     C_R   0.138018 0.256783 0.004631 0.019271
C71   C     C_R   0.266840 0.814918 0.007191 0.053782
C72   C     C_R   0.638400 0.756844 0.004820 0.019452
C73   C     C_R   0.667954 0.317821 0.935530 -0.188911
C74   C     C_R   0.210376 0.232755 0.105702 -0.173883
C75   C     C_R   0.167952 0.817826 0.935544 -0.188901
C76   C     C_R   0.710922 0.732906 0.105915 -0.173772
H21   H     H_    0.632167 0.351282 0.877102 0.135830
H22   H     H_    0.235925 0.251785 0.184121 0.134021
H23   H     H_    0.132160 0.851293 0.877133 0.135841
H24   H     H_    0.736842 0.752093 0.184332 0.133803
C77   C     C_R   0.115909 0.775123 0.935760 -0.209747
C78   C     C_R   0.760708 0.687498 0.106853 -0.199238
C79   C     C_R   0.615907 0.275120 0.935746 -0.209750
C80   C     C_R   0.260443 0.187490 0.106647 -0.199386
C81   C     C_R   0.164320 0.731238 0.009028 0.027075
C82   C     C_R   0.739098 0.665894 0.006693 0.039304
C83   C     C_R   0.664314 0.231241 0.009036 0.027100
C84   C     C_R   0.239146 0.166085 0.006512 0.039384
C85   C     C_R   0.261416 0.731866 0.085816 0.137069
C86   C     C_R   0.655894 0.682851 0.907608 0.116737
C87   C     C_R   0.761407 0.231875 0.085844 0.137018
C88   C     C_R   0.156044 0.183082 0.907375 0.116949
C89   C     C_3   0.332342 0.688619 0.106716 -0.547957
C90   C     C_3   0.569727 0.648854 0.842741 -0.537109
C91   C     C_3   0.832344 0.188626 0.106782 -0.547976
C92   C     C_3   0.070048 0.149007 0.842052 -0.537612
C93   C     C_3   0.888318 0.233875 0.102991 -0.467866
C94   C     C_3   0.014775 0.196730 0.843230 -0.430456
C95   C     C_3   0.388310 0.733872 0.102925 -0.467928
C96   C     C_3   0.514722 0.696764 0.843837 -0.430853
H25   H     H_    0.367615 0.669666 0.190022 0.203669
H26   H     H_    0.551275 0.639269 0.758936 0.201795
H27   H     H_    0.867605 0.169682 0.190095 0.203716
H28   H     H_    0.051865 0.139649 0.758300 0.201895
H29   H     H_    0.956725 0.239666 0.184148 0.250420
H30   H     H_    0.962477 0.213925 0.759380 0.238956
H31   H     H_    0.456726 0.739658 0.184074 0.250426
H32   H     H_    0.462398 0.713894 0.759929 0.238867
C97   C     C_R   0.105054 0.553363 0.628016 0.160858
C98   C     C_R   0.111319 0.553617 0.539299 0.164933
C99   C     C_R   0.605044 0.053366 0.628010 0.160863
C100  C     C_R   0.611302 0.053622 0.539289 0.164920
C101  C     C_R   0.098253 0.503729 0.669895 0.030617
C102  C     C_R   0.110107 0.504355 0.489765 0.020805
C103  C     C_R   0.598248 0.003732 0.669892 0.030620
C104  C     C_R   0.610091 0.004360 0.489756 0.020830
C105  C     C_R   0.123964 0.455323 0.640785 -0.181324
C106  C     C_R   0.129861 0.455596 0.550420 -0.175635
C107  C     C_R   0.623963 0.955327 0.640783 -0.181341
C108  C     C_R   0.629855 0.955601 0.550415 -0.175602
C109  C     C_3   0.050898 0.604273 0.490882 -0.513224
C110  C     C_3   0.043537 0.604018 0.587259 -0.513529
C111  C     C_3   0.550877 0.104276 0.490872 -0.513222
C112  C     C_3   0.543521 0.104020 0.587253 -0.513537
H33   H     H_    0.981783 0.597268 0.410739 0.202312
H34   H     H_    0.078760 0.639398 0.643533 0.192864
H35   H     H_    0.481760 0.097268 0.410732 0.202307
H36   H     H_    0.578744 0.139401 0.643525 0.192869
H37   H     H_    0.090812 0.639584 0.491995 0.193479
H38   H     H_    0.970193 0.596758 0.560717 0.204228
H39   H     H_    0.590786 0.139588 0.491980 0.193488
H40   H     H_    0.470180 0.096757 0.560717 0.204226
H41   H     H_    0.039920 0.774972 0.876591 0.137559
H42   H     H_    0.821985 0.673730 0.185852 0.126547
H43   H     H_    0.539921 0.274965 0.876560 0.137540
H44   H     H_    0.321584 0.173625 0.185646 0.126630
H45   H     H_    0.304502 0.659088 0.037348 0.209121
H46   H     H_    0.571949 0.612830 0.889718 0.207487
H47   H     H_    0.804520 0.159088 0.037429 0.209125
H48   H     H_    0.072260 0.112833 0.888684 0.207538
H49   H     H_    0.892558 0.231172 0.030947 0.187962
H50   H     H_    0.985845 0.188851 0.892053 0.181767
H51   H     H_    0.392531 0.731178 0.030866 0.187897
H52   H     H_    0.485907 0.689133 0.892878 0.181766
H53   H     H_    0.127186 0.416365 0.677099 0.149342
H54   H     H_    0.137260 0.416662 0.520775 0.149369
H55   H     H_    0.627191 0.916369 0.677101 0.149369
H56   H     H_    0.637256 0.916667 0.520772 0.149378
N33   N     N_R   0.957680 0.351999 0.206435 0.202886
O1    O     O_R   0.041363 0.329448 0.256563 -0.475278
O2    O     O_R   0.915417 0.354338 0.255766 -0.419293
N34   N     N_R   0.988863 0.328891 0.798138 0.205983
O3    O     O_R   0.900356 0.342956 0.747012 -0.440121
O4    O     O_R   0.018298 0.309566 0.740740 -0.451594
N35   N     N_R   0.457671 0.852000 0.206431 0.202889
O5    O     O_R   0.541352 0.829448 0.256561 -0.475210
O6    O     O_R   0.415401 0.854333 0.255754 -0.419272
N36   N     N_R   0.489054 0.828878 0.798162 0.205929
O7    O     O_R   0.400557 0.843027 0.746825 -0.440121
O8    O     O_R   0.518614 0.809430 0.740966 -0.451446
H57   H     H_    0.074143 0.588647 0.332708 0.107617
H58   H     H_    0.036176 0.588811 0.752206 0.113531
H59   H     H_    0.574104 0.088653 0.332687 0.107604
H60   H     H_    0.536180 0.088811 0.752212 0.113542
H61   H     H_    0.725706 0.413372 0.671637 0.127704
H62   H     H_    0.291315 0.411075 0.269826 0.098791
H63   H     H_    0.225732 0.913374 0.671607 0.127662
H64   H     H_    0.791309 0.911071 0.269902 0.098659
H65   H     H_    0.759574 0.362441 0.824906 0.133456
H66   H     H_    0.184733 0.335438 0.176230 0.135315
H67   H     H_    0.259570 0.862448 0.824901 0.133432
H68   H     H_    0.684802 0.835485 0.176266 0.135317
H69   H     H_    0.931169 0.629652 0.180137 0.094246
H70   H     H_    0.015600 0.667155 0.825330 0.098122
H71   H     H_    0.431175 0.129783 0.180101 0.094245
H72   H     H_    0.515597 0.167156 0.825333 0.098111
H73   H     H_    0.406027 0.533965 0.499608 0.118099
H74   H     H_    0.619384 0.465310 0.406814 0.128137
H75   H     H_    0.906333 0.034766 0.499384 0.118099
H76   H     H_    0.119195 0.964514 0.407085 0.128220

loop_
_geom_bond_atom_site_label_1
_geom_bond_atom_site_label_2
_geom_bond_distance
_ccdc_geom_bond_type
C99   C100  1.379790 A    
C21   H9    1.081184 S    
C73   H21   1.083188 S    
C49   C50   1.540942 S    
C10   C42   1.376727 A    
C15   H63   1.081357 S    
C91   C93   1.509321 S    
C1    C33   1.392576 A    
C97   C98   1.379797 A    
C14   H62   1.080462 S    
C29   C33   1.383419 A    
C56   C63   1.554693 S    
C3    N3    1.340904 A    
C13   H61   1.081352 S    
C14   C46   1.379268 A    
C3    C35   1.392456 A    
C63   H19   1.110066 S    
C31   C35   1.383504 A    
C21   N21   1.329699 A    
C70   C74   1.405494 A    
C109  C110  1.505003 S    
C7    N7    1.318513 A    
C43   C104  1.462867 S    
C10   H58   1.073496 S    
C109  H33   1.112331 S    
C22   H10   1.080410 S    
C44   C103  1.462947 S    
C9    H57   1.079808 S    
C18   C42   1.396546 A    
N12   Ni3   1.840649 S    
C1    H1    1.078817 S    
C28   N28   1.334423 A    
N26   Ni5   1.837078 S    
C27   H67   1.080121 S    
C8    N8    1.340375 A    
N25   Ni6   1.859901 S    
C4    C36   1.363305 A    
C71   C75   1.403602 A    
C78   C82   1.404253 A    
N35   O6    1.301113 A    
N32   Ni3   1.900774 S    
C30   H70   1.081676 S    
C100  C111  1.496565 S    
C90   H46   1.112792 S    
C65   C93   1.499215 S    
C30   C34   1.371060 A    
N2    Ni2   1.865504 S    
C49   H13   1.110671 S    
C5    C37   1.380906 A    
C8    C40   1.391967 A    
N14   Ni5   1.865888 S    
N19   Ni7   1.841628 S    
C47   C60   1.439702 S    
N15   N23   1.388314 A    
N13   Ni6   1.835759 S    
C110  H34   1.112002 S    
C46   C57   1.440963 S    
C4    H4    1.082152 S    
C85   C89   1.497101 S    
C28   C40   1.384949 A    
C76   C78   1.387818 A    
C65   C87   1.354457 A    
C34   C81   1.412967 S    
C23   C47   1.369473 A    
C82   C86   1.395817 A    
C109  H37   1.111742 S    
C76   H24   1.080167 S    
C22   C46   1.378933 A    
C36   C83   1.412975 S    
C88   C92   1.492178 S    
C51   C55   1.533244 S    
C16   H64   1.080441 S    
C13   N13   1.328823 A    
C95   H31   1.108958 S    
C26   H66   1.079608 S    
C30   N30   1.336965 A    
C25   H65   1.080117 S    
C112  H40   1.112355 S    
N7    N27   1.380401 A    
C31   H71   1.077867 S    
C38   C70   1.469846 S    
C24   N24   1.328584 A    
C4    N4    1.315618 A    
C102  C106  1.410482 A    
N3    Ni3   1.841865 S    
C53   H73   1.111014 S    
C80   C84   1.403958 A    
C32   H72   1.081676 S    
C17   C41   1.378823 A    
N10   Ni1   1.840649 S    
C12   H60   1.073499 S    
C74   H22   1.079821 S    
N18   Ni6   1.864406 S    
N9    Ni2   1.863263 S    
N17   Ni5   1.841627 S    
N21   Ni1   1.890751 S    
N23   Ni3   1.890751 S    
C49   C58   1.529343 S    
C54   C58   1.531168 S    
N30   Ni1   1.900774 S    
N11   Ni4   1.863263 S    
C2    H2    1.082151 S    
N1    N29   1.380401 A    
N29   Ni2   1.869715 S    
N3    N31   1.380401 A    
C68   C72   1.399287 A    
C13   C45   1.369491 A    
N8    N28   1.380400 A    
N31   Ni4   1.869715 S    
N33   O1    1.301454 A    
C23   N23   1.329644 A    
C27   N27   1.335162 A    
C98   C109  1.496567 S    
C66   C94   1.498890 S    
C49   C53   1.533320 S    
N20   Ni8   1.864406 S    
C107  H55   1.081794 S    
C84   C88   1.395700 A    
C73   C79   1.395414 A    
C14   N14   1.329533 A    
C24   H12   1.080412 S    
C22   N22   1.328610 A    
C5    N33   1.427805 S    
C99   C112  1.500374 S    
C104  C108  1.410485 A    
C1    N1    1.341135 A    
C7    N35   1.427807 S    
C93   H29   1.108959 S    
C28   H68   1.079579 S    
C66   C88   1.398719 A    
C26   N26   1.334625 A    
C7    C39   1.380912 A    
C91   H27   1.112098 S    
N1    Ni1   1.841865 S    
C99   C103  1.404519 A    
C40   C72   1.469821 S    
C9    C41   1.373444 A    
C112  H36   1.112002 S    
C59   C63   1.529620 S    
C64   H20   1.109961 S    
C52   H16   1.109926 S    
C87   C91   1.497113 S    
C89   C95   1.509330 S    
C83   C87   1.386020 A    
N35   O5    1.301452 A    
C111  C112  1.505000 S    
C90   C96   1.501719 S    
C2    C34   1.363305 A    
C111  H35   1.112332 S    
C52   C59   1.530721 S    
C5    N5    1.318505 A    
C95   H51   1.112575 S    
N8    Ni8   1.859834 S    
C75   C77   1.395414 A    
C72   C76   1.405561 A    
C79   H43   1.082982 S    
C68   C96   1.498897 S    
N7    Ni7   1.890866 S    
C41   C102  1.462876 S    
C78   H42   1.080585 S    
C53   C57   1.534070 S    
C32   N32   1.336968 A    
C77   H41   1.082978 S    
C29   N29   1.331168 A    
C12   C44   1.376719 A    
C55   C59   1.533987 S    
C58   C62   1.529938 S    
C10   N10   1.325172 A    
N27   Ni8   1.859901 S    
C92   H48   1.112646 S    
C57   C61   1.529708 S    
N24   Ni4   1.860570 S    
C68   C86   1.398958 A    
C11   H59   1.079803 S    
C79   C83   1.401015 A    
C11   N11   1.330425 A    
N4    N32   1.380402 A    
C65   C69   1.387736 A    
C54   H74   1.110015 S    
C37   C69   1.420912 S    
C94   H50   1.112821 S    
C15   N15   1.328814 A    
C53   C62   1.536797 S    
C24   C48   1.378933 A    
C93   H49   1.112582 S    
C6    C38   1.391823 A    
C17   N17   1.341514 A    
N15   Ni8   1.835759 S    
C2    N2    1.315629 A    
N9    N17   1.388073 A    
C55   C64   1.536746 S    
C52   C56   1.549132 S    
C91   H47   1.112579 S    
C94   H30   1.110614 S    
C19   N19   1.341505 A    
C98   C102  1.398626 A    
N11   N19   1.388071 A    
C20   N20   1.344953 A    
C9    N9    1.330448 A    
C45   C58   1.439845 S    
N12   N20   1.388368 A    
C29   H69   1.077817 S    
C69   C73   1.403610 A    
C67   C95   1.499198 S    
N5    N25   1.380401 A    
C6    N6    1.340255 A    
C90   H26   1.112130 S    
C12   N12   1.325162 A    
C15   C47   1.369475 A    
C21   C45   1.369553 A    
N16   N24   1.388606 A    
C111  H39   1.111743 S    
C96   H52   1.112996 S    
C103  C107  1.405978 A    
C63   C64   1.546609 S    
C16   N16   1.329471 A    
C18   H6    1.074001 S    
C35   C84   1.458200 S    
C80   H44   1.080469 S    
C51   H15   1.110615 S    
N13   N21   1.388314 A    
N6    N26   1.380400 A    
N6    Ni6   1.859834 S    
C75   H23   1.083181 S    
C3    H3    1.078829 S    
C56   H76   1.109958 S    
C6    N34   1.430398 S    
N36   O8    1.301066 A    
C42   C101  1.462962 S    
C56   C60   1.531072 S    
C92   C94   1.501596 S    
C39   C71   1.420907 S    
N22   Ni2   1.860570 S    
N28   Ni7   1.837078 S    
C17   H5    1.072195 S    
C54   C61   1.554730 S    
C50   C57   1.530743 S    
C25   C37   1.382829 A    
C61   C62   1.546605 S    
C67   C85   1.354460 A    
C92   H28   1.111908 S    
C31   N31   1.331305 A    
C8    N36   1.430409 S    
N2    N30   1.380402 A    
C97   C101  1.404518 A    
C20   C44   1.396547 A    
N36   O7    1.300576 A    
C16   C48   1.379202 A    
C55   H75   1.110948 S    
C62   H18   1.110039 S    
C106  H54   1.080580 S    
C77   C81   1.401010 A    
N33   O2    1.301114 A    
C105  H53   1.081792 S    
C51   C60   1.529210 S    
N16   Ni7   1.865888 S    
C23   H11   1.081175 S    
C96   H32   1.110646 S    
C25   N25   1.335169 A    
C26   C38   1.385020 A    
C48   C59   1.440938 S    
C67   C71   1.387729 A    
C97   C110  1.500371 S    
C18   N18   1.344943 A    
C50   H14   1.109999 S    
N34   O4    1.300978 A    
C74   C80   1.387969 A    
C107  C108  1.400145 A    
C60   C64   1.529885 S    
C20   H8    1.074032 S    
C89   H45   1.112572 S    
N34   O3    1.300514 A    
C19   H7    1.072199 S    
C32   C36   1.371070 A    
C105  C106  1.400153 A    
C86   C90   1.492565 S    
C50   C54   1.549292 S    
C27   C39   1.382829 A    
C51   C52   1.540758 S    
N14   N22   1.388606 A    
C66   C70   1.399019 A    
N4    Ni4   1.865504 S    
C11   C43   1.373462 A    
C61   H17   1.110134 S    
C110  H38   1.112355 S    
C101  C105  1.405982 A    
C108  H56   1.080577 S    
N10   N18   1.388368 A    
N5    Ni5   1.890866 S    
C33   C82   1.458324 S    
C89   H25   1.112091 S    
C81   C85   1.386012 A    
C19   C43   1.378835 A    
C100  C104  1.398622 A    
