data_mof_unit_17861.cif
_audit_creation_date              2013-03-05T16:24:35-0500
_audit_creation_method            fapswitch 2.2
_symmetry_space_group_name_H-M    P1
_symmetry_Int_Tables_number       1
_space_group_crystal_system       triclinic
_cell_length_a                    27.258712
_cell_length_b                    15.734904
_cell_length_c                    14.951584
_cell_angle_alpha                 88.407135
_cell_angle_beta                  90.474117
_cell_angle_gamma                 90.372211
_cell_volume                      6410.1084954

loop_
_atom_site_label
_atom_site_type_symbol
_atom_site_description
_atom_site_fract_x
_atom_site_fract_y
_atom_site_fract_z
_atom_type_partial_charge
O1    O     O_R   0.500000 0.376780 0.574460 -0.635840
O2    O     O_R   0.500000 0.623220 0.425540 -0.642459
O3    O     O_R   0.500010 0.376780 0.425520 -0.576202
O4    O     O_R   0.499990 0.623220 0.574480 -0.562114
C1    C     C_R   0.500025 0.337569 0.501207 0.940797
C2    C     C_R   0.499349 0.662348 0.498777 0.947409
O5    O     O_R   0.428750 0.500010 0.574460 -0.606001
O6    O     O_R   0.571250 0.499990 0.425540 -0.603279
O7    O     O_R   0.428760 0.500020 0.425520 -0.600099
O8    O     O_R   0.571240 0.499980 0.574480 -0.600096
C3    C     C_R   0.405619 0.499857 0.499703 0.952915
C4    C     C_R   0.594457 0.503475 0.500431 0.925385
Zn1   Zn    Zn3+2 0.499990 0.500000 0.599450 1.026879
Zn2   Zn    Zn3+2 0.500010 0.500000 0.400550 1.023852
C5    C     C_R   0.182153 0.537952 0.599096 0.495329
C6    C     C_R   0.822973 0.610342 0.472281 0.495660
O9    O     O_2   0.211897 0.512262 0.666946 -0.572539
O10   O     O_2   0.798550 0.645932 0.402190 -0.581728
N1    N     N_R   0.202804 0.568191 0.521521 -0.350256
N2    N     N_R   0.801286 0.544966 0.519570 -0.350463
C7    C     C_R   0.175983 0.608866 0.456341 0.495054
C8    C     C_R   0.826267 0.497785 0.582464 0.498472
C9    C     C_R   0.288724 0.615361 0.536442 0.168615
C10   C     C_R   0.728712 0.475834 0.451149 0.166050
C11   C     C_R   0.338464 0.594286 0.531866 -0.241965
C12   C     C_R   0.677212 0.468476 0.447349 -0.250047
C13   C     C_R   0.318301 0.456614 0.468546 -0.032661
C14   C     C_R   0.669204 0.576819 0.560177 -0.022494
C15   C     C_R   0.268721 0.477475 0.473621 -0.240716
C16   C     C_R   0.719954 0.582532 0.565145 -0.242390
C17   C     C_R   0.253986 0.554899 0.508324 0.297815
C18   C     C_R   0.749457 0.533417 0.511590 0.294539
C19   C     C_R   0.103037 0.586713 0.545715 -0.077783
C20   C     C_R   0.898764 0.582922 0.552078 -0.083102
C21   C     C_R   0.130713 0.538659 0.609591 -0.053287
C22   C     C_R   0.871208 0.636591 0.493739 -0.053241
C23   C     C_R   0.106229 0.497370 0.682835 0.048044
C24   C     C_R   0.892896 0.714204 0.461735 0.060982
C25   C     C_R   0.125865 0.621603 0.468451 -0.009761
C26   C     C_R   0.875919 0.514081 0.598053 -0.009102
C27   C     C_R   0.353244 0.515813 0.499370 -0.075953
C28   C     C_R   0.647549 0.517270 0.502213 -0.091972
H1    H     H_    0.240883 0.432350 0.453086 0.130948
H2    H     H_    0.737225 0.627430 0.609496 0.129640
C29   C     C_R   0.976941 0.544640 0.623608 0.104879
C30   C     C_R   0.024572 0.646238 0.493387 0.101011
C31   C     C_R   0.973441 0.656449 0.506287 -0.002370
C32   C     C_R   0.028410 0.556136 0.629583 0.009870
C33   C     C_R   0.949583 0.596017 0.562218 0.034592
C34   C     C_R   0.052069 0.596798 0.556581 0.032950
C35   C     C_R   0.952952 0.477171 0.669699 -0.142962
C36   C     C_R   0.048038 0.676920 0.415290 -0.142877
C37   C     C_R   0.903154 0.462439 0.657418 -0.147766
C38   C     C_R   0.097967 0.665519 0.403449 -0.140794
O11   O     O_2   0.803062 0.434927 0.628960 -0.569233
O12   O     O_2   0.198004 0.637536 0.380703 -0.569144
C39   C     C_R   0.057242 0.520078 0.699993 -0.053483
C40   C     C_R   0.944954 0.722311 0.464681 -0.045894
H3    H     H_    0.659549 0.423980 0.403435 0.165246
H4    H     H_    0.366501 0.638212 0.553775 0.147386
H5    H     H_    0.886392 0.408846 0.692785 0.187994
H6    H     H_    0.114490 0.690324 0.342378 0.189454
H7    H     H_    0.972854 0.431847 0.711515 0.136602
H8    H     H_    0.027732 0.706497 0.360535 0.138760
C41   C     C_3   0.544704 0.970303 0.515183 0.030534
C42   C     C_3   0.453261 0.029118 0.485625 0.027955
C43   C     C_3   0.529282 0.031311 0.437535 -0.016157
C44   C     C_3   0.468729 0.968120 0.563299 -0.009165
C45   C     C_1   0.499954 0.248846 0.504162 -0.123868
C46   C     C_1   0.498687 0.750930 0.495918 -0.117119
C47   C     C_3   0.514865 0.022352 0.582076 0.034514
C48   C     C_3   0.483126 0.977130 0.418728 0.032956
C49   C     C_3   0.499522 0.082929 0.504165 0.042326
C50   C     C_3   0.498417 0.916631 0.496622 0.043611
C51   C     C_1   0.499839 0.173691 0.505582 0.003608
C52   C     C_1   0.498299 0.825996 0.494820 0.000530
C53   C     C_3   0.503200 0.420088 0.973169 0.084779
C54   C     C_3   0.496894 0.579989 0.026825 0.085279
C55   C     C_3   0.541620 0.465943 0.031327 0.038923
C56   C     C_3   0.458476 0.534132 0.968668 0.032688
H9    H     H_    0.570654 0.582670 0.942425 0.145711
H10   H     H_    0.429431 0.417433 0.057549 0.148909
N3    N     N_1   0.500020 0.500000 0.268010 -0.082292
N4    N     N_1   0.499980 0.500000 0.731990 -0.081217
C57   C     C_3   0.461392 0.454540 0.031990 -0.284395
C58   C     C_3   0.538702 0.545544 0.967998 -0.286712
C59   C     C_3   0.500294 0.500742 0.089887 0.027850
C60   C     C_3   0.499799 0.499335 0.910107 0.027626
C61   C     C_1   0.500096 0.500488 0.189912 0.137556
C62   C     C_1   0.499950 0.499552 0.810086 0.135238
C63   C     C_2   0.331017 0.371711 0.434398 0.376603
H11   H     H_    0.302261 0.331437 0.407604 0.066440
O13   O     O_2   0.372926 0.344851 0.436521 -0.590679
C64   C     C_2   0.641158 0.637401 0.613833 0.397557
H12   H     H_    0.657037 0.661363 0.675089 0.053401
O14   O     O_2   0.601760 0.665310 0.587960 -0.584592
C65   C     C_3   0.595390 0.929492 0.526850 -0.409891
C66   C     C_3   0.636057 0.995046 0.543622 -0.343057
C67   C     C_3   0.685672 0.951743 0.555977 -0.870386
H13   H     H_    0.684830 0.906793 0.614583 0.263419
H14   H     H_    0.695125 0.916508 0.495168 0.264849
H15   H     H_    0.714543 0.000411 0.567571 0.254751
H16   H     H_    0.638449 0.041035 0.486181 0.237766
H17   H     H_    0.628132 0.030965 0.604508 0.228341
H18   H     H_    0.593994 0.882062 0.583180 0.224186
H19   H     H_    0.603753 0.894875 0.465053 0.203145
C68   C     C_3   0.402151 0.068343 0.474457 -0.406839
C69   C     C_3   0.362397 0.001447 0.456131 -0.355523
C70   C     C_3   0.311660 0.041693 0.451457 -0.861236
H20   H     H_    0.302784 0.070648 0.516238 0.262963
H21   H     H_    0.310213 0.091361 0.397236 0.266746
H22   H     H_    0.283690 0.992147 0.437240 0.253519
H23   H     H_    0.369401 0.970585 0.391800 0.228940
H24   H     H_    0.362449 0.951412 0.509835 0.236588
H25   H     H_    0.393354 0.101442 0.536996 0.202385
H26   H     H_    0.402959 0.116745 0.419011 0.220670
C71   C     C_3   0.468211 0.946057 0.326053 -0.430998
C72   C     C_3   0.453062 0.019475 0.262125 -0.321828
C73   C     C_3   0.445345 0.988715 0.167226 -0.898632
H27   H     H_    0.480431 0.965024 0.140522 0.264604
H28   H     H_    0.417349 0.937117 0.166399 0.267032
H29   H     H_    0.432485 0.042246 0.123296 0.257026
H30   H     H_    0.418373 0.047888 0.284759 0.228262
H31   H     H_    0.481671 0.069987 0.260656 0.242145
H32   H     H_    0.500014 0.912267 0.297921 0.199161
H33   H     H_    0.437537 0.899665 0.333230 0.201922
C74   C     C_3   0.529819 0.053471 0.674712 -0.429334
C75   C     C_3   0.545572 0.980225 0.738342 -0.321831
C76   C     C_3   0.552647 0.010667 0.833515 -0.900760
H34   H     H_    0.580058 0.063174 0.834893 0.266727
H35   H     H_    0.517219 0.033005 0.860082 0.264947
H36   H     H_    0.566005 0.957347 0.877218 0.256836
H37   H     H_    0.517542 0.928730 0.739162 0.244485
H38   H     H_    0.580699 0.953269 0.715897 0.228038
H39   H     H_    0.560230 0.100372 0.667407 0.202985
H40   H     H_    0.497887 0.086661 0.703156 0.199037
C77   C     C_2   0.589284 0.428355 0.062792 0.363412
H41   H     H_    0.615267 0.406244 0.014217 0.063711
O15   O     O_2   0.599097 0.422262 0.142460 -0.561632
C78   C     C_2   0.410821 0.571739 0.937198 0.371955
H42   H     H_    0.384794 0.593695 0.985777 0.066048
O16   O     O_2   0.401074 0.578049 0.857518 -0.548097
C79   C     C_3   0.506517 0.328565 0.942093 -0.448244
C80   C     C_3   0.503917 0.264606 0.021247 -0.303930
C81   C     C_3   0.508832 0.173644 0.990108 -0.888587
H43   H     H_    0.478648 0.158269 0.942762 0.259304
H44   H     H_    0.544676 0.165420 0.956761 0.267111
H45   H     H_    0.506892 0.128803 0.048657 0.260553
H46   H     H_    0.533843 0.277459 0.069983 0.244751
H47   H     H_    0.468251 0.270712 0.055897 0.225085
H48   H     H_    0.475667 0.316602 0.894951 0.215231
H49   H     H_    0.541586 0.321107 0.905843 0.194152
C82   C     C_3   0.493536 0.671507 0.057894 -0.448297
C83   C     C_3   0.495985 0.735459 0.978716 -0.303660
C84   C     C_3   0.490794 0.826380 0.009820 -0.888929
H50   H     H_    0.454960 0.834259 0.043315 0.267590
H51   H     H_    0.520985 0.842096 0.057022 0.259239
H52   H     H_    0.492498 0.871197 0.951230 0.260701
H53   H     H_    0.531678 0.729627 0.944094 0.224268
H54   H     H_    0.466111 0.722364 0.929957 0.244645
H55   H     H_    0.458497 0.678860 0.094272 0.194918
H56   H     H_    0.524423 0.683574 0.104923 0.214861
C85   C     C_3   0.128411 0.422048 0.735724 -0.375702
C86   C     C_3   0.095682 0.342042 0.731118 -0.416699
C87   C     C_3   0.119000 0.266628 0.781466 -0.835381
H57   H     H_    0.154893 0.250969 0.751588 0.263548
H58   H     H_    0.124521 0.281496 0.853058 0.263640
H59   H     H_    0.094492 0.210208 0.777242 0.255916
H60   H     H_    0.059116 0.353061 0.760457 0.215192
H61   H     H_    0.090111 0.325272 0.659967 0.236672
H62   H     H_    0.163764 0.402032 0.708135 0.265803
H63   H     H_    0.135004 0.439538 0.806278 0.204344
C88   C     C_3   0.861586 0.792929 0.440586 -0.395221
C89   C     C_3   0.863489 0.855265 0.518010 -0.360775
C90   C     C_3   0.832073 0.933515 0.497561 -0.868257
H64   H     H_    0.845715 0.968053 0.436820 0.266816
H65   H     H_    0.793187 0.914638 0.486813 0.263706
H66   H     H_    0.833949 0.976934 0.554796 0.257970
H67   H     H_    0.849603 0.822774 0.579862 0.232989
H68   H     H_    0.901601 0.876782 0.531345 0.250189
H69   H     H_    0.873501 0.824432 0.377047 0.186220
H70   H     H_    0.822456 0.778474 0.430604 0.267114
C91   C     C_3   0.762589 0.424162 0.393648 -0.418246
C92   C     C_3   0.737020 0.363302 0.329233 -0.350768
C93   C     C_3   0.774407 0.315555 0.274547 -0.836272
H71   H     H_    0.796930 0.360992 0.233879 0.265156
H72   H     H_    0.798852 0.277193 0.319439 0.260030
H73   H     H_    0.754949 0.272108 0.228738 0.258528
H74   H     H_    0.714663 0.315936 0.367845 0.234940
H75   H     H_    0.712735 0.399860 0.282298 0.253072
H76   H     H_    0.785807 0.469152 0.353651 0.229950
H77   H     H_    0.787204 0.386303 0.438805 0.218847
C94   C     C_3   0.271127 0.699695 0.571816 -0.427742
C95   C     C_3   0.311594 0.763020 0.598236 -0.324030
C96   C     C_3   0.289674 0.845830 0.630044 -0.837166
H78   H     H_    0.267884 0.877052 0.575449 0.258491
H79   H     H_    0.265719 0.833233 0.688734 0.267002
H80   H     H_    0.319597 0.889758 0.650040 0.261367
H81   H     H_    0.334363 0.734973 0.653440 0.264487
H82   H     H_    0.335341 0.778028 0.539698 0.228424
H83   H     H_    0.247791 0.730874 0.519324 0.222677
H84   H     H_    0.247805 0.686202 0.631243 0.230557
C97   C     C_2   0.039121 0.516726 0.794028 0.373332
H85   H     H_    0.057841 0.479429 0.845664 0.074073
O17   O     O_2   0.004242 0.559526 0.816063 -0.541713
C98   C     C_2   0.968514 0.803850 0.434804 0.355016
H86   H     H_    0.954813 0.839011 0.376588 0.067730
O18   O     O_2   0.002917 0.833560 0.476739 -0.544684
C99   C     C_2   0.563453 0.065527 0.366881 0.354639
H87   H     H_    0.582124 0.021781 0.324128 0.064969
O19   O     O_2   0.570451 0.141849 0.357000 -0.561766
C100  C     C_2   0.434739 0.933552 0.634112 0.341829
H88   H     H_    0.415721 0.977104 0.676577 0.063900
O20   O     O_2   0.428266 0.857132 0.644403 -0.577490

loop_
_geom_bond_atom_site_label_1
_geom_bond_atom_site_label_2
_geom_bond_distance
_ccdc_geom_bond_type
C54   C59   1.545042 S    
C42   C44   1.543670 S    
C97   H85   1.083045 S    
C87   H57   1.110876 S    
C13   C15   1.396027 A    
C72   C73   1.524370 S    
C86   H61   1.112130 S    
C85   C86   1.541004 S    
C10   C91   1.521423 S    
C42   C68   1.533439 S    
O7    Zn2   1.980774 S    
N1    C17   1.428199 S    
C91   H77   1.111869 S    
C55   C59   1.544804 S    
C65   C66   1.533154 S    
C32   C39   1.416589 A    
C90   H65   1.110583 S    
C88   C89   1.538269 S    
C69   C70   1.525108 S    
O5    C3    1.278819 A    
C77   O15   1.219962 D    
Zn1   N4    1.981685 S    
C56   C57   1.550895 S    
C50   C52   1.427122 S    
O1    C1    1.271932 A    
C86   C87   1.526755 S    
C21   C23   1.426062 A    
C10   C12   1.408625 A    
C70   H21   1.110956 S    
C58   C60   1.553127 S    
C73   H29   1.110433 S    
C25   C38   1.399147 A    
C84   H51   1.110820 S    
C40   C98   1.490061 S    
C44   C50   1.540099 S    
C79   C80   1.533859 S    
C66   C67   1.525883 S    
C30   C36   1.408080 A    
C94   H83   1.111625 S    
C92   C93   1.526247 S    
C14   C64   1.482864 S    
C43   C48   1.543480 S    
C69   H24   1.108802 S    
O4    Zn1   1.964255 S    
C89   C90   1.526835 S    
C4    C28   1.462152 S    
C99   O19   1.219845 D    
C24   C40   1.424374 A    
C37   H5    1.083377 S    
C19   C25   1.412555 A    
C42   C48   1.549178 S    
C95   H81   1.111792 S    
C53   C60   1.545040 S    
C14   C16   1.387233 A    
C41   C43   1.543129 S    
C48   C71   1.533000 S    
C80   H47   1.111360 S    
C68   C69   1.534143 S    
C13   C63   1.487434 S    
C43   C49   1.541788 S    
C11   H4    1.081990 S    
C85   H62   1.102618 S    
C12   H3    1.081250 S    
C20   C22   1.412304 A    
H9    C58   1.110182 S    
C6    N2    1.366065 A    
C23   C85   1.531295 S    
C96   H80   1.110231 S    
C65   H18   1.110407 S    
C54   C58   1.554768 S    
C79   H48   1.111272 S    
C95   C96   1.526527 S    
C88   H69   1.109309 S    
C87   H58   1.110829 S    
C15   H1    1.084195 S    
C84   H52   1.110284 S    
C49   C51   1.428846 S    
C16   H2    1.084910 S    
C86   H60   1.108929 S    
O2    C2    1.271362 A    
N4    C62   1.167491 T    
Zn2   N3    1.981685 S    
O2    Zn2   1.984704 S    
C5    C21   1.412406 A    
C81   H44   1.110525 S    
C36   C38   1.387366 A    
C81   H43   1.110823 S    
C90   H66   1.110414 S    
C73   H28   1.110872 S    
N3    C61   1.167526 T    
C95   H82   1.112091 S    
C57   C59   1.553110 S    
C35   H7    1.080939 S    
C74   H40   1.111583 S    
C75   C76   1.524369 S    
C31   C33   1.408267 A    
C36   H8    1.080666 S    
C70   H22   1.110437 S    
C11   C27   1.402189 A    
C63   H11   1.085792 S    
C47   C49   1.541380 S    
C98   H86   1.083379 S    
C93   H73   1.110445 S    
C47   C74   1.532989 S    
C19   C34   1.410623 A    
C41   C47   1.549285 S    
C42   C49   1.541839 S    
C1    C45   1.395506 S    
C53   C79   1.528905 S    
C41   C50   1.541296 S    
C82   H55   1.111282 S    
C35   C37   1.387152 A    
C9    C17   1.407995 A    
C69   H23   1.107984 S    
C5    N1    1.365727 A    
C91   C92   1.536840 S    
C10   C18   1.409891 A    
C83   H54   1.110593 S    
C80   H46   1.110635 S    
C75   H38   1.108083 S    
C63   O13   1.220481 D    
C97   O17   1.221433 D    
C13   C27   1.411517 A    
C67   H13   1.110982 S    
C7    C25   1.396065 A    
C29   C33   1.416837 A    
O6    C4    1.283845 A    
C8    C26   1.394814 A    
C39   C97   1.493512 S    
C99   H87   1.084360 S    
C53   C55   1.543875 S    
C6    O10   1.347489 S    
C72   H31   1.109785 S    
C78   H42   1.084388 S    
C64   O14   1.218869 D    
C85   H63   1.110484 S    
O7    C3    1.280440 A    
C68   H25   1.111506 S    
C83   C84   1.524377 S    
O3    Zn2   1.964257 S    
O8    C4    1.279484 A    
C65   H19   1.111514 S    
C48   C50   1.540075 S    
C79   H49   1.111271 S    
C67   H14   1.110922 S    
C100  O20   1.219883 D    
C88   H70   1.099009 S    
C26   C37   1.398606 A    
C87   H59   1.110456 S    
C59   C61   1.495472 S    
C46   C52   1.180919 T    
C92   H75   1.111933 S    
O4    C2    1.273411 A    
O1    Zn1   1.984705 S    
C9    C94   1.523869 S    
C44   C100  1.500990 S    
C89   H68   1.108796 S    
C81   H45   1.110366 S    
C12   C28   1.403641 A    
C76   H34   1.110851 S    
N2    C18   1.427702 S    
C29   C32   1.415824 A    
C2    C46   1.393531 S    
C30   C31   1.419394 A    
C20   C33   1.406768 A    
O6    Zn2   1.974492 S    
C14   C28   1.416666 A    
N1    C7    1.361430 A    
C66   H16   1.109620 S    
N2    C8    1.362453 A    
C80   C81   1.524421 S    
O3    C1    1.273758 A    
O8    Zn1   1.980773 S    
C91   H76   1.111848 S    
C7    O12   1.349858 S    
C73   H27   1.110063 S    
C54   C82   1.528870 S    
C5    O9    1.348236 S    
C8    O11   1.350034 S    
C78   O16   1.219947 D    
H10   C57   1.110165 S    
C38   H6    1.083365 S    
C77   H41   1.084388 S    
C30   C34   1.419410 A    
C71   C72   1.535240 S    
C82   H56   1.111267 S    
C76   H36   1.110410 S    
C22   C24   1.425712 A    
C60   C62   1.495421 S    
C41   C65   1.533962 S    
C83   H53   1.111381 S    
C15   C17   1.399878 A    
C90   H64   1.110815 S    
C56   C78   1.497799 S    
C75   H37   1.109961 S    
C24   C88   1.533084 S    
C31   C40   1.424968 A    
C16   C18   1.392226 A    
C93   H71   1.110916 S    
C43   C99   1.500554 S    
C44   C47   1.543411 S    
C66   H17   1.108273 S    
C32   C34   1.408583 A    
C19   C21   1.417145 A    
C45   C51   1.182141 T    
C54   C56   1.543817 S    
C72   H30   1.108014 S    
C9    C11   1.400562 A    
C64   H12   1.085761 S    
C74   H39   1.110307 S    
C23   C39   1.411930 A    
C68   H26   1.110306 S    
C93   H72   1.110938 S    
C94   H84   1.111673 S    
C53   C57   1.554733 S    
C96   H78   1.110820 S    
O5    Zn1   1.974491 S    
C67   H15   1.110458 S    
C100  H88   1.084316 S    
C56   C60   1.544727 S    
C94   C95   1.538198 S    
C3    C27   1.451123 S    
C84   H50   1.110589 S    
C29   C35   1.409721 A    
C92   H74   1.111833 S    
C20   C26   1.410866 A    
C71   H33   1.110269 S    
C76   H35   1.110149 S    
C82   C83   1.533867 S    
C70   H20   1.110900 S    
C98   O18   1.221477 D    
C71   H32   1.111574 S    
C89   H67   1.112149 S    
C55   C77   1.497867 S    
C55   C58   1.551059 S    
C6    C22   1.412684 A    
C74   C75   1.535084 S    
C96   H79   1.110778 S    
