data_mof_unit_61990.cif
_audit_creation_date              2013-03-05T16:16:53-0500
_audit_creation_method            fapswitch 2.2
_symmetry_space_group_name_H-M    P1
_symmetry_Int_Tables_number       1
_space_group_crystal_system       triclinic
_cell_length_a                    10.595198
_cell_length_b                    13.083708
_cell_length_c                    13.664505
_cell_angle_alpha                 85.630787
_cell_angle_beta                  89.919241
_cell_angle_gamma                 92.420574
_cell_volume                      1887.02427804

loop_
_atom_site_label
_atom_site_type_symbol
_atom_site_description
_atom_site_fract_x
_atom_site_fract_y
_atom_site_fract_z
_atom_type_partial_charge
O1    O     O_R   0.492590 0.402510 0.634760 -0.575676
O2    O     O_R   0.507410 0.597490 0.365240 -0.575677
O3    O     O_R   0.505590 0.572960 0.644530 -0.605997
O4    O     O_R   0.494410 0.427040 0.355470 -0.605999
C1    C     C_R   0.498822 0.481148 0.684847 0.912415
C2    C     C_R   0.501178 0.518852 0.315153 0.912414
O5    O     O_R   0.679550 0.414790 0.495140 -0.589416
O6    O     O_R   0.320450 0.585210 0.504860 -0.589411
O7    O     O_R   0.692550 0.585240 0.504910 -0.605029
O8    O     O_R   0.307450 0.414760 0.495090 -0.605031
C3    C     C_R   0.742256 0.499037 0.499957 0.991012
C4    C     C_R   0.257744 0.500963 0.500044 0.991010
Zn1   Zn    Zn3+2 0.491320 0.386190 0.493470 1.118005
Zn2   Zn    Zn3+2 0.508680 0.613810 0.506530 1.118008
C5    C     C_3   0.956367 0.402207 0.502373 0.202861
C6    C     C_3   0.043634 0.597793 0.497628 0.202862
C7    C     C_3   0.038583 0.448192 0.581683 0.221252
C8    C     C_3   0.961418 0.551808 0.418318 0.221245
C9    C     C_3   0.124470 0.502573 0.500881 -0.290663
C10   C     C_3   0.875530 0.497426 0.499120 -0.290669
C11   C     C_3   0.041483 0.456657 0.421573 -0.096373
C12   C     C_3   0.958517 0.543343 0.578429 -0.096372
C13   C     C_1   0.502845 0.533958 0.212477 -0.014095
C14   C     C_1   0.497155 0.466042 0.787523 -0.014094
C15   C     C_2   0.504457 0.544959 0.021468 0.162254
C16   C     C_2   0.495542 0.455041 0.978532 0.162255
C17   C     C_1   0.495889 0.457455 0.874641 0.094154
C18   C     C_1   0.504110 0.542545 0.125359 0.094154
N1    N     N_1   0.479750 0.234530 0.484780 -0.055654
N2    N     N_1   0.520250 0.765470 0.515220 -0.055654
C19   C     C_2   0.461058 0.033320 0.474418 0.086428
C20   C     C_2   0.538942 0.966680 0.525582 0.086427
C21   C     C_1   0.527157 0.854460 0.519020 0.291672
C22   C     C_1   0.472843 0.145540 0.480980 0.291669
N3    N     N_R   0.078204 0.392815 0.672377 0.249266
O9    O     O_R   0.993675 0.354288 0.735358 -0.257824
O10   O     O_R   0.197325 0.385729 0.693217 -0.366302
N4    N     N_R   0.921797 0.607185 0.327624 0.249266
O11   O     O_R   0.006325 0.645710 0.264642 -0.257824
O12   O     O_R   0.802675 0.614271 0.306785 -0.366303
N5    N     N_R   0.907616 0.295988 0.506748 0.252577
O13   O     O_R   0.932272 0.237811 0.436734 -0.319302
O14   O     O_R   0.840057 0.258510 0.581594 -0.248561
N6    N     N_R   0.092387 0.704011 0.493254 0.252579
O15   O     O_R   0.067769 0.762177 0.563286 -0.319313
O16   O     O_R   0.159934 0.741493 0.418403 -0.248556
N7    N     N_3   0.089775 0.412343 0.335055 -0.365808
H1    H     H_    0.011931 0.388477 0.294443 0.258570
H2    H     H_    0.136982 0.346568 0.358956 0.253122
N8    N     N_3   0.910225 0.587657 0.664946 -0.365811
H3    H     H_    0.988068 0.611516 0.705562 0.258574
H4    H     H_    0.863027 0.653436 0.641044 0.253120
N9    N     N_R   0.488608 0.356050 0.033327 0.224531
O17   O     O_R   0.431949 0.278421 0.995175 -0.259945
O18   O     O_R   0.555465 0.338817 0.112242 -0.337453
N10   N     N_R   0.511391 0.643950 0.966673 0.224531
O19   O     O_R   0.568050 0.721579 0.004825 -0.259945
O20   O     O_R   0.444534 0.661183 0.887758 -0.337450
N11   N     N_R   0.636177 0.003679 0.589628 0.235722
O21   O     O_R   0.732953 0.948120 0.610618 -0.273169
O22   O     O_R   0.621322 0.084809 0.637237 -0.292567
N12   N     N_R   0.363823 0.996321 0.410372 0.235723
O23   O     O_R   0.267047 0.051880 0.389381 -0.273165
O24   O     O_R   0.378677 0.915191 0.362764 -0.292569

loop_
_geom_bond_atom_site_label_1
_geom_bond_atom_site_label_2
_geom_bond_distance
_ccdc_geom_bond_type
O5    Zn1   2.014027 S    
N8    H4    1.044713 S    
O7    Zn2   1.999528 S    
C14   C17   1.187163 T    
N12   O23   1.301563 A    
C8    C11   1.533727 S    
N5    O14   1.300260 A    
N5    O13   1.299988 A    
C6    N6    1.458894 S    
C19   C20   1.378206 D    
C20   N11   1.444494 S    
C15   N10   1.444827 S    
C12   N8    1.457190 S    
O6    C4    1.268875 A    
C6    C12   1.537178 S    
C20   C21   1.477844 S    
C1    C14   1.401863 S    
N8    H3    1.044817 S    
C8    N4    1.458553 S    
C19   C22   1.477844 S    
N11   O21   1.301563 A    
N7    H2    1.044712 S    
C13   C18   1.187163 T    
N10   O19   1.301466 A    
C15   C18   1.417559 S    
N4    O12   1.299805 A    
O7    C3    1.271097 A    
C19   N12   1.444494 S    
C16   C17   1.417559 S    
O2    C2    1.277907 A    
O3    Zn2   1.920258 S    
O8    C4    1.271094 A    
Zn2   N2    1.995463 S    
C6    C9    1.539286 S    
O1    C1    1.277907 A    
C2    C13   1.401863 S    
C4    C9    1.413157 S    
Zn1   N1    1.995462 S    
C9    C11   1.538081 S    
N6    O16   1.300260 A    
O5    C3    1.268873 A    
C8    C10   1.541493 S    
N9    O18   1.301545 A    
C5    C10   1.539289 S    
O2    Zn2   1.958533 S    
O6    Zn2   2.014026 S    
C3    C10   1.413160 S    
N11   O22   1.301446 A    
O4    C2    1.281959 A    
O1    Zn1   1.958535 S    
C10   C12   1.538084 S    
C16   N9    1.444827 S    
N7    H1    1.044818 S    
C5    C11   1.537177 S    
N4    O11   1.300157 A    
N6    O15   1.299981 A    
C5    N5    1.458894 S    
C6    C8    1.533960 S    
O4    Zn1   1.920257 S    
C5    C7    1.533960 S    
C11   N7    1.457191 S    
C7    C9    1.541493 S    
N12   O24   1.301446 A    
C7    N3    1.458552 S    
N2    C21   1.168636 T    
N3    O10   1.299805 A    
C15   C16   1.353925 D    
N9    O17   1.301467 A    
N1    C22   1.168635 T    
O8    Zn1   1.999529 S    
C7    C12   1.533727 S    
N10   O20   1.301545 A    
O3    C1    1.281960 A    
N3    O9    1.300158 A    
