data_mof_unit_34388.cif
_audit_creation_date              2013-03-05T16:11:32-0500
_audit_creation_method            fapswitch 2.2
_symmetry_space_group_name_H-M    P1
_symmetry_Int_Tables_number       1
_space_group_crystal_system       triclinic
_cell_length_a                    10.69885
_cell_length_b                    9.918795
_cell_length_c                    15.721946
_cell_angle_alpha                 90.493619
_cell_angle_beta                  90.391853
_cell_angle_gamma                 90.249252
_cell_volume                      1668.29103857

loop_
_atom_site_label
_atom_site_type_symbol
_atom_site_description
_atom_site_fract_x
_atom_site_fract_y
_atom_site_fract_z
_atom_type_partial_charge
O1    O     O_R   0.316750 0.614620 0.499990 -0.603587
O2    O     O_R   0.316750 0.385380 0.499990 -0.632166
C1    C     C_R   0.260099 0.499980 0.501330 0.865476
O3    O     O_R   0.499990 0.614720 0.377140 -0.575361
O4    O     O_R   0.499990 0.385280 0.377140 -0.567369
C2    C     C_R   0.498847 0.499389 0.338399 0.896786
Zn1   Zn    Zn3+2 0.499980 0.653120 0.500000 0.985940
Zn2   Zn    Zn3+2 0.499980 0.346880 0.500000 0.981341
O5    O     O_R   0.683220 0.614710 0.500000 -0.636490
O6    O     O_R   0.683220 0.385290 0.500000 -0.627007
O7    O     O_R   0.499980 0.614620 0.622860 -0.598395
O8    O     O_R   0.499980 0.385380 0.622860 -0.608520
C3    C     C_R   0.739835 0.500262 0.500605 0.842853
C4    C     C_R   0.500181 0.500747 0.661585 0.893536
C5    C     C_3   0.381020 0.613349 0.052992 0.250841
C6    C     C_3   0.426584 0.359978 0.047799 0.326475
C7    C     C_3   0.408785 0.368198 0.947138 -0.198180
C8    C     C_3   0.396253 0.635710 0.952685 -0.187373
H1    H     H_    0.504051 0.288889 0.063057 0.102362
H2    H     H_    0.406984 0.707823 0.087180 0.104668
C9    C     C_1   0.492576 0.503449 0.750245 -0.037306
C10   C     C_3   0.472313 0.499543 0.082775 0.155446
C11   C     C_3   0.471244 0.506821 0.917006 -0.047044
C12   C     C_3   0.607592 0.516877 0.952611 -0.427463
C13   C     C_3   0.605785 0.526683 0.049701 -0.548627
C14   C     C_1   0.482935 0.506736 0.825276 0.105325
C15   C     C_1   0.481090 0.497501 0.174430 -0.061343
C16   C     C_1   0.490142 0.497817 0.249613 -0.191416
H3    H     H_    0.638096 0.628535 0.070541 0.227703
H4    H     H_    0.673189 0.452557 0.076322 0.214900
H5    H     H_    0.657931 0.606023 0.927083 0.212212
H6    H     H_    0.665884 0.430874 0.932140 0.249345
C17   C     C_R   0.063499 0.381248 0.521427 -0.198701
C18   C     C_R   0.064295 0.621738 0.490404 -0.182962
H7    H     H_    0.111663 0.288429 0.535685 0.153974
H8    H     H_    0.113125 0.715392 0.477946 0.164313
C19   C     C_R   0.935534 0.381039 0.520250 -0.188967
C20   C     C_R   0.936395 0.621595 0.489122 -0.189057
H9    H     H_    0.886505 0.287574 0.532865 0.160429
H10   H     H_    0.888172 0.715059 0.475945 0.160324
C21   C     C_R   0.872388 0.500897 0.503100 -0.009745
C22   C     C_R   0.127545 0.500841 0.504584 -0.015096
C23   C     C_R   0.546881 0.072702 0.567501 -0.175167
C24   C     C_R   0.544103 0.929558 0.568353 -0.173518
H11   H     H_    0.585023 0.127112 0.621710 0.190001
H12   H     H_    0.579382 0.876956 0.623431 0.196359
N1    N     N_R   0.499970 0.857200 0.499980 -0.137719
N2    N     N_R   0.499970 0.142800 0.499980 -0.140467
C25   C     C_R   0.460859 0.926979 0.429682 0.450680
C26   C     C_R   0.450220 0.070749 0.433009 0.419728
C27   C     C_2   0.270644 0.659328 0.905854 0.956283
O9    O     O_2   0.174849 0.685115 0.944574 -0.590840
O10   O     O_R   0.266934 0.661401 0.816855 -0.766323
H13   H     H_    0.180301 0.679943 0.793298 0.348889
C28   C     C_2   0.270861 0.364857 0.916004 0.966541
O11   O     O_2   0.182864 0.368102 0.965112 -0.536965
O12   O     O_R   0.245470 0.361547 0.828465 -0.770959
H14   H     H_    0.152662 0.361514 0.814971 0.346112
O13   O     O_3   0.427084 0.855086 0.357217 -0.634520
C29   C     C_3   0.501610 0.890374 0.286128 0.089519
H15   H     H_    0.480123 0.993092 0.263210 0.170610
H16   H     H_    0.474474 0.820730 0.233488 0.157735
C30   C     C_3   0.643561 0.874834 0.300997 -0.391265
H17   H     H_    0.677310 0.950885 0.348209 0.200187
H18   H     H_    0.664762 0.773087 0.325797 0.248603
C31   C     C_3   0.715219 0.894798 0.218415 -0.913675
H19   H     H_    0.684861 0.819264 0.169929 0.275059
H20   H     H_    0.816796 0.881855 0.230361 0.255977
H21   H     H_    0.698983 0.997738 0.193459 0.274287
O14   O     O_3   0.390123 0.137899 0.368062 -0.647494
C32   C     C_3   0.260827 0.146985 0.385972 0.118687
H22   H     H_    0.227067 0.243261 0.358578 0.173381
H23   H     H_    0.240233 0.150813 0.455355 0.130184
C33   C     C_3   0.187442 0.029864 0.345123 -0.401648
H24   H     H_    0.220385 0.012141 0.279290 0.239938
H25   H     H_    0.202870 0.936644 0.382263 0.240169
C34   C     C_3   0.047461 0.058584 0.343201 -0.970761
H26   H     H_    0.012707 0.077769 0.408613 0.265997
H27   H     H_    0.996973 0.970009 0.316074 0.268512
H28   H     H_    0.027659 0.147657 0.302997 0.271657
O15   O     O_3   0.256606 0.573830 0.073619 -0.536274
C35   C     C_3   0.212104 0.630051 0.150873 0.162739
H29   H     H_    0.145445 0.711546 0.135140 0.170025
H30   H     H_    0.286341 0.672573 0.193324 0.099494
C36   C     C_3   0.141544 0.521802 0.200010 -0.265871
H31   H     H_    0.068775 0.474953 0.158341 0.256827
H32   H     H_    0.207707 0.442206 0.220373 0.232567
C37   C     C_3   0.079641 0.581231 0.278777 -1.024266
H33   H     H_    0.151350 0.629055 0.320741 0.278233
H34   H     H_    0.032006 0.499723 0.314293 0.279040
H35   H     H_    0.009217 0.657878 0.260467 0.271789
O16   O     O_3   0.314925 0.322662 0.090365 -0.581262
C38   C     C_3   0.319035 0.192640 0.125831 0.055717
H36   H     H_    0.243263 0.188275 0.173646 0.184591
H37   H     H_    0.407662 0.173367 0.161146 0.129731
C39   C     C_3   0.294630 0.085110 0.057346 -0.317726
H38   H     H_    0.220948 0.119421 0.012555 0.268086
H39   H     H_    0.381585 0.066831 0.021230 0.234336
C40   C     C_3   0.251634 0.953649 0.096079 -0.946479
H40   H     H_    0.321427 0.917961 0.142977 0.241237
H41   H     H_    0.241084 0.877490 0.044714 0.300011
H42   H     H_    0.159876 0.966939 0.127638 0.261948
C41   C     C_2   0.474522 0.244528 0.906802 0.798117
O17   O     O_2   0.421679 0.175197 0.852500 -0.560504
O18   O     O_R   0.594942 0.207882 0.932864 -0.846883
H43   H     H_    0.628154 0.127065 0.900372 0.356198
C42   C     C_2   0.471688 0.765530 0.935108 0.845707
O19   O     O_2   0.488328 0.801228 0.861661 -0.573245
O20   O     O_R   0.525251 0.842017 0.001254 -0.856396
H44   H     H_    0.574767 0.922190 0.980187 0.356665

loop_
_geom_bond_atom_site_label_1
_geom_bond_atom_site_label_2
_geom_bond_distance
_ccdc_geom_bond_type
C5    C8    1.603726 S    
C31   H20   1.109788 S    
C9    C14   1.185010 T    
C30   H18   1.108850 S    
C1    C22   1.419508 S    
C38   H36   1.110301 S    
C18   C22   1.398284 A    
C28   O11   1.222007 D    
Zn2   N2    2.024225 S    
O15   C35   1.418242 S    
N1    C25   1.372958 A    
C34   H26   1.111103 S    
Zn1   O7    1.972208 S    
C7    C11   1.602836 S    
C33   H25   1.110158 S    
C29   C30   1.543594 S    
C17   C22   1.395556 A    
C4    C9    1.396882 S    
O1    C1    1.286613 A    
O4    C2    1.289981 A    
O7    C4    1.287733 A    
C36   C37   1.523713 S    
C31   H21   1.110932 S    
C39   C40   1.514913 S    
C29   H16   1.109740 S    
C11   C14   1.448440 S    
O5    C3    1.289074 A    
C8    C42   1.544645 S    
C5    C10   1.568417 S    
C2    C16   1.398306 S    
C6    C7    1.595541 S    
C33   C34   1.525850 S    
C39   H39   1.108013 S    
C42   O19   1.224656 D    
O14   C32   1.416673 S    
C23   N2    1.367738 A    
C7    C28   1.551638 S    
C24   N1    1.367624 A    
N2    C26   1.370671 A    
C31   H19   1.110202 S    
C30   C31   1.526238 S    
O13   C29   1.422652 S    
C38   H37   1.113603 S    
O1    Zn1   1.995565 S    
C42   O20   1.399970 S    
O3    Zn1   1.965571 S    
C3    C21   1.418425 S    
C24   H12   1.081450 S    
C8    C27   1.547623 S    
C36   H32   1.110407 S    
C13   H3    1.112273 S    
C5    H2    1.109580 S    
C33   H24   1.108513 S    
C8    C11   1.611041 S    
C12   C13   1.528958 S    
C20   C21   1.396397 A    
C5    O15   1.426251 S    
C32   H23   1.114702 S    
C36   H31   1.111693 S    
C10   C13   1.546376 S    
C17   C19   1.369074 A    
C27   O9    1.222513 D    
C29   H15   1.108129 S    
C27   O10   1.399863 S    
Zn1   N1    2.024231 S    
C23   C24   1.420185 A    
C12   H6    1.105825 S    
C32   C33   1.533209 S    
C40   H40   1.107155 S    
C37   H35   1.111006 S    
Zn2   O8    1.965753 S    
C39   H38   1.109965 S    
C7    C41   1.549729 S    
C34   H27   1.109868 S    
C41   O18   1.399748 S    
C23   H11   1.081454 S    
O3    C2    1.291326 A    
C40   H41   1.105909 S    
C37   H34   1.110495 S    
C6    O16   1.422442 S    
C38   C39   1.529387 S    
C35   H30   1.113159 S    
C10   C15   1.443732 S    
C28   O12   1.401086 S    
C41   O17   1.225270 D    
C34   H28   1.111042 S    
C13   H4    1.114273 S    
Zn1   O5    1.998760 S    
C6    C10   1.560569 S    
C18   C20   1.368388 A    
O2    Zn2   1.998826 S    
O8    C4    1.291533 A    
O6    C3    1.288869 A    
O4    Zn2   1.972010 S    
O10   H13   1.013924 S    
C35   C36   1.527985 S    
O18   H43   1.013764 S    
C25   O13   1.383901 S    
O2    C1    1.290588 A    
C26   O14   1.380623 S    
C12   H5    1.112617 S    
C32   H22   1.111675 S    
C19   H9    1.083640 S    
O20   H44   1.012918 S    
C20   H10   1.083766 S    
O12   H14   1.013924 S    
C6    H1    1.116664 S    
O16   C38   1.410188 S    
C17   H7    1.081424 S    
C18   H8    1.083754 S    
C19   C21   1.397326 A    
C11   C12   1.561377 S    
C30   H17   1.111165 S    
C40   H42   1.110845 S    
C37   H33   1.110589 S    
Zn2   O6    1.995506 S    
C25   C26   1.431594 A    
C15   C16   1.185293 T    
C35   H29   1.108714 S    
