data_mof_unit_8224.cif
_audit_creation_date              2012-12-10T17:31:14-0500
_audit_creation_method            fapswitch 2.2
_symmetry_space_group_name_H-M    P1
_symmetry_Int_Tables_number       1
_space_group_crystal_system       triclinic
_cell_length_a                    12.010378
_cell_length_b                    12.853039
_cell_length_c                    15.391237
_cell_angle_alpha                 87.084505
_cell_angle_beta                  115.416706
_cell_angle_gamma                 93.610296
_cell_volume                      2140.96820182

loop_
_atom_site_label
_atom_site_type_symbol
_atom_type_description
_atom_site_fract_x
_atom_site_fract_y
_atom_site_fract_z
_atom_type_partial_charge
C1    C     C_R   0.476324 0.299624 0.497234 0.903425
C2    C     C_R   0.622069 0.970144 0.459330 0.452725
C3    C     C_R   0.380198 0.137285 0.529057 -0.197168
C4    C     C_R   0.616915 0.862454 0.466980 -0.210646
C5    C     C_R   0.534506 0.133410 0.466849 -0.278162
C6    C     C_R   0.462347 0.866773 0.528876 -0.278695
C7    C     C_R   0.538893 0.026344 0.480142 0.016131
C8    C     C_R   0.457165 0.973599 0.514503 0.008594
C9    C     C_R   0.999520 0.594249 0.403491 0.308666
C10   C     C_R   0.005797 0.418597 0.604477 0.299947
C11   C     C_R   0.120755 0.582312 0.411208 0.505625
C12   C     C_R   0.523485 0.700383 0.502408 0.891605
C13   C     C_R   0.880936 0.420837 0.590417 0.477895
C14   C     C_R   0.165531 0.467925 0.547253 -0.125289
C15   C     C_R   0.835109 0.534112 0.454057 -0.140137
C16   C     C_R   0.576513 0.498064 0.680638 0.870838
C17   C     C_R   0.424417 0.507482 0.319292 0.864151
C18   C     C_R   0.043963 0.473165 0.539448 -0.130543
C19   C     C_R   0.958934 0.534483 0.465127 -0.142493
C20   C     C_R   0.625621 0.515651 0.783837 -0.061764
C21   C     C_R   0.383103 0.531479 0.216454 -0.062542
C22   C     C_R   0.794203 0.531931 0.942414 -0.208067
C23   C     C_R   0.665578 0.579590 0.114811 -0.214072
C24   C     C_R   0.231356 0.590159 0.061064 -0.221884
C25   C     C_R   0.751691 0.511066 0.844986 -0.185459
C26   C     C_R   0.261660 0.556718 0.155997 -0.195493
C27   C     C_R   0.543826 0.545047 0.819761 -0.265520
C28   C     C_R   0.472877 0.539491 0.181327 -0.265748
C29   C     C_R   0.584585 0.568796 0.916282 0.097098
C30   C     C_R   0.446203 0.576826 0.088326 0.093131
C31   C     C_R   0.710932 0.557863 0.978970 0.156908
C32   C     C_R   0.322576 0.599269 0.026495 0.184118
C33   C     C_R   0.500211 0.593170 0.953256 0.078054
C34   C     C_R   0.378512 0.622574 0.893637 -0.234107
C35   C     C_R   0.538011 0.584149 0.053463 0.047777
C36   C     C_3   0.835815 0.261917 0.644464 0.140118
C37   C     C_3   0.773091 0.209558 0.703720 -0.802826
C38   C     C_3   0.166854 0.730936 0.339612 0.126425
C39   C     C_3   0.244381 0.768077 0.286519 -0.796944
C40   C     C_3   0.906194 0.750257 0.370435 0.039929
C41   C     C_3   0.817157 0.818634 0.290327 -0.780749
C42   C     C_3   0.139087 0.420034 0.762925 0.092155
C43   C     C_3   0.238650 0.359356 0.843116 -0.785707
C44   C     C_R   0.751150 0.569292 0.077554 -0.200200
C45   C     C_R   0.291613 0.627611 0.930546 -0.254839
C46   C     C_R   0.537097 0.811711 0.501197 -0.139793
C47   C     C_R   0.461204 0.188323 0.496191 -0.154974
C48   C     C_R   0.373702 0.029586 0.535042 0.455145
H1    H     H_    0.847924 0.564216 0.126493 0.181535
H2    H     H_    0.348885 0.642848 0.818278 0.146807
H3    H     H_    0.407519 0.824740 0.560725 0.172508
H4    H     H_    0.589214 0.175786 0.435120 0.173498
H5    H     H_    0.675666 0.818564 0.446458 0.170292
H6    H     H_    0.321667 0.180981 0.549955 0.186121
H7    H     H_    0.766735 0.577489 0.395498 0.185347
H8    H     H_    0.231772 0.420469 0.603521 0.202477
H9    H     H_    0.928920 0.230206 0.670916 0.185347
H10   H     H_    0.781670 0.240769 0.567902 0.126548
H11   H     H_    0.681063 0.241560 0.682507 0.259456
H12   H     H_    0.198370 0.647973 0.882640 0.143486
H13   H     H_    0.761325 0.124254 0.691924 0.209587
H14   H     H_    0.830316 0.223414 0.781373 0.247289
H15   H     H_    0.211531 0.761434 0.413908 0.109185
H16   H     H_    0.075816 0.765058 0.299136 0.179056
H17   H     H_    0.193205 0.751432 0.208801 0.241357
H18   H     H_    0.264465 0.853503 0.294413 0.209135
H19   H     H_    0.332789 0.728268 0.315573 0.261460
H20   H     H_    0.996295 0.794385 0.405887 0.122645
H21   H     H_    0.869122 0.735525 0.424989 0.152131
H22   H     H_    0.724925 0.777736 0.256450 0.249680
H23   H     H_    0.563708 0.513361 0.227048 0.161473
H24   H     H_    0.807933 0.892752 0.320221 0.250876
H25   H     H_    0.851934 0.836658 0.234778 0.250360
H26   H     H_    0.066775 0.436178 0.786939 0.167116
H27   H     H_    0.181959 0.495188 0.750215 0.130495
H28   H     H_    0.315289 0.346893 0.823134 0.252990
H29   H     H_    0.275701 0.403295 0.910739 0.219961
H30   H     H_    0.199446 0.282558 0.855669 0.259103
H31   H     H_    0.252642 0.918805 0.525397 0.310144
H32   H     H_    0.742219 0.080937 0.466876 0.318384
H33   H     H_    0.446736 0.544757 0.772145 0.157878
H34   H     H_    0.190879 0.551405 0.182103 0.197945
H35   H     H_    0.816750 0.490328 0.817867 0.177751
H36   H     H_    0.891367 0.525256 0.989531 0.135656
H37   H     H_    0.136737 0.608039 0.014551 0.135995
H38   H     H_    0.701441 0.585072 0.191895 0.190737
N1    N     N_R   0.799120 0.480200 0.517090 -0.150659
N2    N     N_R   0.200880 0.519800 0.482910 -0.158157
O1    O     O_R   0.580150 0.341050 0.504560 -0.600026
O2    O     O_3   0.153989 0.620881 0.339330 -0.587867
O3    O     O_3   0.918860 0.656936 0.330729 -0.627833
O4    O     O_3   0.088933 0.359967 0.679383 -0.623271
O5    O     O_3   0.286916 0.982892 0.562647 -0.770812
O6    O     O_3   0.707647 0.016525 0.430277 -0.785455
O7    O     O_R   0.419850 0.658950 0.495440 -0.609053
O8    O     O_R   0.388090 0.353760 0.493600 -0.616983
O9    O     O_R   0.611910 0.646240 0.506400 -0.627282
O10   O     O_R   0.650890 0.490020 0.640860 -0.562261
O11   O     O_R   0.349110 0.509980 0.359140 -0.556485
O12   O     O_R   0.458830 0.502730 0.629890 -0.636569
O13   O     O_R   0.541170 0.497270 0.370110 -0.632729
O14   O     O_3   0.843197 0.370954 0.655663 -0.601690
Zn1   Zn    Zn3+2 0.628240 0.491510 0.507320 0.966522
Zn2   Zn    Zn3+2 0.371760 0.508490 0.492680 0.972156

loop_
_geom_bond_atom_site_label_1
_geom_bond_atom_site_label_2
_ccdc_geom_bond_type
C44   H1    S    
C14   H8    S    
C21   C26   A    
C45   H12   S    
C4    H5    S    
C27   C29   A    
C32   C45   A    
C14   C18   A    
C2    C7    A    
C9    O3    S    
C8    C48   A    
C37   H14   S    
C7    C8    A    
C4    C46   A    
C43   H30   S    
C15   C19   A    
C5    C47   A    
C42   H27   S    
C30   C35   A    
C36   C37   S    
C24   C26   A    
H31   O5    S    
C36   H10   S    
C38   C39   S    
C3    H6    S    
C20   C25   A    
O10   Zn1   S    
C29   C33   A    
C3    C48   A    
O12   Zn2   S    
C36   O14   S    
C18   C19   A    
C17   O13   A    
C9    C19   A    
C22   C25   A    
C5    H4    S    
C6    H3    S    
C24   H37   S    
C31   C44   A    
O11   Zn2   S    
C10   O4    S    
C26   H34   S    
O1    Zn1   S    
C39   H17   S    
N2    Zn2   S    
C38   H16   S    
C34   H2    S    
C42   H26   S    
C40   H21   S    
C2    O6    S    
C12   C46   S    
C36   H9    S    
C22   C31   A    
C5    C7    A    
C16   O12   A    
C6    C8    A    
C23   H38   S    
C17   C21   S    
C23   C44   A    
C15   H7    S    
C2    C4    A    
C24   C32   A    
C17   O11   A    
C27   H33   S    
C11   N2    A    
C16   C20   S    
C13   N1    A    
C33   C34   A    
C12   O7    A    
C34   C45   A    
C37   H11   S    
C9    C11   A    
C12   O9    A    
O9    Zn1   S    
C41   H24   S    
N1    Zn1   S    
C40   C41   S    
C21   C28   A    
C23   C35   A    
O8    Zn2   S    
C39   H18   S    
C28   H23   S    
C42   C43   S    
H32   O6    S    
O7    Zn2   S    
C15   N1    A    
C38   H15   S    
C43   H28   S    
C1    O1    A    
C6    C46   A    
C39   H19   S    
C1    C47   S    
C10   C13   A    
C37   H13   S    
C20   C27   A    
C43   H29   S    
C38   O2    S    
C28   C30   A    
C14   N2    A    
C29   C31   A    
C30   C32   A    
C11   O2    S    
C16   O10   A    
C10   C18   A    
C1    O8    A    
C3    C47   A    
C33   C35   A    
C42   O4    S    
C40   O3    S    
C48   O5    S    
C41   H25   S    
O13   Zn1   S    
C40   H20   S    
C25   H35   S    
C13   O14   S    
C22   H36   S    
C41   H22   S    
