data_mof_unit_60190.cif
_audit_creation_date              2013-03-05T16:25:44-0500
_audit_creation_method            fapswitch 2.2
_symmetry_space_group_name_H-M    P1
_symmetry_Int_Tables_number       1
_space_group_crystal_system       triclinic
_cell_length_a                    18.367281
_cell_length_b                    18.367348
_cell_length_c                    47.259546
_cell_angle_alpha                 90.0
_cell_angle_beta                  89.999861
_cell_angle_gamma                 89.9999
_cell_volume                      15943.3973534

loop_
_atom_site_label
_atom_site_type_symbol
_atom_site_description
_atom_site_fract_x
_atom_site_fract_y
_atom_site_fract_z
_atom_type_partial_charge
O1    O     O_R   0.999960 0.894270 0.023780 -0.560073
O2    O     O_R   0.105730 0.999960 0.023780 -0.559988
O3    O     O_R   0.000040 0.105730 0.023780 -0.560070
O4    O     O_R   0.894270 0.000040 0.023780 -0.559987
O5    O     O_R   0.999960 0.105730 0.976220 -0.560143
O6    O     O_R   0.105730 0.000040 0.976220 -0.560195
O7    O     O_R   0.000040 0.894270 0.976220 -0.560141
O8    O     O_R   0.894270 0.999960 0.976220 -0.560197
O9    O     O_R   0.499960 0.394270 0.523780 -0.560069
O10   O     O_R   0.605730 0.499960 0.523780 -0.560043
O11   O     O_R   0.500040 0.605730 0.523780 -0.560072
O12   O     O_R   0.394270 0.500040 0.523780 -0.560042
O13   O     O_R   0.499960 0.605730 0.476220 -0.560234
O14   O     O_R   0.605730 0.500040 0.476220 -0.560176
O15   O     O_R   0.500040 0.394270 0.476220 -0.560233
O16   O     O_R   0.394270 0.499960 0.476220 -0.560177
C1    C     C_R   1.000000 0.860156 1.000000 0.817137
C2    C     C_R   0.139844 0.000000 1.000000 0.817128
C3    C     C_R   1.000000 0.139844 1.000000 0.817138
C4    C     C_R   0.860156 1.000000 1.000000 0.817130
C5    C     C_R   0.500000 0.360156 0.500000 0.817198
C6    C     C_R   0.639844 0.500000 0.500000 0.817170
C7    C     C_R   0.500000 0.639844 0.500000 0.817198
C8    C     C_R   0.360156 0.500000 0.500000 0.817171
Cu1   Cu    Cu3+1 1.000000 0.000000 0.028150 1.142768
Cu2   Cu    Cu3+1 1.000000 0.000000 0.971850 1.142421
Cu3   Cu    Cu3+1 0.500000 0.500000 0.528150 1.142622
Cu4   Cu    Cu3+1 0.500000 0.500000 0.471850 1.142249
C9    C     C_1   0.782645 0.999999 0.999999 -0.088319
C10   C     C_1   1.000000 0.782645 1.000000 -0.088365
C11   C     C_1   0.217355 0.000000 0.999999 -0.088318
C12   C     C_1   1.000000 0.217355 1.000000 -0.088362
C13   C     C_1   0.282645 0.499999 0.499999 -0.088373
C14   C     C_1   0.500000 0.282645 0.499999 -0.088491
C15   C     C_1   0.717355 0.500000 0.499999 -0.088370
C16   C     C_1   0.500000 0.717355 0.499999 -0.088497
C17   C     C_1   0.717366 0.999999 0.999997 -0.039438
C18   C     C_1   1.000000 0.717366 1.000000 -0.039612
C19   C     C_1   0.282634 0.000001 0.999997 -0.039436
C20   C     C_1   0.000000 0.282634 0.999999 -0.039609
C21   C     C_1   0.217366 0.499999 0.499998 -0.039559
C22   C     C_1   0.500000 0.217366 0.499998 -0.040059
C23   C     C_1   0.782634 0.500000 0.499998 -0.039558
C24   C     C_1   0.500000 0.782634 0.499998 -0.040072
O17   O     O_R   0.500020 0.061320 0.958950 -0.557123
O18   O     O_R   0.938680 0.500020 0.958950 -0.557124
O19   O     O_R   0.499980 0.938680 0.958950 -0.557106
O20   O     O_R   0.061320 0.499980 0.958950 -0.557153
O21   O     O_R   0.500020 0.938680 0.041050 -0.557286
O22   O     O_R   0.938680 0.499980 0.041050 -0.557168
O23   O     O_R   0.499980 0.061320 0.041050 -0.557263
O24   O     O_R   0.061320 0.500020 0.041050 -0.557170
O25   O     O_R   0.000020 0.561320 0.458950 -0.557107
O26   O     O_R   0.438680 0.000020 0.458950 -0.556955
O27   O     O_R   0.999980 0.438680 0.458950 -0.557108
O28   O     O_R   0.561320 0.999980 0.458950 -0.556970
O29   O     O_R   0.000020 0.438680 0.541050 -0.557200
O30   O     O_R   0.438680 0.999980 0.541050 -0.557074
O31   O     O_R   0.999980 0.561320 0.541050 -0.557203
O32   O     O_R   0.561320 0.000020 0.541050 -0.557072
C25   C     C_R   0.500000 0.000000 0.945499 0.936432
C26   C     C_R   0.000000 0.499999 0.945499 0.936710
C27   C     C_R   0.500000 1.000000 0.054499 0.937362
C28   C     C_R   1.000000 0.500000 0.054500 0.936842
C29   C     C_R   1.000000 0.500000 0.445499 0.936546
C30   C     C_R   0.500000 0.999999 0.445498 0.935969
C31   C     C_R   0.000000 0.500000 0.554500 0.937046
C32   C     C_R   0.500000 0.000001 0.554501 0.936647
O33   O     O_R   0.605800 0.061300 0.000010 -0.566972
O34   O     O_R   0.938700 0.605800 0.000010 -0.566758
O35   O     O_R   0.394200 0.938700 0.000010 -0.566977
O36   O     O_R   0.061300 0.394200 0.000010 -0.566764
O37   O     O_R   0.605800 0.938700 0.999990 -0.566574
O38   O     O_R   0.938700 0.394200 0.999990 -0.566718
O39   O     O_R   0.394200 0.061300 0.999990 -0.566577
O40   O     O_R   0.061300 0.605800 0.999990 -0.566727
O41   O     O_R   0.105800 0.561300 0.500010 -0.566836
O42   O     O_R   0.438700 0.105800 0.500010 -0.566770
O43   O     O_R   0.894200 0.438700 0.500010 -0.566840
O44   O     O_R   0.561300 0.894200 0.500010 -0.566775
O45   O     O_R   0.105800 0.438700 0.499990 -0.566643
O46   O     O_R   0.438700 0.894200 0.499990 -0.566514
O47   O     O_R   0.894200 0.561300 0.499990 -0.566645
O48   O     O_R   0.561300 0.105800 0.499990 -0.566522
C33   C     C_R   0.639862 1.000000 0.999996 0.890842
C34   C     C_R   1.000000 0.639862 0.999999 0.890672
C35   C     C_R   0.360138 0.000000 0.999996 0.890847
C36   C     C_R   1.000000 0.360137 0.999999 0.890656
C37   C     C_R   0.139862 0.500000 0.499998 0.890707
C38   C     C_R   0.500000 0.139862 0.499997 0.890086
C39   C     C_R   0.860138 0.500000 0.499998 0.890682
C40   C     C_R   0.500000 0.860137 0.499997 0.890084
Cu5   Cu    Cu3+1 0.500000 0.072590 0.000000 1.150956
Cu6   Cu    Cu3+1 0.927410 0.500000 0.000000 1.151014
Cu7   Cu    Cu3+1 0.500000 0.927410 0.000000 1.150936
Cu8   Cu    Cu3+1 0.072590 0.500000 0.000000 1.150980
Cu9   Cu    Cu3+1 1.000000 0.572590 0.500000 1.151046
Cu10  Cu    Cu3+1 0.427410 0.000000 0.500000 1.151230
Cu11  Cu    Cu3+1 0.000000 0.427410 0.500000 1.151056
Cu12  Cu    Cu3+1 0.572590 0.000000 0.500000 1.151223
C41   C     C_R   0.953659 0.454583 0.189976 0.708696
C42   C     C_R   0.545060 0.953292 0.189970 0.708680
C43   C     C_R   0.046334 0.545410 0.189976 0.708681
C44   C     C_R   0.454988 0.046703 0.189970 0.708679
C45   C     C_R   0.953814 0.545551 0.810021 0.708686
C46   C     C_R   0.545544 0.046230 0.810022 0.708715
C47   C     C_R   0.046182 0.454411 0.810020 0.708676
C48   C     C_R   0.454453 0.953814 0.810022 0.708694
C49   C     C_R   0.453725 0.954537 0.689977 0.708702
C50   C     C_R   0.045365 0.453603 0.689975 0.708694
C51   C     C_R   0.546269 0.045498 0.689977 0.708704
C52   C     C_R   0.954632 0.546369 0.689976 0.708672
C53   C     C_R   0.454214 0.045944 0.310015 0.708695
C54   C     C_R   0.045565 0.546184 0.310021 0.708697
C55   C     C_R   0.545829 0.954048 0.310015 0.708703
C56   C     C_R   0.954428 0.453814 0.310021 0.708698
N1    N     N_R   0.999996 0.499996 0.175917 -0.436837
N2    N     N_R   0.500023 0.999997 0.175911 -0.436861
N3    N     N_R   0.999998 0.499981 0.824080 -0.436814
N4    N     N_R   0.499999 0.000022 0.824081 -0.436834
N5    N     N_R   0.499997 0.000016 0.675918 -0.436842
N6    N     N_R   0.999999 0.499987 0.675916 -0.436825
N7    N     N_R   0.500020 0.999995 0.324074 -0.436796
N8    N     N_R   0.999996 0.499999 0.324080 -0.436819
C57   C     C_R   0.046845 0.547660 0.219915 -0.147384
C58   C     C_R   0.452767 0.047257 0.219910 -0.147402
C59   C     C_R   0.953148 0.452334 0.219916 -0.147387
C60   C     C_R   0.547286 0.952743 0.219910 -0.147401
C61   C     C_R   0.046666 0.452143 0.780081 -0.147382
C62   C     C_R   0.452212 0.953298 0.780083 -0.147387
C63   C     C_R   0.953327 0.547819 0.780082 -0.147385
C64   C     C_R   0.547781 0.046748 0.780082 -0.147395
C65   C     C_R   0.546788 0.047739 0.719916 -0.147389
C66   C     C_R   0.952369 0.546867 0.719916 -0.147384
C67   C     C_R   0.453203 0.952302 0.719917 -0.147390
C68   C     C_R   0.047626 0.453099 0.719915 -0.147390
C69   C     C_R   0.546297 0.951777 0.280075 -0.147380
C70   C     C_R   0.952174 0.453312 0.280082 -0.147389
C71   C     C_R   0.453754 0.048224 0.280075 -0.147373
C72   C     C_R   0.047817 0.546685 0.280081 -0.147390
C73   C     C_R   0.999996 0.499998 0.234960 -0.053797
C74   C     C_R   0.500026 0.000000 0.234954 -0.053795
C75   C     C_R   0.999997 0.499981 0.765037 -0.053789
C76   C     C_R   0.499996 0.000022 0.765038 -0.053796
C77   C     C_R   0.499996 0.000021 0.734961 -0.053797
C78   C     C_R   0.999997 0.499983 0.734960 -0.053789
C79   C     C_R   0.500026 0.000000 0.265031 -0.053789
C80   C     C_R   0.999996 0.499998 0.265037 -0.053788
C81   C     C_R   0.093604 0.594871 0.235158 0.251853
C82   C     C_R   0.405986 0.094446 0.235152 0.251857
C83   C     C_R   0.906388 0.405125 0.235158 0.251853
C84   C     C_R   0.594073 0.905561 0.235152 0.251856
C85   C     C_R   0.093231 0.404741 0.764838 0.251826
C86   C     C_R   0.404891 0.906650 0.764841 0.251851
C87   C     C_R   0.906760 0.595220 0.764840 0.251827
C88   C     C_R   0.595098 0.093397 0.764839 0.251851
C89   C     C_R   0.593500 0.094995 0.735158 0.251854
C90   C     C_R   0.905182 0.593649 0.735158 0.251830
C91   C     C_R   0.406488 0.905049 0.735160 0.251855
C92   C     C_R   0.094810 0.406313 0.735157 0.251830
C93   C     C_R   0.592468 0.903990 0.264833 0.251828
C94   C     C_R   0.904804 0.406715 0.264840 0.251829
C95   C     C_R   0.407591 0.096018 0.264833 0.251825
C96   C     C_R   0.095188 0.593282 0.264839 0.251829
O49   O     O_2   0.907780 0.412705 0.174768 -0.415313
O50   O     O_2   0.586583 0.907093 0.174761 -0.415276
O51   O     O_2   0.092214 0.587287 0.174768 -0.415322
O52   O     O_2   0.413460 0.092897 0.174761 -0.415271
O53   O     O_2   0.908060 0.587566 0.825228 -0.415318
O54   O     O_2   0.587563 0.091979 0.825230 -0.415317
O55   O     O_2   0.091939 0.412397 0.825227 -0.415332
O56   O     O_2   0.412436 0.908064 0.825231 -0.415330
O57   O     O_2   0.407917 0.912582 0.674769 -0.415317
O58   O     O_2   0.087186 0.407671 0.674768 -0.415297
O59   O     O_2   0.592079 0.087449 0.674768 -0.415315
O60   O     O_2   0.912814 0.592305 0.674769 -0.415312
O61   O     O_2   0.408795 0.088325 0.325221 -0.415367
O62   O     O_2   0.087592 0.591927 0.325228 -0.415318
O63   O     O_2   0.591241 0.911662 0.325222 -0.415361
O64   O     O_2   0.912401 0.408071 0.325229 -0.415320
C97   C     C_R   0.445845 0.038760 0.869445 0.256632
C98   C     C_R   0.961360 0.445754 0.869446 0.256656
C99   C     C_R   0.554159 0.961271 0.869442 0.256623
C100  C     C_R   0.038636 0.554219 0.869442 0.256659
C101  C     C_R   0.445470 0.961800 0.130550 0.256768
C102  C     C_R   0.961457 0.554300 0.130554 0.256679
C103  C     C_R   0.554561 0.038194 0.130547 0.256764
C104  C     C_R   0.038536 0.445693 0.130554 0.256681
C105  C     C_R   0.945811 0.538703 0.369444 0.256639
C106  C     C_R   0.460937 0.946077 0.369437 0.256546
C107  C     C_R   0.054184 0.461296 0.369443 0.256640
C108  C     C_R   0.539089 0.053913 0.369438 0.256545
C109  C     C_R   0.945617 0.461565 0.630552 0.256710
C110  C     C_R   0.461322 0.054216 0.630555 0.256652
C111  C     C_R   0.054384 0.538416 0.630553 0.256710
C112  C     C_R   0.538676 0.945805 0.630557 0.256652
C113  C     C_R   0.446176 0.039279 0.899287 0.187742
C114  C     C_R   0.960832 0.446091 0.899288 0.187709
C115  C     C_R   0.553825 0.960733 0.899284 0.187733
C116  C     C_R   0.039163 0.553899 0.899285 0.187716
C117  C     C_R   0.445803 0.961251 0.100708 0.187765
C118  C     C_R   0.960923 0.553967 0.100712 0.187712
C119  C     C_R   0.554210 0.038748 0.100704 0.187759
C120  C     C_R   0.039074 0.446029 0.100711 0.187712
C121  C     C_R   0.946144 0.539232 0.399286 0.187731
C122  C     C_R   0.460418 0.946403 0.399279 0.187694
C123  C     C_R   0.053853 0.460767 0.399285 0.187731
C124  C     C_R   0.539592 0.053592 0.399280 0.187703
C125  C     C_R   0.945949 0.461035 0.600709 0.187721
C126  C     C_R   0.460788 0.053876 0.600712 0.187718
C127  C     C_R   0.054053 0.538957 0.600711 0.187717
C128  C     C_R   0.539211 0.946137 0.600715 0.187717
C129  C     C_R   0.500000 0.000002 0.914240 -0.328591
C130  C     C_R   1.000000 0.499996 0.914241 -0.328547
C131  C     C_R   0.500004 1.000000 0.085754 -0.328404
C132  C     C_R   0.999999 0.499999 0.085757 -0.328531
C133  C     C_R   0.999999 0.500000 0.414241 -0.328565
C134  C     C_R   0.500002 0.999998 0.414236 -0.328736
C135  C     C_R   0.000000 0.499999 0.585757 -0.328462
C136  C     C_R   0.499999 0.000004 0.585759 -0.328617
C137  C     C_R   0.500002 0.000019 0.854598 0.028425
C138  C     C_R   0.000000 0.499983 0.854598 0.028411
C139  C     C_R   0.500020 0.999995 0.145394 0.028328
C140  C     C_R   0.999996 0.499996 0.145399 0.028386
C141  C     C_R   0.999997 0.499999 0.354598 0.028427
C142  C     C_R   0.500017 0.999994 0.354592 0.028495
C143  C     C_R   1.000000 0.499989 0.645398 0.028374
C144  C     C_R   0.499999 0.000013 0.645401 0.028415
N9    N     N_R   0.140248 0.645475 0.220849 0.193307
O65   O     O_R   0.113326 0.705664 0.210790 -0.193166
O66   O     O_R   0.210474 0.636381 0.221390 -0.196341
N10   N     N_R   0.355844 0.141586 0.220844 0.193324
O67   O     O_R   0.295346 0.115278 0.210818 -0.193117
O68   O     O_R   0.365679 0.211713 0.221357 -0.196332
N11   N     N_R   0.859742 0.354522 0.220850 0.193307
O69   O     O_R   0.886662 0.294330 0.210791 -0.193163
O70   O     O_R   0.789516 0.363619 0.221391 -0.196341
N12   N     N_R   0.644228 0.858434 0.220844 0.193319
O71   O     O_R   0.704711 0.884761 0.210812 -0.193135
O72   O     O_R   0.634422 0.788303 0.221364 -0.196327
N13   N     N_R   0.139664 0.353942 0.779147 0.193314
O73   O     O_R   0.112478 0.293896 0.789229 -0.193072
O74   O     O_R   0.209930 0.362706 0.778586 -0.196403
N14   N     N_R   0.354169 0.860134 0.779149 0.193312
O75   O     O_R   0.294032 0.887202 0.789197 -0.193093
O76   O     O_R   0.363104 0.789888 0.778618 -0.196408
N15   N     N_R   0.860321 0.646011 0.779149 0.193317
O77   O     O_R   0.887497 0.706065 0.789228 -0.193055
O78   O     O_R   0.790056 0.637231 0.778592 -0.196401
N16   N     N_R   0.645815 0.139921 0.779146 0.193311
O79   O     O_R   0.705959 0.112862 0.789192 -0.193086
O80   O     O_R   0.636869 0.210165 0.778617 -0.196411
N17   N     N_R   0.640088 0.145653 0.720850 0.193308
O81   O     O_R   0.613102 0.205825 0.710801 -0.193123
O82   O     O_R   0.710322 0.136623 0.721382 -0.196382
N18   N     N_R   0.854606 0.640325 0.720850 0.193315
O83   O     O_R   0.794420 0.613432 0.710775 -0.193085
O84   O     O_R   0.863720 0.710547 0.721403 -0.196370
N19   N     N_R   0.359896 0.854396 0.720853 0.193310
O85   O     O_R   0.386873 0.794215 0.710807 -0.193119
O86   O     O_R   0.289663 0.863437 0.721383 -0.196384
N20   N     N_R   0.145380 0.359633 0.720848 0.193317
O87   O     O_R   0.205574 0.386519 0.710777 -0.193076
O88   O     O_R   0.136253 0.289413 0.721398 -0.196373
N21   N     N_R   0.638450 0.852780 0.279142 0.193310
O89   O     O_R   0.610730 0.792981 0.289226 -0.193050
O90   O     O_R   0.708792 0.860912 0.278576 -0.196446
N22   N     N_R   0.854035 0.360249 0.279148 0.193317
O91   O     O_R   0.793945 0.387385 0.289211 -0.193014
O92   O     O_R   0.862877 0.289992 0.278604 -0.196438
N23   N     N_R   0.361627 0.147244 0.279142 0.193308
O93   O     O_R   0.389372 0.207020 0.289236 -0.193063
O94   O     O_R   0.291280 0.139153 0.278567 -0.196436
N24   N     N_R   0.145954 0.639751 0.279147 0.193318
O95   O     O_R   0.206047 0.612618 0.289209 -0.193013
O96   O     O_R   0.137107 0.710008 0.278604 -0.196437
N25   N     N_R   0.389061 0.075623 0.854166 0.184884
O97   O     O_R   0.321198 0.065924 0.861114 -0.201840
O98   O     O_R   0.404654 0.117690 0.832863 -0.266018
N26   N     N_R   0.924606 0.388902 0.854167 0.184926
O99   O     O_R   0.934451 0.321057 0.861109 -0.201769
O100  O     O_R   0.882507 0.404417 0.832864 -0.266044
N27   N     N_R   0.610948 0.924423 0.854161 0.184889
O101  O     O_R   0.678809 0.934137 0.861106 -0.201853
O102  O     O_R   0.595359 0.882356 0.832857 -0.266013
N28   N     N_R   0.075374 0.611074 0.854159 0.184915
O103  O     O_R   0.065456 0.678922 0.861081 -0.201770
O104  O     O_R   0.117510 0.595555 0.832868 -0.266018
N29   N     N_R   0.388295 0.925556 0.145831 0.184902
O105  O     O_R   0.320539 0.936016 0.138892 -0.201938
O106  O     O_R   0.403436 0.883312 0.167130 -0.265932
N30   N     N_R   0.924821 0.611227 0.145834 0.184908
O107  O     O_R   0.934809 0.679052 0.138894 -0.201835
O108  O     O_R   0.882685 0.595796 0.167135 -0.265973
N31   N     N_R   0.611739 0.074447 0.145824 0.184909
O109  O     O_R   0.679491 0.064034 0.138868 -0.201938
O110  O     O_R   0.596605 0.116667 0.167131 -0.265949
N32   N     N_R   0.075163 0.388761 0.145834 0.184911
O111  O     O_R   0.065159 0.320937 0.138895 -0.201838
O112  O     O_R   0.117303 0.404185 0.167134 -0.265968
N33   N     N_R   0.889000 0.575518 0.354164 0.184906
O113  O     O_R   0.821143 0.565749 0.361106 -0.201805
O114  O     O_R   0.904562 0.617599 0.332861 -0.266053
N34   N     N_R   0.423710 0.889537 0.354154 0.184901
O115  O     O_R   0.432982 0.821610 0.361094 -0.201712
O116  O     O_R   0.381741 0.905412 0.332854 -0.266078
N35   N     N_R   0.110995 0.424482 0.354162 0.184904
O117  O     O_R   0.178852 0.434256 0.361103 -0.201805
O118  O     O_R   0.095431 0.382398 0.332861 -0.266055
N36   N     N_R   0.576325 0.110450 0.354158 0.184894
O119  O     O_R   0.567053 0.178378 0.361096 -0.201697
O120  O     O_R   0.618302 0.094572 0.332860 -0.266078
N37   N     N_R   0.888616 0.425044 0.645831 0.184926
O121  O     O_R   0.820810 0.435184 0.638895 -0.201791
O122  O     O_R   0.903961 0.382873 0.667131 -0.266014
N38   N     N_R   0.424545 0.111056 0.645833 0.184892
O123  O     O_R   0.434344 0.178903 0.638884 -0.201856
O124  O     O_R   0.382459 0.095527 0.667137 -0.265988
N39   N     N_R   0.111392 0.574919 0.645835 0.184930
O125  O     O_R   0.179197 0.564737 0.638907 -0.201802
O126  O     O_R   0.096053 0.617101 0.667132 -0.266000
N40   N     N_R   0.575451 0.888969 0.645838 0.184891
O127  O     O_R   0.565648 0.821120 0.638892 -0.201857
O128  O     O_R   0.617539 0.904503 0.667141 -0.265989
N41   N     N_R   0.391570 0.079680 0.914352 0.175057
O129  O     O_R   0.350883 0.047565 0.933112 -0.347719
O130  O     O_R   0.380439 0.148031 0.908554 -0.230277
N42   N     N_R   0.920528 0.391413 0.914354 0.174988
O131  O     O_R   0.952702 0.350824 0.933130 -0.347844
O132  O     O_R   0.852213 0.380115 0.908539 -0.230295
N43   N     N_R   0.608428 0.920317 0.914346 0.175065
O133  O     O_R   0.649092 0.952408 0.933120 -0.347744
O134  O     O_R   0.619579 0.851978 0.908532 -0.230240
N44   N     N_R   0.079445 0.608602 0.914347 0.174971
O135  O     O_R   0.047264 0.649158 0.933132 -0.347879
O136  O     O_R   0.147738 0.619972 0.908515 -0.230264
N45   N     N_R   0.390820 0.921360 0.085642 0.174751
O137  O     O_R   0.350549 0.953811 0.066835 -0.348340
O138  O     O_R   0.378905 0.853171 0.091496 -0.230300
N46   N     N_R   0.920708 0.608714 0.085647 0.174945
O139  O     O_R   0.952940 0.649231 0.066862 -0.347930
O140  O     O_R   0.852423 0.620153 0.091473 -0.230240
N47   N     N_R   0.609174 0.078656 0.085636 0.174760
O141  O     O_R   0.649468 0.046211 0.066834 -0.348317
O142  O     O_R   0.621037 0.146860 0.091477 -0.230321
N48   N     N_R   0.079286 0.391280 0.085647 0.174943
O143  O     O_R   0.047056 0.350773 0.066859 -0.347939
O144  O     O_R   0.147567 0.379827 0.091478 -0.230233
N49   N     N_R   0.891509 0.579599 0.414350 0.175031
O145  O     O_R   0.850876 0.547472 0.433124 -0.347780
O146  O     O_R   0.880297 0.647929 0.408537 -0.230279
N50   N     N_R   0.419705 0.892020 0.414340 0.175230
O147  O     O_R   0.451592 0.851124 0.433090 -0.347259
O148  O     O_R   0.351283 0.881306 0.408549 -0.230208
N51   N     N_R   0.108490 0.420401 0.414349 0.175030
O149  O     O_R   0.149121 0.452529 0.433124 -0.347784
O150  O     O_R   0.119707 0.352073 0.408534 -0.230275
N52   N     N_R   0.580291 0.107981 0.414344 0.175223
O151  O     O_R   0.548384 0.148890 0.433085 -0.347241
O152  O     O_R   0.648720 0.118687 0.408563 -0.230230
N53   N     N_R   0.891117 0.420941 0.585643 0.174868
O153  O     O_R   0.850682 0.453260 0.566854 -0.348072
O154  O     O_R   0.879517 0.352685 0.591472 -0.230291
N54   N     N_R   0.420434 0.108519 0.585647 0.175028
O155  O     O_R   0.452568 0.149136 0.566870 -0.347691
O156  O     O_R   0.352109 0.119754 0.591463 -0.230227
N55   N     N_R   0.108892 0.579049 0.585647 0.174864
O157  O     O_R   0.149297 0.546740 0.566846 -0.348111
O158  O     O_R   0.120539 0.647287 0.591493 -0.230259
N56   N     N_R   0.579566 0.891490 0.585652 0.175030
O159  O     O_R   0.547434 0.850872 0.566874 -0.347683
O160  O     O_R   0.647889 0.880253 0.591470 -0.230223

loop_
_geom_bond_atom_site_label_1
_geom_bond_atom_site_label_2
_geom_bond_distance
_ccdc_geom_bond_type
C64   C76   1.418577 A    
C53   O61   1.348452 S    
C112  C144  1.410002 A    
O40   C34   1.288063 A    
O8    Cu2   1.952925 S    
C48   N4    1.364405 A    
N40   O128  1.300998 A    
C14   C22   1.199008 T    
C19   C35   1.423530 S    
C47   C61   1.415564 A    
N45   O137  1.300916 A    
C45   C63   1.415564 A    
C47   O55   1.348446 S    
N33   O113  1.301222 A    
C46   C64   1.415565 A    
C82   C95   1.403322 A    
O41   C37   1.288066 A    
C45   O53   1.348445 S    
O18   C26   1.293288 A    
C119  C131  1.413156 A    
C32   C136  1.477244 S    
O33   Cu5   1.954291 S    
C49   O57   1.348443 S    
O35   Cu7   1.954293 S    
N16   O80   1.300873 A    
N23   O93   1.301050 A    
C82   N10   1.433567 S    
N14   O75   1.301043 A    
C102  C118  1.410381 A    
N24   O95   1.301046 A    
Cu9   Cu11  2.666570 S    
N12   O71   1.301047 A    
C106  C122  1.410378 A    
N28   O104  1.301012 A    
O3    C3    1.286700 A    
C24   C40   1.423530 S    
C107  C141  1.410003 A    
C87   C90   1.403330 A    
C1    C10   1.423673 S    
O46   Cu10  1.954300 S    
C23   C39   1.423529 S    
C43   N1    1.364409 A    
C3    C12   1.423673 S    
O27   C29   1.293295 A    
C66   C78   1.418575 A    
N12   O72   1.300873 A    
C123  C133  1.413224 A    
C55   N7    1.364413 A    
O12   Cu3   1.952926 S    
C97   C137  1.410004 A    
O48   Cu12  1.954298 S    
C101  N29   1.437892 S    
N46   O139  1.300921 A    
C124  N52   1.436503 S    
C116  N44   1.436539 S    
C128  C136  1.413220 A    
N19   O86   1.300874 A    
O10   C6    1.286698 A    
N38   O123  1.301221 A    
O44   C40   1.288065 A    
N9    O65   1.301044 A    
N51   O149  1.300926 A    
O11   Cu3   1.952931 S    
N50   O147  1.300943 A    
N10   O68   1.300875 A    
C70   C94   1.417184 A    
Cu6   Cu8   2.666560 S    
C42   O50   1.348455 S    
C57   C81   1.417184 A    
C61   C75   1.418574 A    
C117  N45   1.436539 S    
N22   O92   1.300874 A    
C71   C95   1.417188 A    
C56   O64   1.348440 S    
C125  N53   1.436528 S    
C16   C24   1.199008 T    
C65   C77   1.418579 A    
N32   O111  1.301226 A    
O37   Cu7   1.954291 S    
C114  C130  1.413225 A    
C12   C20   1.199008 T    
C63   C75   1.418574 A    
O39   Cu5   1.954293 S    
O43   Cu11  1.954293 S    
C91   N19   1.433576 S    
O20   Cu8   1.951017 S    
C52   C66   1.415567 A    
C76   C77   1.421406 A    
O32   Cu12  1.951011 S    
C87   N15   1.433585 S    
O47   C39   1.288063 A    
C111  C143  1.409999 A    
C108  N36   1.437914 S    
C20   C36   1.423534 S    
N30   O108  1.301005 A    
C13   C21   1.199005 T    
O40   Cu8   1.954298 S    
C29   C133  1.477267 S    
C49   N5    1.364405 A    
O28   C30   1.293326 A    
O11   C7    1.286700 A    
C111  N39   1.437880 S    
C90   N18   1.433583 S    
C121  N49   1.436520 S    
C112  C128  1.410372 A    
N9    O66   1.300876 A    
C7    C16   1.423677 S    
C101  C139  1.410017 A    
C128  N56   1.436521 S    
C2    C11   1.423668 S    
N13   O74   1.300875 A    
C68   C78   1.418573 A    
O10   Cu3   1.952924 S    
C69   C93   1.417188 A    
N39   O126  1.301009 A    
C43   O51   1.348445 S    
N49   O145  1.300921 A    
C85   N13   1.433589 S    
C49   C67   1.415560 A    
C50   C68   1.415566 A    
O30   Cu10  1.951012 S    
C102  N30   1.437900 S    
N56   O159  1.300922 A    
N37   O121  1.301228 A    
N31   O110  1.301003 A    
C99   N27   1.437901 S    
C121  C133  1.413224 A    
O7    Cu2   1.952933 S    
C18   C34   1.423534 S    
C42   C60   1.415559 A    
N17   O81   1.301045 A    
N37   O122  1.301007 A    
C110  C144  1.410002 A    
O29   Cu11  1.951012 S    
N54   O155  1.300922 A    
O13   C7    1.286696 A    
N13   O73   1.301046 A    
C59   C73   1.418575 A    
N41   O130  1.301153 A    
C59   C83   1.417181 A    
O20   C26   1.293289 A    
C60   C84   1.417195 A    
C55   C69   1.415554 A    
C70   C80   1.418574 A    
C54   O62   1.348444 S    
N18   O84   1.300876 A    
C116  C130  1.413232 A    
C53   C71   1.415553 A    
O41   Cu9   1.954291 S    
C54   C72   1.415562 A    
C62   C76   1.418576 A    
C48   C62   1.415557 A    
C84   C93   1.403322 A    
C104  N32   1.437895 S    
N34   O116  1.301006 A    
Cu5   Cu7   2.666570 S    
N25   O97   1.301219 A    
C92   N20   1.433584 S    
C46   O54   1.348444 S    
C25   C129  1.477267 S    
C127  N55   1.436541 S    
C50   O58   1.348441 S    
C125  C135  1.413195 A    
N26   O99   1.301222 A    
C109  C143  1.410004 A    
N44   O135  1.300927 A    
O22   Cu6   1.951012 S    
Cu1   Cu2   2.660717 S    
C104  C120  1.410382 A    
N39   O125  1.301232 A    
C95   N23   1.433604 S    
C22   C38   1.423530 S    
O4    C4    1.286704 A    
C126  N54   1.436517 S    
C110  C126  1.410377 A    
N48   O144  1.301160 A    
O18   Cu6   1.951016 S    
C83   N11   1.433579 S    
N29   O105  1.301231 A    
C62   C86   1.417184 A    
C81   C96   1.403320 A    
C107  C123  1.410380 A    
O21   Cu7   1.951012 S    
N52   O152  1.301151 A    
N21   O90   1.300876 A    
O37   C33   1.288063 A    
O23   Cu5   1.951012 S    
O39   C35   1.288061 A    
C52   O60   1.348443 S    
N47   O142  1.301162 A    
C98   N26   1.437905 S    
C103  N31   1.437908 S    
C102  C140  1.410004 A    
C66   C90   1.417187 A    
C106  C142  1.410003 A    
C74   C79   1.421406 A    
N42   O131  1.300922 A    
O7    C1    1.286696 A    
N20   O87   1.301044 A    
O26   C30   1.293329 A    
C72   C96   1.417183 A    
C127  C135  1.413211 A    
O12   C8    1.286700 A    
O1    C1    1.286700 A    
O25   Cu9   1.951016 S    
C27   C131  1.477097 S    
O14   C6    1.286696 A    
C85   C92   1.403327 A    
C31   C135  1.477182 S    
C86   C91   1.403316 A    
C113  N41   1.436506 S    
C58   C82   1.417192 A    
O6    Cu2   1.952925 S    
C103  C139  1.410020 A    
C48   O56   1.348445 S    
C94   N22   1.433580 S    
C64   C88   1.417182 A    
N14   O76   1.300874 A    
C65   C89   1.417183 A    
C43   C57   1.415562 A    
C68   C92   1.417189 A    
C105  N33   1.437901 S    
O27   Cu11  1.951016 S    
N27   O101  1.301220 A    
N1    C140  1.442248 S    
C118  N46   1.436528 S    
O34   C34   1.288063 A    
C75   C78   1.421406 A    
C26   C130  1.477253 S    
O38   Cu6   1.954300 S    
C21   C37   1.423529 S    
O33   C33   1.288066 A    
O42   C38   1.288065 A    
N53   O154  1.301161 A    
C96   N24   1.433579 S    
O34   Cu6   1.954298 S    
N46   O140  1.301160 A    
O36   Cu8   1.954300 S    
C88   N16   1.433575 S    
O2    C2    1.286702 A    
C103  C119  1.410385 A    
O46   C40   1.288061 A    
N38   O124  1.300999 A    
C101  C117  1.410388 A    
C105  C121  1.410376 A    
C67   C77   1.418579 A    
N50   O148  1.301153 A    
N11   O69   1.301047 A    
O13   Cu4   1.952931 S    
O45   C37   1.288063 A    
N33   O114  1.301003 A    
N40   O127  1.301223 A    
C97   C113  1.410369 A    
C115  C129  1.413223 A    
N32   O112  1.301006 A    
C47   N3    1.364414 A    
N45   O138  1.301164 A    
N8    C141  1.442248 S    
C44   N2    1.364405 A    
N15   O78   1.300875 A    
C124  C134  1.413264 A    
C86   N14   1.433577 S    
C98   C138  1.410005 A    
N35   O117  1.301224 A    
O3    Cu1   1.952931 S    
C67   C91   1.417181 A    
O24   C28   1.293276 A    
N31   O109  1.301228 A    
C5    C14   1.423677 S    
N16   O79   1.301044 A    
C58   C74   1.418585 A    
C115  N43   1.436516 S    
N43   O133  1.300925 A    
C53   N7    1.364412 A    
C99   C137  1.410004 A    
C83   C94   1.403326 A    
C106  N34   1.437917 S    
O23   C27   1.293248 A    
N55   O158  1.301165 A    
C41   O49   1.348444 S    
O35   C35   1.288068 A    
O30   C32   1.293291 A    
Cu10  Cu12  2.666560 S    
O4    Cu1   1.952926 S    
C113  C129  1.413215 A    
O9    Cu3   1.952933 S    
O48   C38   1.288061 A    
C120  C132  1.413214 A    
N36   O119  1.301218 A    
N30   O107  1.301223 A    
C100  N28   1.437880 S    
C56   N8    1.364411 A    
N2    C139  1.442238 S    
C69   C79   1.418578 A    
O19   C25   1.293301 A    
N56   O160  1.301156 A    
O5    C3    1.286696 A    
O45   Cu11  1.954291 S    
C8    C13   1.423668 S    
C41   N1    1.364407 A    
C63   C87   1.417184 A    
C81   N9    1.433580 S    
C30   C134  1.477390 S    
C50   N6    1.364413 A    
O15   Cu4   1.952933 S    
O17   C25   1.293296 A    
N10   O67   1.301046 A    
N54   O156  1.301157 A    
O2    Cu1   1.952924 S    
C93   N21   1.433598 S    
N41   O129  1.300927 A    
C109  N37   1.437891 S    
O5    Cu2   1.952931 S    
C84   N12   1.433572 S    
N22   O91   1.301046 A    
O32   C32   1.293290 A    
O47   Cu9   1.954293 S    
C9    C17   1.199003 T    
C45   N3    1.364413 A    
C112  N40   1.437905 S    
O38   C36   1.288063 A    
O16   Cu4   1.952925 S    
C61   C85   1.417189 A    
N47   O141  1.300914 A    
N4    C137  1.442234 S    
O21   C27   1.293247 A    
C51   N5    1.364405 A    
O22   C28   1.293277 A    
N55   O157  1.300918 A    
C98   C114  1.410385 A    
C15   C23   1.199005 T    
C72   C80   1.418573 A    
C107  N35   1.437897 S    
N7    C142  1.442262 S    
C122  C134  1.413269 A    
C100  C138  1.409995 A    
C6    C15   1.423668 S    
C71   C79   1.418575 A    
O8    C4    1.286689 A    
N5    C144  1.442234 S    
C51   O59   1.348444 S    
C17   C33   1.423530 S    
C88   C89   1.403320 A    
N26   O100  1.301010 A    
N28   O103  1.301230 A    
N44   O136  1.301162 A    
C126  C136  1.413220 A    
C119  N47   1.436524 S    
C117  C131  1.413165 A    
C114  N42   1.436519 S    
C73   C80   1.421411 A    
C41   C59   1.415566 A    
C120  N48   1.436530 S    
O42   Cu10  1.954298 S    
N21   O89   1.301049 A    
N24   O96   1.300875 A    
C42   N2    1.364402 A    
O31   C31   1.293272 A    
C108  C142  1.409997 A    
O16   C8    1.286693 A    
O44   Cu12  1.954300 S    
O1    Cu1   1.952933 S    
N11   O70   1.300874 A    
O29   C31   1.293270 A    
C123  N51   1.436519 S    
O36   C36   1.288063 A    
C56   C70   1.415563 A    
C4    C9    1.423668 S    
O6    C2    1.286692 A    
N42   O132  1.301159 A    
C57   C73   1.418576 A    
N17   O82   1.300874 A    
C51   C65   1.415558 A    
N20   O88   1.300875 A    
C100  C116  1.410384 A    
N3    C138  1.442267 S    
C99   C115  1.410372 A    
C122  N50   1.436508 S    
N35   O118  1.301005 A    
C52   N6    1.364410 A    
C110  N38   1.437904 S    
C44   O52   1.348450 S    
C111  C127  1.410391 A    
C109  C125  1.410390 A    
N18   O83   1.301045 A    
N43   O134  1.301155 A    
C104  C140  1.410001 A    
N34   O115  1.301218 A    
O17   Cu5   1.951016 S    
C108  C124  1.410371 A    
N25   O98   1.300998 A    
C89   N17   1.433577 S    
O31   Cu9   1.951012 S    
O28   Cu12  1.951017 S    
N19   O85   1.301042 A    
O9    C5    1.286704 A    
N36   O120  1.301002 A    
O25   C29   1.293297 A    
N23   O94   1.300873 A    
C46   N4    1.364404 A    
O43   C39   1.288066 A    
C28   C132  1.477206 S    
C105  C141  1.410005 A    
N15   O77   1.301044 A    
N53   O153  1.300916 A    
O14   Cu4   1.952925 S    
C54   N8    1.364411 A    
C97   N25   1.437906 S    
N48   O143  1.300919 A    
N6    C143  1.442267 S    
N29   O106  1.301004 A    
C11   C19   1.199003 T    
O24   Cu8   1.951011 S    
N51   O150  1.301157 A    
N52   O151  1.300960 A    
O15   C5    1.286692 A    
C44   C58   1.415557 A    
N49   O146  1.301158 A    
Cu3   Cu4   2.660717 S    
O19   Cu7   1.951016 S    
O26   Cu10  1.951016 S    
C10   C18   1.199008 T    
C118  C132  1.413211 A    
C60   C74   1.418588 A    
C55   O63   1.348453 S    
N27   O102  1.300999 A    
