data_mof_unit_62196.cif
_audit_creation_date              2012-12-10T19:51:00-0500
_audit_creation_method            fapswitch 2.2
_symmetry_space_group_name_H-M    P1
_symmetry_Int_Tables_number       1
_space_group_crystal_system       triclinic
_cell_length_a                    23.519229
_cell_length_b                    10.882022
_cell_length_c                    22.272892
_cell_angle_alpha                 91.374266
_cell_angle_beta                  88.870488
_cell_angle_gamma                 88.480753
_cell_volume                      5695.62802001

loop_
_atom_site_label
_atom_site_type_symbol
_atom_type_description
_atom_site_fract_x
_atom_site_fract_y
_atom_site_fract_z
_atom_type_partial_charge
Br1   Br    Br    0.560845 0.999216 0.330563 -0.337743
Br2   Br    Br    0.614752 0.366696 0.772958 -0.309823
Br3   Br    Br    0.199164 0.437383 0.628087 -0.298767
Br4   Br    Br    0.800824 0.562858 0.371932 -0.298775
Br5   Br    Br    0.439158 0.000787 0.669437 -0.337741
Br6   Br    Br    0.454223 0.872936 0.073364 -0.164364
Br7   Br    Br    0.545770 0.127062 0.926635 -0.164363
Br8   Br    Br    0.605068 0.377786 0.205887 -0.263506
Br9   Br    Br    0.394933 0.622225 0.794112 -0.263507
Br10  Br    Br    0.596716 0.330902 0.351501 -0.336408
Br11  Br    Br    0.403287 0.669107 0.648497 -0.336447
Br12  Br    Br    0.385244 0.633295 0.227044 -0.309820
C1    C     C_R   0.499292 0.261915 0.499237 0.815076
C2    C     C_R   0.701978 0.524643 0.445610 -0.179346
C3    C     C_R   0.238673 0.475853 0.555161 0.287551
C4    C     C_R   0.761322 0.524320 0.444852 0.287537
C5    C     C_R   0.208985 0.504041 0.502897 0.155647
C6    C     C_R   0.791013 0.496118 0.497112 0.155653
C7    C     C_R   0.388471 0.232230 0.339748 0.426627
C8    C     C_R   0.611529 0.767764 0.660250 0.426635
C9    C     C_R   0.409323 0.182651 0.392612 -0.194615
C10   C     C_R   0.590678 0.817345 0.607386 -0.194615
C11   C     C_R   0.460809 0.113887 0.391589 -0.024797
C12   C     C_R   0.500708 0.738085 0.500763 0.815070
C13   C     C_R   0.539193 0.886113 0.608410 -0.024797
C14   C     C_R   0.490714 0.093635 0.336458 0.303808
C15   C     C_R   0.509288 0.906365 0.663542 0.303814
C16   C     C_R   0.390778 0.500921 0.500544 0.864416
C17   C     C_R   0.609222 0.499083 0.499457 0.864412
C18   C     C_R   0.469549 0.144091 0.283986 -0.152301
C19   C     C_R   0.530453 0.855907 0.716013 -0.152302
C20   C     C_R   0.418735 0.213444 0.285603 -0.184759
C21   C     C_R   0.581267 0.786551 0.714395 -0.184762
C22   C     C_R   0.482215 0.931385 0.450641 -0.153721
C23   C     C_R   0.239096 0.533339 0.450304 0.436132
C24   C     C_R   0.517787 0.068614 0.549358 -0.153720
C25   C     C_R   0.500929 0.871848 0.501936 -0.081462
C26   C     C_R   0.499072 0.128152 0.498064 -0.081463
C27   C     C_R   0.518545 0.941338 0.552354 0.065963
C28   C     C_R   0.481456 0.058662 0.447645 0.065962
C29   C     C_R   0.505070 0.387901 0.871484 0.689396
C30   C     C_R   0.494924 0.612098 0.128516 0.689396
C31   C     C_R   0.507611 0.605846 0.873314 0.683749
C32   C     C_R   0.492387 0.394153 0.126687 0.683747
C33   C     C_R   0.498965 0.610489 0.936710 -0.127163
C34   C     C_R   0.760906 0.466739 0.549696 0.436169
C35   C     C_R   0.501032 0.389510 0.063291 -0.127162
C36   C     C_R   0.501791 0.499208 0.968023 -0.093215
C37   C     C_R   0.498205 0.500790 0.031977 -0.093214
C38   C     C_R   0.508299 0.386397 0.935267 -0.148698
C39   C     C_R   0.491696 0.613602 0.064732 -0.148698
C40   C     C_R   0.877931 0.607658 0.507014 0.674075
C41   C     C_R   0.122066 0.392510 0.493003 0.674067
C42   C     C_R   0.485916 0.721611 0.969385 0.374767
C43   C     C_R   0.514080 0.278387 0.030615 0.374767
C44   C     C_R   0.481968 0.723091 0.032762 0.268218
C45   C     C_R   0.298364 0.533560 0.449997 -0.182939
C46   C     C_R   0.518027 0.276907 0.967238 0.268217
C47   C     C_R   0.541153 0.444770 0.252852 0.154014
C48   C     C_R   0.458846 0.555235 0.747147 0.154015
C49   C     C_R   0.541004 0.437949 0.316192 0.355513
C50   C     C_R   0.458997 0.562055 0.683808 0.355510
C51   C     C_R   0.456418 0.560640 0.323605 -0.039645
C52   C     C_R   0.543581 0.439358 0.676396 -0.039635
C53   C     C_R   0.452102 0.560234 0.260640 0.194183
C54   C     C_R   0.547896 0.439763 0.739360 0.194183
C55   C     C_R   0.495427 0.503583 0.224043 0.132585
C56   C     C_R   0.701639 0.466460 0.549999 -0.182907
C57   C     C_R   0.504571 0.496418 0.775957 0.132584
C58   C     C_R   0.882333 0.390606 0.488128 0.665503
C59   C     C_R   0.117666 0.609570 0.511861 0.665516
C60   C     C_R   0.941814 0.389468 0.489373 -0.076658
C61   C     C_R   0.058185 0.610710 0.510616 -0.076662
C62   C     C_R   0.969913 0.500592 0.499368 -0.048695
C63   C     C_R   0.030085 0.499585 0.500626 -0.048693
C64   C     C_R   0.937951 0.612355 0.508092 -0.110679
C65   C     C_R   0.062046 0.387819 0.491907 -0.110670
C66   C     C_R   0.973402 0.279280 0.481081 -0.128037
C67   C     C_R   0.328263 0.503297 0.501720 -0.170790
C68   C     C_R   0.026596 0.720900 0.518899 -0.128042
C69   C     C_R   0.032635 0.276967 0.482332 0.416973
C70   C     C_R   0.967362 0.723211 0.517653 0.416975
C71   C     C_R   0.671736 0.496746 0.498281 -0.170777
C72   C     C_R   0.298018 0.475472 0.554399 -0.179311
Cl1   Cl    Cl    0.466722 0.857960 0.931918 -0.353145
Cl2   Cl    Cl    0.533274 0.142039 0.068082 -0.353147
Cl3   Cl    Cl    0.066154 0.130644 0.471964 -0.399818
Cl4   Cl    Cl    0.933844 0.869540 0.527991 -0.399832
Cl5   Cl    Cl    0.203251 0.568694 0.384071 -0.417642
Cl6   Cl    Cl    0.796756 0.431325 0.615919 -0.417641
Cl7   Cl    Cl    0.323650 0.315441 0.340833 -0.501264
Cl8   Cl    Cl    0.676349 0.684548 0.659165 -0.501284
Cu1   Cu    Cu3+1 0.500000 0.499970 0.559570 1.011921
Cu2   Cu    Cu3+1 0.500000 0.500030 0.440430 1.011919
H1    H     H_    0.952024 0.193375 0.473674 0.239381
H2    H     H_    0.679022 0.442694 0.590756 0.214634
H3    H     H_    0.320373 0.452278 0.594817 0.218142
H4    H     H_    0.679619 0.547843 0.405196 0.218132
H5    H     H_    0.402599 0.251671 0.244681 0.232577
H6    H     H_    0.597402 0.748323 0.755317 0.232576
H7    H     H_    0.385415 0.197112 0.434383 0.169838
H8    H     H_    0.614586 0.802883 0.565615 0.169831
H9    H     H_    0.047975 0.806810 0.526293 0.239377
H10   H     H_    0.492509 0.128800 0.241800 0.259711
H11   H     H_    0.507493 0.871198 0.758199 0.259711
H12   H     H_    0.467395 0.878479 0.412397 0.177646
H13   H     H_    0.532607 0.121520 0.587602 0.177644
H14   H     H_    0.423648 0.607558 0.350826 0.182454
H15   H     H_    0.576351 0.392438 0.649175 0.182455
H16   H     H_    0.320985 0.557256 0.409232 0.214662
N1    N     N_R   0.851953 0.498262 0.497056 -0.458977
N2    N     N_R   0.148045 0.501907 0.502951 -0.458976
N3    N     N_R   0.506824 0.496364 0.841581 -0.439472
N4    N     N_R   0.493173 0.503635 0.158419 -0.439472
N5    N     N_R   0.500010 0.500010 0.350920 -0.240046
N6    N     N_R   0.499990 0.499990 0.649080 -0.240044
O1    O     O_R   0.500000 0.319610 0.550310 -0.583019
O2    O     O_2   0.154685 0.289806 0.484014 -0.405067
O3    O     O_2   0.854837 0.284912 0.478239 -0.455722
O4    O     O_2   0.145163 0.715267 0.521736 -0.455719
O5    O     O_2   0.498216 0.282802 0.839583 -0.425971
O6    O     O_2   0.501777 0.717198 0.160416 -0.425973
O7    O     O_2   0.517026 0.709524 0.843357 -0.486136
O8    O     O_2   0.482975 0.290474 0.156644 -0.486139
O9    O     O_R   0.500000 0.680390 0.449690 -0.583023
O10   O     O_R   0.499990 0.319670 0.449690 -0.554008
O11   O     O_R   0.500010 0.680330 0.550310 -0.554006
O12   O     O_R   0.417880 0.499930 0.550320 -0.544056
O13   O     O_R   0.582120 0.500070 0.449680 -0.544052
O14   O     O_R   0.417880 0.499990 0.449700 -0.598061
O15   O     O_R   0.582120 0.500010 0.550300 -0.598056
O16   O     O_2   0.845310 0.710350 0.516035 -0.405054

loop_
_geom_bond_atom_site_label_1
_geom_bond_atom_site_label_2
_ccdc_geom_bond_type
C18   C20   A    
C51   C53   A    
Cu1   Cu2   S    
C52   N6    A    
C22   C25   A    
C19   H11   S    
C45   C67   A    
Br11  C50   S    
C35   C37   A    
C17   O15   A    
C50   N6    A    
C8    Cl8   S    
C57   N3    S    
Cu2   O14   S    
C62   C64   A    
C59   O4    S    
C22   C28   A    
C72   H3    S    
C7    C9    A    
C55   N4    S    
C17   C71   S    
Br8   C47   S    
C67   C72   A    
Cu2   O9    S    
C54   C57   A    
C11   C28   S    
C48   C50   A    
C39   C44   A    
C11   C14   A    
C29   O5    S    
C16   C67   S    
C60   C66   A    
C47   C55   A    
Br5   C15   S    
C30   N4    A    
C17   O13   A    
C37   C39   A    
C10   C13   A    
C49   N5    A    
C12   O11   A    
C19   C21   A    
C58   O3    S    
Br7   C46   S    
C32   C35   A    
C30   C39   A    
C51   N5    A    
C36   C38   A    
C32   N4    A    
C24   H13   S    
C61   C63   A    
Cu1   O1    S    
C2    C71   A    
C7    C20   A    
C6    C34   A    
C2    H4    S    
Cu2   O10   S    
C42   C44   A    
C47   C49   A    
Cu2   O13   S    
C62   C63   A    
C68   H9    S    
C15   C19   A    
C40   O16   S    
C6    N1    S    
C60   C62   A    
C64   C70   A    
C59   C61   A    
C41   O2    S    
C40   N1    A    
C53   C55   A    
C32   O8    S    
Cu1   N6    S    
C52   C54   A    
Br4   C4    S    
C41   C65   A    
Cu1   O11   S    
C34   C56   A    
C31   C33   A    
C45   H16   S    
C65   C69   A    
C66   H1    S    
C59   N2    A    
C12   C25   S    
C38   C46   A    
C56   H2    S    
C63   C65   A    
C1    C26   S    
C69   Cl3   S    
C1    O10   A    
C23   Cl5   S    
C41   N2    A    
C68   C70   A    
C36   C37   A    
C8    C10   A    
C33   C42   A    
C14   C18   A    
C9    C11   A    
C40   C64   A    
Br1   C14   S    
C2    C4    A    
Br10  C49   S    
C8    C21   A    
C5    N2    S    
C31   O7    S    
C29   C38   A    
Br3   C3    S    
C30   O6    S    
C35   C43   A    
C33   C36   A    
C3    C5    A    
C56   C71   A    
C24   C27   A    
Br6   C44   S    
Br2   C54   S    
C42   Cl1   S    
C1    O1    A    
Cu2   N5    S    
C3    C72   A    
C34   Cl6   S    
C13   C15   A    
Br12  C53   S    
C10   H8    S    
C20   H5    S    
C23   C45   A    
Br9   C48   S    
C21   H6    S    
C43   Cl2   S    
C24   C26   A    
Cu1   O12   S    
C9    H7    S    
C25   C27   A    
C31   N3    A    
C26   C28   A    
C66   C69   A    
C52   H15   S    
C12   O9    A    
C48   C57   A    
C70   Cl4   S    
C29   N3    A    
C61   C68   A    
C22   H12   S    
C16   O14   A    
C7    Cl7   S    
C58   N1    A    
C4    C6    A    
C43   C46   A    
C18   H10   S    
C58   C60   A    
C5    C23   A    
C51   H14   S    
Cu1   O15   S    
C13   C27   S    
C16   O12   A    
