data_mof_unit_26229.cif
_audit_creation_date              2013-03-05T15:42:25-0500
_audit_creation_method            fapswitch 2.2
_symmetry_space_group_name_H-M    P1
_symmetry_Int_Tables_number       1
_space_group_crystal_system       triclinic
_cell_length_a                    11.06661
_cell_length_b                    10.970025
_cell_length_c                    18.827891
_cell_angle_alpha                 89.983689
_cell_angle_beta                  89.467508
_cell_angle_gamma                 59.977148
_cell_volume                      1978.92894697

loop_
_atom_site_label
_atom_site_type_symbol
_atom_site_description
_atom_site_fract_x
_atom_site_fract_y
_atom_site_fract_z
_atom_type_partial_charge
O1    O     O_R   0.507340 0.255690 0.581430 -0.522960
O2    O     O_R   0.280360 0.527380 0.578910 -0.511560
C1    C     C_R   0.239911 0.644240 0.610918 0.532522
O3    O     O_R   0.260600 0.739610 0.584580 -0.526267
O4    O     O_R   0.532370 0.695050 0.573830 -0.504355
C2    C     C_R   0.653051 0.622318 0.600974 0.548647
O5    O     O_R   0.744850 0.503430 0.576380 -0.530027
O6    O     O_R   0.699080 0.276500 0.571950 -0.524038
C3    C     C_R   0.627348 0.229447 0.603303 0.527382
O7    O     O_R   0.498860 0.256520 0.419860 -0.538591
O8    O     O_R   0.272490 0.528150 0.429140 -0.505040
C4    C     C_R   0.224220 0.652147 0.400913 0.538269
O9    O     O_R   0.252110 0.740440 0.423010 -0.516637
O10   O     O_R   0.524510 0.695820 0.424050 -0.499687
C5    C     C_R   0.618187 0.588354 0.385673 0.548254
O11   O     O_R   0.736370 0.504260 0.414810 -0.521073
O12   O     O_R   0.691220 0.277270 0.422180 -0.538907
C6    C     C_R   0.611015 0.233845 0.393787 0.533366
Cr1   Cr    Cr6+3 0.392940 0.397950 0.502230 0.986221
Cr2   Cr    Cr6+3 0.398400 0.708500 0.501260 1.016711
Cr3   Cr    Cr6+3 0.708640 0.393530 0.496460 0.978741
O13   O     O_3   0.499990 0.499990 0.499980 -0.261924
C7    C     C_3   0.578694 0.815478 0.781202 -0.227043
H1    H     H_    0.599581 0.903568 0.790118 0.150444
H2    H     H_    0.478773 0.843155 0.808871 0.114413
C8    C     C_3   0.563415 0.800811 0.700854 -0.241700
H3    H     H_    0.454742 0.827039 0.689923 0.128027
H4    H     H_    0.582536 0.877438 0.671165 0.120276
H5    H     H_    0.861623 0.724041 0.776613 0.128499
H6    H     H_    0.838235 0.694608 0.658126 0.112234
C9    C     C_3   0.834949 0.639519 0.769264 -0.218116
C10   C     C_3   0.664854 0.557554 0.800873 -0.251532
C11   C     C_3   0.699935 0.675413 0.811734 0.051175
H7    H     H_    0.750817 0.455859 0.821114 0.131223
H8    H     H_    0.568182 0.582073 0.830986 0.112374
C12   C     C_3   0.668917 0.648638 0.676283 0.053552
C13   C     C_3   0.817621 0.621175 0.689861 -0.246021
C14   C     C_3   0.644052 0.543416 0.721314 -0.212785
H9    H     H_    0.536591 0.562446 0.712696 0.129229
H10   H     H_    0.717817 0.433320 0.704333 0.152548
H11   H     H_    0.923319 0.540252 0.789418 0.169267
H12   H     H_    0.895298 0.512027 0.673357 0.144445
H13   H     H_    0.446857 0.243194 0.699952 0.169632
C15   C     C_R   0.687086 0.167169 0.826133 -0.013496
C16   C     C_R   0.802140 0.148144 0.783822 0.020514
C17   C     C_R   0.791971 0.146279 0.708584 0.015319
C18   C     C_R   0.548049 0.213037 0.721320 -0.158872
C19   C     C_R   0.559574 0.208753 0.793632 -0.164187
C20   C     C_R   0.926600 0.130778 0.813455 -0.089918
C21   C     C_R   0.041224 0.100334 0.770324 -0.134115
C22   C     C_R   0.034564 0.087088 0.697388 -0.132749
C23   C     C_R   0.912291 0.106950 0.667016 -0.091290
C24   C     C_R   0.661830 0.183202 0.677378 -0.011555
H14   H     H_    0.936068 0.145525 0.869322 0.136722
H15   H     H_    0.469373 0.227242 0.824436 0.152092
H16   H     H_    0.137378 0.082037 0.793784 0.089905
H17   H     H_    0.125130 0.059369 0.664168 0.101814
H18   H     H_    0.914261 0.087114 0.611251 0.117101
H19   H     H_    0.251522 0.821919 0.702226 0.136397
C25   C     C_R   0.193440 0.657105 0.837271 -0.008156
C26   C     C_R   0.196631 0.543652 0.799533 0.023729
C27   C     C_R   0.189478 0.548411 0.724188 0.019111
C28   C     C_R   0.227579 0.748373 0.727576 -0.149654
C29   C     C_R   0.220243 0.751444 0.800759 -0.155490
C30   C     C_R   0.206086 0.426018 0.835112 -0.101475
C31   C     C_R   0.195274 0.322338 0.798211 -0.148680
C32   C     C_R   0.171650 0.335217 0.725539 -0.159457
C33   C     C_R   0.167038 0.447747 0.688797 -0.118165
C34   C     C_R   0.206341 0.652709 0.687629 -0.002057
H20   H     H_    0.228614 0.409496 0.891204 0.124156
H21   H     H_    0.228263 0.833254 0.828734 0.132197
H22   H     H_    0.205262 0.232481 0.826689 0.103563
H23   H     H_    0.158887 0.257056 0.697081 0.114538
H24   H     H_    0.142126 0.455390 0.633159 0.136024
H25   H     H_    0.513291 0.836006 0.317982 0.133278
C35   C     C_R   0.639428 0.660247 0.162067 0.024058
C36   C     C_R   0.695137 0.520812 0.186223 0.055422
C37   C     C_R   0.707302 0.494687 0.260482 0.058450
C38   C     C_R   0.564665 0.746455 0.282423 -0.109189
C39   C     C_R   0.577119 0.771195 0.211167 -0.082227
C40   C     C_R   0.763282 0.406702 0.138222 -0.082048
C41   C     C_R   0.872575 0.279539 0.161303 -0.084898
C42   C     C_R   0.900567 0.259060 0.233241 -0.109302
C43   C     C_R   0.811725 0.359219 0.282569 -0.067633
C44   C     C_R   0.629263 0.609112 0.308671 0.009479
H26   H     H_    0.743332 0.420344 0.081739 0.097642
H27   H     H_    0.543570 0.878262 0.195052 0.151085
H28   H     H_    0.935222 0.196647 0.123616 0.121634
H29   H     H_    0.983785 0.159890 0.251502 0.108030
H30   H     H_    0.835605 0.328221 0.336863 0.167771
H31   H     H_    0.844553 0.077962 0.321622 0.109599
C45   C     C_R   0.652557 0.153421 0.175470 0.013676
C46   C     C_R   0.517287 0.226785 0.204335 0.014771
C47   C     C_R   0.502128 0.221947 0.278167 0.042447
C48   C     C_R   0.753784 0.110199 0.291091 -0.169876
C49   C     C_R   0.768507 0.085220 0.219744 -0.107669
C50   C     C_R   0.397760 0.290546 0.160979 -0.111848
C51   C     C_R   0.269743 0.316804 0.187482 -0.114029
C52   C     C_R   0.256643 0.292746 0.258661 -0.145044
C53   C     C_R   0.369233 0.249742 0.303971 -0.099900
C54   C     C_R   0.623225 0.183375 0.321242 0.011669
H32   H     H_    0.404164 0.312203 0.105408 0.119126
H33   H     H_    0.873287 0.017932 0.199103 0.167574
H34   H     H_    0.181347 0.354085 0.152465 0.164599
H35   H     H_    0.158389 0.308547 0.279509 0.156511
H36   H     H_    0.349309 0.229085 0.357259 0.148148
H37   H     H_    0.067274 0.564297 0.338727 0.148336
C55   C     C_R   0.145463 0.671844 0.184816 -0.025732
C56   C     C_R   0.218130 0.735494 0.212538 -0.021829
C57   C     C_R   0.196176 0.776214 0.284551 0.019377
C58   C     C_R   0.106117 0.615340 0.303378 -0.131959
C59   C     C_R   0.077896 0.625348 0.231907 0.194850
C60   C     C_R   0.284102 0.785886 0.166667 -0.087006
C61   C     C_R   0.282916 0.908610 0.183303 -0.132152
C62   C     C_R   0.243327 0.965150 0.250665 -0.156193
C63   C     C_R   0.202938 0.901203 0.303596 0.027725
C64   C     C_R   0.166883 0.688292 0.330484 -0.046790
H38   H     H_    0.316848 0.743140 0.113535 0.112481
H39   H     H_    0.314897 0.959320 0.144048 0.118218
H40   H     H_    0.241922 0.062299 0.260698 0.109462
O14   O     O_R   0.089570 0.825450 0.930590 -0.526347
O15   O     O_R   0.818700 0.054260 0.929860 -0.514185
C65   C     C_R   0.702172 0.104347 0.896919 0.529101
O16   O     O_R   0.606310 0.077010 0.915520 -0.535602
O17   O     O_R   0.646730 0.806540 0.917560 -0.515673
C66   C     C_R   0.724975 0.688765 0.887754 0.533861
O18   O     O_R   0.837290 0.593240 0.915240 -0.538460
O19   O     O_R   0.065320 0.635310 0.931580 -0.519865
C67   C     C_R   0.121757 0.703238 0.906729 0.528596
O20   O     O_R   0.068470 0.828620 0.091850 -0.529240
O21   O     O_R   0.799150 0.057200 0.079350 -0.517759
C68   C     C_R   0.675185 0.106623 0.103192 0.543468
O22   O     O_R   0.585220 0.080180 0.076770 -0.521915
O23   O     O_R   0.627170 0.809480 0.067050 -0.511241
C69   C     C_R   0.691817 0.687031 0.094982 0.576020
O24   O     O_R   0.816200 0.596410 0.076500 -0.469016
O25   O     O_R   0.045770 0.638240 0.081070 -0.475313
C70   C     C_R   0.092801 0.708715 0.112746 0.555475
Cr4   Cr    Cr6+3 0.937880 0.938320 0.007620 0.996281
Cr5   Cr    Cr6+3 0.625560 0.937220 0.994510 0.999612
Cr6   Cr    Cr6+3 0.938080 0.625010 0.001190 1.027049
O26   O     O_3   0.833840 0.833520 0.001110 -0.234857
N1    N     N_R   0.956736 0.623132 0.211255 0.089433
O27   O     O_R   0.844217 0.743671 0.201784 -0.360772
O28   O     O_R   0.947849 0.511802 0.223726 -0.388052
C71   C     C_R   0.149603 0.985648 0.371186 0.059742
C72   C     C_R   0.216944 0.054928 0.399686 -0.092398
C73   C     C_R   0.163980 0.140060 0.460165 -0.134712
C74   C     C_R   0.045198 0.154414 0.494294 -0.101769
C75   C     C_R   0.982480 0.079977 0.469082 -0.088361
C76   C     C_R   0.034491 0.995935 0.408679 -0.083455
H41   H     H_    0.311928 0.041496 0.375744 0.086873
H42   H     H_    0.215568 0.194200 0.480725 0.102558
H43   H     H_    0.003688 0.220814 0.540940 0.116692
H44   H     H_    0.893218 0.085891 0.495798 0.132084
H45   H     H_    0.988401 0.933437 0.393413 0.099006

loop_
_geom_bond_atom_site_label_1
_geom_bond_atom_site_label_2
_geom_bond_distance
_ccdc_geom_bond_type
C19   H15   1.077333 S    
C63   C71   1.505166 S    
C66   O18   1.272441 A    
C46   C50   1.413923 A    
C48   C49   1.362936 A    
C30   C31   1.388813 A    
O19   C67   1.274523 A    
C50   C51   1.384776 A    
C69   O24   1.275169 A    
O4    Cr2   1.976202 S    
C16   C17   1.423036 A    
O8    Cr1   1.959175 S    
C8    H3    1.108962 S    
O11   Cr3   2.072720 S    
C59   N1    1.411356 S    
C12   C13   1.541402 S    
C1    C34   1.479270 S    
Cr5   O26   2.000926 S    
O15   Cr4   1.963883 S    
C60   C61   1.375959 A    
C39   H27   1.083937 S    
C72   H41   1.079842 S    
O23   Cr5   1.950308 S    
O4    C2    1.275758 A    
Cr4   O26   1.997419 S    
C41   H28   1.082301 S    
C29   H21   1.082393 S    
C33   H24   1.078224 S    
C20   H14   1.078280 S    
C51   C52   1.386058 A    
C17   C23   1.406273 A    
C45   C49   1.400001 A    
C55   C56   1.405912 A    
O18   Cr6   2.099338 S    
C7    C8    1.541151 S    
C13   H12   1.111047 S    
C45   C46   1.401254 A    
Cr6   O26   1.980485 S    
C31   H22   1.078490 S    
C72   C73   1.397414 A    
C47   C54   1.444048 A    
C68   O22   1.273251 A    
C7    C11   1.562819 S    
C18   C19   1.367237 A    
C7    H1    1.113456 S    
C9    C11   1.554393 S    
C22   H17   1.082438 S    
C10   C14   1.537240 S    
O19   Cr6   1.959101 S    
C61   H39   1.082995 S    
O9    Cr2   2.095393 S    
C56   C60   1.405844 A    
C18   C24   1.394814 A    
C60   H38   1.084170 S    
C31   C32   1.389260 A    
Cr3   O13   1.999671 S    
C26   C27   1.421006 A    
C43   H30   1.070212 S    
C42   H29   1.073748 S    
O20   Cr4   2.086366 S    
C57   C64   1.445845 A    
C28   C34   1.404565 A    
C8    H4    1.113266 S    
C35   C69   1.474592 S    
C25   C29   1.390895 A    
C61   C62   1.379629 A    
O17   Cr5   1.966677 S    
C52   H35   1.081633 S    
O1    Cr1   2.078101 S    
C5    O11   1.291588 A    
C32   C33   1.393617 A    
C10   H8    1.113200 S    
O10   Cr2   1.961749 S    
C65   O16   1.284297 A    
Cr1   O13   1.996082 S    
O1    C3    1.282098 A    
C73   C74   1.393870 A    
O6    C3    1.283054 A    
C40   C41   1.385190 A    
C21   C22   1.387461 A    
C36   C37   1.421169 A    
O12   Cr3   1.967666 S    
C55   C59   1.405144 A    
H6    C13   1.113136 S    
C9    C13   1.535050 S    
C25   C26   1.418152 A    
C6    C54   1.453457 S    
C10   H7    1.113227 S    
C30   H20   1.081634 S    
C74   H43   1.082102 S    
O24   Cr6   2.077469 S    
C26   C30   1.410892 A    
C42   C43   1.392497 A    
C47   C53   1.424792 A    
O7    Cr1   2.081821 S    
O8    C4    1.302233 A    
O12   C6    1.316294 A    
C46   C47   1.402811 A    
C76   H45   1.079633 S    
C35   C36   1.409885 A    
C2    O5    1.270102 A    
C23   H18   1.070106 S    
C32   H23   1.079383 S    
C37   C44   1.430360 A    
C8    C12   1.550455 S    
Cr2   O13   1.980585 S    
C20   C21   1.391813 A    
C75   H44   1.076890 S    
O17   C66   1.267217 A    
C38   C39   1.387926 A    
C3    C24   1.471001 S    
C73   H42   1.082615 S    
C1    O3    1.276782 A    
O20   C70   1.266771 A    
C57   C63   1.455217 A    
C38   C44   1.397722 A    
C15   C16   1.419401 A    
C71   C72   1.412573 A    
N1    O28   1.294593 A    
O25   Cr6   1.977326 S    
C9    H11   1.107792 S    
C58   C59   1.376141 A    
C45   C68   1.429539 S    
O2    Cr1   1.962160 S    
O10   C5    1.322946 A    
H37   C58   1.084721 S    
O16   Cr5   2.070386 S    
C40   H26   1.083178 S    
O14   C67   1.282803 A    
C28   C29   1.378939 A    
O6    Cr3   1.952339 S    
C25   C67   1.474772 S    
C35   C39   1.400141 A    
C62   H40   1.074792 S    
O23   C69   1.279726 A    
C27   C33   1.415286 A    
C53   H36   1.073469 S    
O25   C70   1.277888 A    
C15   C65   1.472250 S    
H19   C28   1.077166 S    
C52   C53   1.390732 A    
C5    C44   1.480959 S    
C58   C64   1.377790 A    
C10   C11   1.538862 S    
O14   Cr4   2.080943 S    
C12   C14   1.562013 S    
N1    O27   1.298900 A    
C22   C23   1.387355 A    
H5    C9    1.113871 S    
C15   C19   1.394827 A    
O5    Cr3   2.091398 S    
C74   C75   1.395485 A    
C14   H10   1.111777 S    
C62   C63   1.410726 A    
C14   H9    1.113243 S    
H13   C18   1.078387 S    
O7    C6    1.234160 A    
C51   H34   1.081838 S    
C17   C24   1.419626 A    
C11   C66   1.481533 S    
C2    C12   1.476568 S    
C16   C20   1.412909 A    
O2    C1    1.275992 A    
C7    H2    1.113442 S    
O21   C68   1.273526 A    
C36   C40   1.412724 A    
C21   H16   1.078263 S    
O21   Cr4   1.959745 S    
H31   C48   1.058135 S    
C71   C76   1.404748 A    
O3    Cr2   2.082790 S    
C37   C43   1.416648 A    
C4    O9    1.228111 A    
C27   C34   1.424274 A    
O22   Cr5   2.084570 S    
C41   C42   1.385253 A    
C49   H33   1.084316 S    
C75   C76   1.389985 A    
C4    C64   1.442845 S    
O15   C65   1.286534 A    
C56   C57   1.408017 A    
H25   C38   1.082101 S    
C50   H32   1.082356 S    
C48   C54   1.370619 A    
C55   C70   1.457047 S    
