data_mof_unit_17069.cif
_audit_creation_date              2012-12-10T19:35:27-0500
_audit_creation_method            fapswitch 2.2
_symmetry_space_group_name_H-M    P1
_symmetry_Int_Tables_number       1
_space_group_crystal_system       triclinic
_cell_length_a                    13.367715
_cell_length_b                    15.901361
_cell_length_c                    17.036202
_cell_angle_alpha                 82.892944
_cell_angle_beta                  91.163528
_cell_angle_gamma                 110.665913
_cell_volume                      3361.18510621

loop_
_atom_site_label
_atom_site_type_symbol
_atom_type_description
_atom_site_fract_x
_atom_site_fract_y
_atom_site_fract_z
_atom_type_partial_charge
C1    C     C_R   0.502692 0.511462 0.348635 0.969649
C2    C     C_R   0.820777 0.576938 0.514751 -0.131885
C3    C     C_R   0.512800 0.519866 0.262309 -0.332155
C4    C     C_R   0.703343 0.547846 0.504548 0.894260
C5    C     C_R   0.597040 0.502318 0.227077 -0.219455
C6    C     C_R   0.598351 0.499371 0.145129 0.359687
C7    C     C_R   0.520461 0.519605 0.098120 0.096723
C8    C     C_R   0.439544 0.542318 0.132667 0.372424
C9    C     C_R   0.434844 0.540543 0.215342 0.362684
C10   C     C_R   0.390751 0.413240 0.860897 0.490042
C11   C     C_R   0.405661 0.414576 0.779567 -0.446301
C12   C     C_R   0.981658 0.538532 0.527502 -0.051219
C13   C     C_R   0.461664 0.481364 0.900703 0.226191
C14   C     C_R   0.489776 0.484048 0.737448 -0.129996
C15   C     C_R   0.558987 0.555344 0.775756 0.523244
C16   C     C_R   0.496983 0.488887 0.651379 0.893181
C17   C     C_R   0.542722 0.553904 0.857280 -0.376227
C18   C     C_R   0.536591 0.259714 0.451973 -0.075324
C19   C     C_R   0.530587 0.169077 0.452767 -0.394588
C20   C     C_R   0.469124 0.101509 0.511962 0.232543
C21   C     C_R   0.415012 0.127668 0.568363 0.250105
C22   C     C_R   0.431881 0.221002 0.570406 0.614252
C23   C     C_R   0.871417 0.514682 0.544005 -0.155654
C24   C     C_R   0.465669 0.827740 0.550230 -0.146786
C25   C     C_R   0.466431 0.738887 0.550467 0.019433
C26   C     C_R   0.509746 0.894026 0.483857 0.205704
C27   C     C_R   0.559594 0.779485 0.427035 0.009614
C28   C     C_R   0.295752 0.450927 0.503284 0.822622
C29   C     C_R   0.553606 0.867245 0.421264 0.316566
C30   C     C_R   0.014586 0.316198 0.584148 -0.248021
C31   C     C_R   0.178130 0.419916 0.516598 -0.216952
C32   C     C_R   0.884362 0.667281 0.489584 -0.263788
C33   C     C_R   0.996133 0.696667 0.492609 -0.121544
C34   C     C_R   0.026308 0.469164 0.532700 -0.081860
C35   C     C_R   0.045038 0.632247 0.514536 0.519385
C36   C     C_2   0.161324 0.259522 0.574386 0.941353
C37   C     C_3   0.212292 0.355228 0.888061 -0.256943
C38   C     C_3   0.403852 0.647190 0.042854 -0.274276
C39   C     C_3   0.356482 0.642906 0.238817 -0.206665
C40   C     C_3   0.729381 0.667702 0.770904 -0.251157
C41   C     C_3   0.646109 0.392751 0.094516 -0.173652
C42   C     C_2   0.686915 0.491222 0.274578 0.932746
C43   C     C_2   0.422548 0.847848 0.621682 0.890231
C44   C     C_3   0.245843 0.032206 0.599766 -0.160608
C45   C     C_R   0.967490 0.382565 0.572412 -0.017530
C46   C     C_3   0.745979 0.221402 0.598279 -0.239839
C47   C     C_3   0.421866 0.216488 0.706231 -0.122230
C48   C     C_2   0.621758 0.761491 0.364664 0.977332
C49   C     C_3   0.520302 0.938060 0.304900 -0.209522
C50   C     C_3   0.121998 0.532683 0.366385 -0.235170
C51   C     C_3   0.162366 0.657009 0.614698 -0.240767
C52   C     C_2   0.060884 0.794507 0.472089 0.886924
C53   C     C_2   0.730524 0.424395 0.649112 0.930975
C54   C     C_R   0.863692 0.364037 0.602507 0.438661
C55   C     C_R   0.818360 0.432174 0.593076 -0.178629
C56   C     C_R   0.126281 0.482518 0.496473 0.505180
C57   C     C_R   0.119130 0.334093 0.558103 -0.192274
Cu1   Cu    Cu3+1 0.505120 0.585970 0.496130 1.032779
Cu2   Cu    Cu3+1 0.494880 0.414030 0.503870 1.031803
H1    H     H_    0.591717 0.609968 0.887062 0.179873
H2    H     H_    0.214580 0.421620 0.904308 0.165908
H3    H     H_    0.148905 0.301366 0.925365 0.200984
H4    H     H_    0.435593 0.641921 0.984742 0.191197
H5    H     H_    0.467322 0.697331 0.073838 0.125448
H6    H     H_    0.338516 0.674460 0.030978 0.181613
H7    H     H_    0.289859 0.648361 0.201093 0.176943
H8    H     H_    0.433091 0.691137 0.210867 0.159092
H9    H     H_    0.347672 0.665173 0.296671 0.194386
H10   H     H_    0.755036 0.616417 0.807886 0.171172
H11   H     H_    0.719399 0.717873 0.807045 0.164373
H12   H     H_    0.430278 0.688516 0.600202 0.149254
H13   H     H_    0.794658 0.705165 0.726763 0.184480
H14   H     H_    0.715966 0.377736 0.074921 0.184438
H15   H     H_    0.587723 0.380834 0.046083 0.168269
H16   H     H_    0.610638 0.344614 0.148391 0.163958
H17   H     H_    0.800181 0.540893 0.353234 0.322014
H18   H     H_    0.302182 0.871621 0.672609 0.334831
H19   H     H_    0.239759 0.003720 0.542641 0.176460
H20   H     H_    0.212642 0.087371 0.594506 0.221873
H21   H     H_    0.195708 0.977487 0.644403 0.176353
H22   H     H_    0.794740 0.206815 0.553267 0.156916
H23   H     H_    0.572061 0.152112 0.406704 0.211975
H24   H     H_    0.686221 0.247451 0.568454 0.176225
H25   H     H_    0.701338 0.156506 0.634842 0.201190
H26   H     H_    0.489464 0.191156 0.703162 0.155188
H27   H     H_    0.352265 0.162568 0.737708 0.195164
H28   H     H_    0.450228 0.272652 0.742796 0.186609
H29   H     H_    0.644878 0.760825 0.248180 0.330047
H30   H     H_    0.468356 0.871137 0.288183 0.161009
H31   H     H_    0.558916 0.981278 0.249777 0.187430
H32   H     H_    0.470567 0.971362 0.330803 0.163165
H33   H     H_    0.141718 0.476893 0.345010 0.188065
H34   H     H_    0.582292 0.310212 0.405168 0.194600
H35   H     H_    0.151981 0.593050 0.321460 0.188695
H36   H     H_    0.033694 0.514368 0.371097 0.145411
H37   H     H_    0.123594 0.586778 0.644681 0.122128
H38   H     H_    0.129075 0.703747 0.639003 0.157261
H39   H     H_    0.248155 0.678024 0.628837 0.181968
H40   H     H_    0.205935 0.890501 0.444240 0.328813
H41   H     H_    0.801949 0.551409 0.678057 0.288150
H42   H     H_    0.970760 0.249895 0.615323 0.197519
H43   H     H_    0.846727 0.715671 0.468925 0.254646
H44   H     H_    0.349325 0.362801 0.748792 0.198399
H45   H     H_    0.140591 0.249531 0.692808 0.287276
H46   H     H_    0.189562 0.349259 0.825252 0.140803
N1    N     N_2   0.531073 0.523269 0.015476 -0.209349
N2    N     N_2   0.448522 0.476582 0.983955 -0.148635
N3    N     N_R   0.487180 0.284900 0.509690 -0.217608
N4    N     N_2   0.455973 0.007057 0.516938 -0.144682
N5    N     N_2   0.523041 0.988864 0.478890 -0.201259
N6    N     N_R   0.512820 0.715120 0.490310 -0.234446
O1    O     O_R   0.504790 0.580580 0.382450 -0.564115
O2    O     O_R   0.163528 0.218680 0.651628 -0.742903
O3    O     O_3   0.310431 0.342424 0.902836 -0.556651
O4    O     O_3   0.360627 0.560762 0.087528 -0.529225
O5    O     O_3   0.349120 0.551323 0.251682 -0.562253
O6    O     O_3   0.634947 0.627703 0.729893 -0.547081
O7    O     O_3   0.681588 0.483826 0.109836 -0.538697
O8    O     O_2   0.718772 0.429481 0.266527 -0.594647
O9    O     O_R   0.737206 0.553306 0.326987 -0.760292
O10   O     O_2   0.469313 0.846952 0.684017 -0.593882
O11   O     O_R   0.325595 0.862754 0.618973 -0.721741
O12   O     O_R   0.496140 0.435390 0.388990 -0.600476
O13   O     O_3   0.351931 0.062365 0.625837 -0.585134
O14   O     O_3   0.810850 0.282240 0.648180 -0.572442
O15   O     O_3   0.389445 0.248139 0.631989 -0.546452
O16   O     O_2   0.699388 0.740302 0.381773 -0.568236
O17   O     O_R   0.596006 0.774593 0.285367 -0.795248
O18   O     O_3   0.601105 0.930188 0.356810 -0.549006
O19   O     O_3   0.172286 0.554705 0.438489 -0.531238
O20   O     O_3   0.152708 0.661818 0.531727 -0.498394
O21   O     O_2   0.017468 0.850989 0.466214 -0.594885
O22   O     O_R   0.171367 0.822522 0.458408 -0.690141
O23   O     O_R   0.657420 0.608020 0.495150 -0.534737
O24   O     O_2   0.656809 0.352514 0.664284 -0.547042
O25   O     O_R   0.733092 0.497450 0.688005 -0.763498
O26   O     O_R   0.648770 0.462830 0.501690 -0.596708
O27   O     O_R   0.503860 0.564610 0.611010 -0.582555
O28   O     O_R   0.495210 0.419420 0.617550 -0.524173
O29   O     O_R   0.351230 0.537170 0.498310 -0.541159
O30   O     O_R   0.342580 0.391980 0.504850 -0.546581
O31   O     O_2   0.189605 0.230027 0.519360 -0.551272

loop_
_geom_bond_atom_site_label_1
_geom_bond_atom_site_label_2
_ccdc_geom_bond_type
C27   C48   S    
C51   H38   S    
C5    C42   S    
C34   C56   A    
C27   C29   A    
C39   H9    S    
C46   O14   S    
C19   C20   A    
C53   O24   D    
C49   H31   S    
C13   N2    S    
C37   H3    S    
C30   C45   A    
C7    C8    A    
Cu1   O23   S    
C33   C52   S    
C12   C23   A    
H17   O9    S    
C40   H11   S    
Cu1   O1    S    
C47   H26   S    
C24   C26   A    
C1    O1    A    
C5    C6    A    
C11   C14   A    
C50   H36   S    
C22   O15   S    
C48   O17   S    
N1    N2    D    
Cu2   O26   S    
C30   C57   A    
H40   O22   S    
C2    C32   A    
C18   C19   A    
C36   O31   D    
H18   O11   S    
C50   O19   S    
C8    O4    S    
C4    O26   A    
C29   O18   S    
C8    C9    A    
C28   O29   A    
C25   H12   S    
C31   C56   A    
C19   H23   S    
C43   O10   D    
C10   O3    S    
C51   H37   S    
Cu1   O27   S    
C51   H39   S    
C40   O6    S    
C41   H15   S    
C27   N6    A    
C21   C22   A    
C52   O22   S    
C53   O25   S    
C49   H32   S    
C36   O2    S    
C38   H5    S    
C53   C55   S    
Cu2   O12   S    
C54   O14   S    
C40   H10   S    
Cu1   N6    S    
C52   O21   D    
C47   H27   S    
C44   H21   S    
C24   C25   A    
C36   C57   S    
C51   O20   S    
C50   H35   S    
C37   O3    S    
Cu1   Cu2   S    
C49   O18   S    
C44   O13   S    
C15   O6    S    
C1    C3    S    
C47   H28   S    
C2    C4    S    
C1    O12   A    
C37   H46   S    
C3    C9    A    
C41   H16   S    
C46   H22   S    
C38   H6    S    
Cu2   O28   S    
C7    N1    S    
C34   C45   A    
C12   C35   A    
C43   O11   S    
C46   H25   S    
C50   H33   S    
C45   C54   A    
C28   C31   S    
C41   O7    S    
C39   H7    S    
C14   C16   S    
C16   O28   A    
C12   C34   A    
C35   O20   S    
C47   O15   S    
C4    O23   A    
C38   H4    S    
Cu1   O29   S    
C24   C43   S    
C26   N5    S    
C54   C55   A    
C40   H13   S    
C9    O5    S    
C39   H8    S    
C44   H20   S    
C16   O27   A    
C49   H30   S    
C3    C5    A    
C10   C13   A    
C37   H2    S    
C23   C55   A    
C6    C7    A    
Cu2   N3    S    
C13   C17   A    
C20   N4    S    
C31   C57   A    
C21   O13   S    
C44   H19   S    
H29   O17   S    
N4    N5    D    
C32   C33   A    
C48   O16   D    
C38   O4    S    
C42   O9    S    
C22   N3    A    
C30   H42   S    
H45   O2    S    
C33   C35   A    
C32   H43   S    
C42   O8    D    
C18   N3    A    
C10   C11   A    
C25   N6    A    
C17   H1    S    
C41   H14   S    
C46   H24   S    
C20   C21   A    
Cu2   O30   S    
C26   C29   A    
C39   O5    S    
C2    C23   A    
C18   H34   S    
C14   C15   A    
C11   H44   S    
C28   O30   A    
C15   C17   A    
C6    O7    S    
C56   O19   S    
H41   O25   S    
