data_mof_unit_8693.cif
_audit_creation_date              2012-12-11T15:39:31-0500
_audit_creation_method            fapswitch 2.2
_symmetry_space_group_name_H-M    P1
_symmetry_Int_Tables_number       1
_space_group_crystal_system       triclinic
_cell_length_a                    17.340181
_cell_length_b                    24.197138
_cell_length_c                    15.095055
_cell_angle_alpha                 89.856329
_cell_angle_beta                  125.928172
_cell_angle_gamma                 90.058536
_cell_volume                      5128.65614502

loop_
_atom_site_label
_atom_site_type_symbol
_atom_type_description
_atom_site_fract_x
_atom_site_fract_y
_atom_site_fract_z
_atom_type_partial_charge
C1    C     C_R   0.351945 0.347582 0.908336 -0.135799
C2    C     C_R   0.433799 0.500654 0.635442 -0.010147
C3    C     C_R   0.189659 0.863383 0.002483 0.036635
C4    C     C_1   0.503136 0.399369 0.304856 -0.000570
C5    C     C_1   0.411190 0.400589 0.652278 0.006792
C6    C     C_1   0.003136 0.899369 0.304856 -0.000570
C7    C     C_1   0.911190 0.900589 0.652278 0.006792
C8    C     C_R   0.971397 0.001307 0.295933 -0.021769
C9    C     C_R   0.933799 0.000654 0.635442 -0.010147
C10   C     C_R   0.173836 0.500950 0.722857 0.068775
C11   C     C_R   0.802245 0.500720 0.367785 0.081016
C12   C     C_R   0.673836 0.000950 0.722857 0.068775
C13   C     C_R   0.302245 0.000720 0.367785 0.081016
C14   C     C_R   0.020825 0.552710 0.622956 0.165277
C15   C     C_R   0.926847 0.552424 0.533156 0.160121
C16   C     C_R   0.520825 0.052710 0.622956 0.165278
C17   C     C_R   0.690865 0.375973 0.093143 -0.125132
C18   C     C_R   0.426847 0.052424 0.533156 0.160121
C19   C     C_R   0.070786 0.502877 0.666495 0.033707
C20   C     C_R   0.880859 0.502410 0.484042 0.030665
C21   C     C_R   0.570786 0.002877 0.666495 0.033707
C22   C     C_R   0.380859 0.002410 0.484042 0.030665
C23   C     C_R   0.017514 0.453735 0.636477 -0.197253
C24   C     C_R   0.922351 0.453435 0.544620 -0.204406
C25   C     C_R   0.517514 0.953735 0.636477 -0.197253
C26   C     C_R   0.422351 0.953434 0.544620 -0.204406
C27   C     C_3   0.939032 0.603241 0.485770 -0.519346
C28   C     C_R   0.851945 0.847582 0.908336 -0.135799
C29   C     C_3   0.041821 0.603474 0.583326 -0.519800
C30   C     C_3   0.439032 0.103241 0.485770 -0.519346
C31   C     C_3   0.541821 0.103474 0.583326 -0.519801
C32   C     C_R   0.292035 0.769572 0.903641 -0.169347
C33   C     C_R   0.843509 0.686126 0.100164 -0.166740
C34   C     C_R   0.792035 0.269572 0.903641 -0.169347
C35   C     C_R   0.343509 0.186126 0.100164 -0.166740
C36   C     C_R   0.745240 0.315709 0.904321 -0.168234
C37   C     C_R   0.392179 0.231268 0.099415 -0.166309
C38   C     C_R   0.245240 0.815709 0.904321 -0.168234
C39   C     C_R   0.190865 0.875973 0.093143 -0.125132
C40   C     C_R   0.892179 0.731268 0.099415 -0.166309
C41   C     C_R   0.763506 0.333743 0.003262 0.141545
C42   C     C_R   0.360313 0.256857 0.999776 0.139428
C43   C     C_R   0.263506 0.833743 0.003262 0.141545
C44   C     C_R   0.860313 0.756857 0.999776 0.139428
C45   C     C_R   0.442779 0.651772 0.091318 -0.129603
C46   C     C_R   0.598373 0.624424 0.909213 -0.123394
C47   C     C_R   0.942779 0.151772 0.091318 -0.129603
C48   C     C_R   0.098373 0.124424 0.909213 -0.123394
C49   C     C_R   0.843456 0.313495 0.102234 -0.166413
C50   C     C_R   0.381970 0.684265 0.000738 0.048339
C51   C     C_R   0.292613 0.230067 0.901351 -0.168689
C52   C     C_R   0.343456 0.813495 0.102234 -0.166413
C53   C     C_R   0.792613 0.730067 0.901351 -0.168689
C54   C     C_R   0.390636 0.767567 0.101674 -0.169345
C55   C     C_R   0.744127 0.684767 0.902200 -0.169247
C56   C     C_R   0.890636 0.267567 0.101674 -0.169345
C57   C     C_R   0.244127 0.184767 0.902200 -0.169247
C58   C     C_R   0.358316 0.742092 0.002064 0.140460
C59   C     C_R   0.762513 0.666728 0.001385 0.141366
C60   C     C_R   0.858316 0.242092 0.002064 0.140460
C61   C     C_R   0.688669 0.637363 0.001305 0.038913
C62   C     C_R   0.262513 0.166728 0.001385 0.141365
C63   C     C_R   0.369260 0.527539 0.448076 -0.185527
C64   C     C_R   0.379727 0.528311 0.364095 -0.177501
C65   C     C_R   0.869260 0.027539 0.448075 -0.185526
C66   C     C_R   0.879727 0.028311 0.364095 -0.177501
C67   C     C_R   0.459513 0.502834 0.380816 0.155811
C68   C     C_R   0.438396 0.500735 0.545311 0.160571
C69   C     C_R   0.959513 0.002834 0.380816 0.155810
C70   C     C_R   0.938396 0.000735 0.545311 0.160571
C71   C     C_R   0.530465 0.478691 0.480270 -0.167898
C72   C     C_R   0.881970 0.184265 0.000738 0.048339
C73   C     C_R   0.519217 0.476939 0.562312 -0.172203
C74   C     C_R   0.030465 0.978691 0.480270 -0.167898
C75   C     C_R   0.019217 0.976939 0.562312 -0.172203
C76   C     C_R   0.494491 0.454528 0.263775 0.077940
C77   C     C_R   0.448686 0.454678 0.696484 0.045716
C78   C     C_R   0.994491 0.954528 0.263775 0.077940
C79   C     C_R   0.948686 0.954678 0.696484 0.045716
C80   C     C_R   0.232367 0.546550 0.753199 -0.145954
C81   C     C_R   0.753164 0.546076 0.303740 -0.159063
C82   C     C_R   0.732367 0.046550 0.753199 -0.145954
C83   C     C_R   0.188669 0.137363 0.001305 0.038913
C84   C     C_R   0.253164 0.046075 0.303740 -0.159063
C85   C     C_R   0.492083 0.547176 0.259906 -0.159927
C86   C     C_R   0.451007 0.546265 0.697579 -0.170765
C87   C     C_R   0.992083 0.047176 0.259906 -0.159927
C88   C     C_R   0.951007 0.046265 0.697579 -0.170765
C89   C     C_R   0.230286 0.454229 0.748466 -0.118010
C90   C     C_R   0.755354 0.454519 0.304470 -0.141274
C91   C     C_R   0.730286 0.954229 0.748466 -0.118010
C92   C     C_R   0.255354 0.954519 0.304470 -0.141274
C93   C     C_R   0.352325 0.652651 0.909496 -0.144294
C94   C     C_R   0.471397 0.501307 0.295933 -0.021769
C95   C     C_R   0.690606 0.624355 0.092577 -0.123472
C96   C     C_R   0.852325 0.152651 0.909496 -0.144294
C97   C     C_R   0.190606 0.124355 0.092577 -0.123472
C98   C     C_R   0.446325 0.346494 0.089387 -0.113958
C99   C     C_R   0.599500 0.376264 0.910089 -0.127931
C100  C     C_R   0.946325 0.846494 0.089387 -0.113958
C101  C     C_R   0.099500 0.876264 0.910089 -0.127931
C102  C     C_R   0.384023 0.314779 0.998755 0.036037
C103  C     C_R   0.689659 0.363383 0.002483 0.036635
C104  C     C_R   0.884023 0.814779 0.998755 0.036037
H1    H     H_    0.313382 0.334101 0.824379 0.091306
H2    H     H_    0.090786 0.595812 0.559749 0.199707
H3    H     H_    0.398205 0.138990 0.484583 0.193085
H4    H     H_    0.590786 0.095812 0.559749 0.199707
H5    H     H_    0.269305 0.752998 0.825373 0.108395
H6    H     H_    0.863729 0.670748 0.178397 0.109586
H7    H     H_    0.769305 0.252997 0.825373 0.108395
H8    H     H_    0.363729 0.170748 0.178397 0.109586
H9    H     H_    0.688462 0.333031 0.826433 0.109677
H10   H     H_    0.447732 0.248930 0.177368 0.115409
H11   H     H_    0.188462 0.833031 0.826433 0.109677
H12   H     H_    0.748940 0.370942 0.178333 0.094178
H13   H     H_    0.947732 0.748930 0.177368 0.115409
H14   H     H_    0.863764 0.328883 0.180358 0.108849
H15   H     H_    0.270024 0.246822 0.823093 0.108701
H16   H     H_    0.363764 0.828883 0.180358 0.108849
H17   H     H_    0.770024 0.746822 0.823093 0.108701
H18   H     H_    0.445700 0.749529 0.179615 0.107696
H19   H     H_    0.686273 0.668107 0.824391 0.109210
H20   H     H_    0.945700 0.249529 0.179615 0.107696
H21   H     H_    0.186273 0.168106 0.824391 0.109210
H22   H     H_    0.308165 0.547031 0.437601 0.121641
H23   H     H_    0.813382 0.834101 0.824379 0.091306
H24   H     H_    0.326247 0.547887 0.286802 0.125517
H25   H     H_    0.808165 0.047031 0.437601 0.121641
H26   H     H_    0.826247 0.047887 0.286802 0.125517
H27   H     H_    0.594190 0.461137 0.494064 0.123665
H28   H     H_    0.574269 0.458036 0.639814 0.118933
H29   H     H_    0.094190 0.961137 0.494064 0.123665
H30   H     H_    0.074269 0.958036 0.639814 0.118933
H31   H     H_    0.489384 0.665056 0.175401 0.083763
H32   H     H_    0.571091 0.629679 0.824663 0.093255
H33   H     H_    0.989384 0.165056 0.175401 0.083763
H34   H     H_    0.248940 0.870942 0.178333 0.094178
H35   H     H_    0.071091 0.129679 0.824663 0.093255
H36   H     H_    0.214218 0.589290 0.750519 0.111581
H37   H     H_    0.758425 0.587917 0.331457 0.103270
H38   H     H_    0.714218 0.089290 0.750519 0.111581
H39   H     H_    0.258425 0.087917 0.331457 0.103270
H40   H     H_    0.489415 0.589996 0.278143 0.111611
H41   H     H_    0.439229 0.588920 0.671044 0.105166
H42   H     H_    0.989415 0.089996 0.278143 0.111611
H43   H     H_    0.939229 0.088920 0.671044 0.105167
H44   H     H_    0.208500 0.411508 0.736818 0.094372
H45   H     H_    0.930448 0.595582 0.407789 0.199354
H46   H     H_    0.765370 0.412337 0.332962 0.086738
H47   H     H_    0.708500 0.911508 0.736818 0.094372
H48   H     H_    0.265369 0.912337 0.332962 0.086738
H49   H     H_    0.315236 0.667139 0.826198 0.086458
H50   H     H_    0.748999 0.629252 0.177670 0.093501
H51   H     H_    0.815236 0.167139 0.826198 0.086458
H52   H     H_    0.248999 0.129252 0.177670 0.093501
H53   H     H_    0.499053 0.330546 0.169883 0.101934
H54   H     H_    0.573728 0.371518 0.826180 0.103263
H55   H     H_    0.999053 0.830546 0.169884 0.101934
H56   H     H_    0.060268 0.639566 0.637848 0.193751
H57   H     H_    0.073728 0.871518 0.826180 0.103263
H58   H     H_    0.051486 0.414592 0.673713 0.127982
H59   H     H_    0.886623 0.414056 0.514495 0.125896
H60   H     H_    0.551486 0.914592 0.673713 0.127982
H61   H     H_    0.386623 0.914056 0.514495 0.125896
H62   H     H_    0.430448 0.095582 0.407789 0.199354
H63   H     H_    0.560268 0.139566 0.637848 0.193751
H64   H     H_    0.898205 0.638990 0.484583 0.193085
N1    N     N_R   0.394180 0.396910 0.943210 -0.040093
N2    N     N_R   0.474350 0.471570 0.793850 -0.058436
N3    N     N_R   0.025650 0.971570 0.206150 -0.061843
N4    N     N_R   0.974350 0.971570 0.793850 -0.058436
N5    N     N_R   0.319480 0.528420 0.793810 -0.040859
N6    N     N_R   0.680520 0.528420 0.206190 -0.037831
N7    N     N_R   0.819480 0.028420 0.793810 -0.040859
N8    N     N_R   0.180520 0.028420 0.206190 -0.037831
N9    N     N_R   0.525640 0.528390 0.206120 -0.046336
N10   N     N_R   0.474360 0.528390 0.793880 -0.044586
N11   N     N_R   0.025640 0.028390 0.206120 -0.046336
N12   N     N_R   0.605820 0.396910 0.056790 -0.042145
N13   N     N_R   0.974360 0.028390 0.793880 -0.044586
N14   N     N_R   0.319490 0.471590 0.793840 -0.041731
N15   N     N_R   0.680510 0.471590 0.206160 -0.039752
N16   N     N_R   0.819490 0.971590 0.793840 -0.041731
N17   N     N_R   0.180510 0.971590 0.206160 -0.039752
N18   N     N_R   0.394130 0.603080 0.943110 -0.037862
N19   N     N_R   0.605870 0.603080 0.056890 -0.039665
N20   N     N_R   0.894130 0.103080 0.943110 -0.037862
N21   N     N_R   0.105870 0.103080 0.056890 -0.039665
N22   N     N_R   0.450990 0.396900 0.056840 -0.044140
N23   N     N_R   0.894180 0.896910 0.943210 -0.040093
N24   N     N_R   0.549010 0.396900 0.943160 -0.040259
N25   N     N_R   0.950990 0.896900 0.056840 -0.044140
N26   N     N_R   0.049010 0.896900 0.943160 -0.040259
N27   N     N_1   0.510257 0.355568 0.339971 -0.100960
N28   N     N_1   0.381004 0.357145 0.616755 -0.093691
N29   N     N_1   0.010258 0.855568 0.339971 -0.100960
N30   N     N_1   0.881004 0.857145 0.616756 -0.093691
N31   N     N_R   0.105820 0.896910 0.056790 -0.042145
N32   N     N_R   0.450950 0.603070 0.056740 -0.036224
N33   N     N_R   0.549050 0.603070 0.943260 -0.039168
N34   N     N_R   0.950950 0.103070 0.056740 -0.036224
N35   N     N_R   0.049050 0.103070 0.943260 -0.039168
N36   N     N_R   0.525650 0.471570 0.206150 -0.061843
Ni1   Ni    Ni4+2 0.434860 0.434850 0.869700 0.222406
Ni2   Ni    Ni4+2 0.565140 0.434850 0.130300 0.210578
Ni3   Ni    Ni4+2 0.934860 0.934850 0.869700 0.222406
Ni4   Ni    Ni4+2 0.065140 0.934850 0.130300 0.210578
Ni5   Ni    Ni4+2 0.565130 0.565140 0.130240 0.207610
Ni6   Ni    Ni4+2 0.434870 0.565140 0.869760 0.207741
Ni7   Ni    Ni4+2 0.065130 0.065140 0.130240 0.207610
Ni8   Ni    Ni4+2 0.934870 0.065140 0.869760 0.207741

loop_
_geom_bond_atom_site_label_1
_geom_bond_atom_site_label_2
_ccdc_geom_bond_type
C89   H44   S    
C99   C103  A    
C62   C83   S    
C86   H41   S    
C26   H61   S    
C16   C21   A    
C87   H42   S    
C55   C59   A    
C30   H3    S    
C4    N27   T    
N6    Ni5   S    
C31   H4    S    
C96   N20   A    
C12   C91   A    
N5    Ni6   S    
C34   C60   A    
C32   C58   A    
N34   Ni7   S    
C90   H46   S    
N18   N32   A    
C44   C104  S    
C75   H30   S    
C95   N19   A    
N8    N17   A    
C100  N25   A    
C11   C81   A    
C45   N32   A    
N26   Ni3   S    
C13   C84   A    
C3    C43   S    
C8    C69   S    
N16   Ni3   S    
N2    N10   A    
N13   Ni8   S    
C56   H20   S    
C35   C37   A    
C80   N5    A    
C2    C68   S    
C9    C88   A    
N1    Ni1   S    
C99   N24   A    
C43   C52   A    
C6    C78   S    
C66   C69   A    
C27   C29   S    
C60   C72   S    
C25   H60   S    
C65   C70   A    
C74   H29   S    
N11   Ni7   S    
C100  C104  A    
N10   Ni6   S    
C9    C79   A    
C97   H52   S    
N9    Ni5   S    
C37   C42   A    
C78   N3    A    
C39   N31   A    
N8    Ni7   S    
C76   C94   A    
C86   N10   A    
C44   C53   A    
N22   Ni2   S    
C46   N33   A    
N19   Ni5   S    
C10   C89   A    
C77   N2    A    
C64   H24   S    
C92   H48   S    
C67   C94   S    
C51   H15   S    
C23   C24   A    
C18   C30   S    
C32   C38   A    
C67   C71   A    
C28   H23   S    
C98   N22   A    
C27   H64   S    
C23   H58   S    
C93   N18   A    
C3    C101  A    
C97   N21   A    
C40   H13   S    
C54   H18   S    
C73   H28   S    
C3    C39   A    
C27   H45   S    
N25   Ni4   S    
C91   N16   A    
C8    C78   A    
C34   H7    S    
N17   Ni4   S    
N3    N11   A    
C36   C41   A    
N1    N22   A    
N24   Ni1   S    
N12   Ni2   S    
C36   H9    S    
N4    N13   A    
C85   H40   S    
C41   C49   A    
C52   C54   A    
C29   H56   S    
C53   C55   A    
C15   C20   A    
C55   H19   S    
C11   C20   S    
C45   H31   S    
C33   C40   A    
C59   C61   S    
C32   H5    S    
C46   C61   A    
C50   C58   S    
C64   C67   A    
C20   C24   A    
C57   C62   A    
C9    C70   S    
C30   H62   S    
N2    Ni1   S    
N12   N24   A    
C71   C73   A    
C10   C80   A    
C92   N17   A    
C37   H10   S    
C84   H39   S    
C25   C26   A    
C80   H36   S    
C87   N11   A    
C12   C21   S    
N21   N35   A    
C41   C103  S    
C47   N34   A    
N14   Ni1   S    
C16   C31   S    
C72   C96   A    
C79   N4    A    
C19   C23   A    
N23   N25   A    
C85   C94   A    
C28   C104  A    
C15   C27   S    
N26   N31   A    
C48   N35   A    
C98   H53   S    
C91   H47   S    
C10   C19   S    
C81   H37   S    
C47   H33   S    
C61   C95   A    
N9    N36   A    
C12   C82   A    
C69   C74   A    
C16   C18   A    
N23   Ni3   S    
N7    Ni8   S    
C82   N7    A    
C22   C26   A    
C5    N28   T    
C51   C57   A    
C52   H16   S    
C17   N12   A    
C85   N9    A    
N36   Ni2   S    
N5    N14   A    
N18   Ni6   S    
C13   C92   A    
N21   Ni7   S    
C4    C76   S    
C29   H2    S    
C24   H59   S    
C14   C29   S    
C5    C77   S    
C28   N23   A    
N33   Ni6   S    
C101  N26   A    
C7    C79   S    
C54   C58   A    
C21   C25   A    
C63   C68   A    
C48   H35   S    
C18   C22   A    
C14   C19   A    
N4    Ni3   S    
C31   H63   S    
C63   C64   A    
N6    N15   A    
C6    N29   T    
C65   H25   S    
C76   N36   A    
C50   C93   A    
C42   C51   A    
C49   C56   A    
N19   N33   A    
N32   Ni5   S    
C48   C83   A    
C93   H49   S    
C8    C87   A    
C89   N14   A    
C95   H50   S    
C7    N30   T    
C101  H57   S    
C68   C73   A    
C38   C43   A    
C2    C77   A    
C98   C102  A    
C11   C90   A    
C81   N6    A    
C57   H21   S    
C38   H11   S    
N20   Ni8   S    
C100  H55   S    
C88   N13   A    
C30   C31   S    
C45   C50   A    
C1    N1    A    
N31   Ni4   S    
C88   H43   S    
C13   C22   S    
C2    C86   A    
C35   C62   A    
C34   C36   A    
C17   C103  A    
N35   Ni8   S    
C47   C72   A    
C39   H34   S    
C63   H22   S    
C46   H32   S    
C82   H38   S    
C96   H51   S    
C49   H14   S    
C56   C60   A    
C40   C44   A    
C90   N15   A    
C42   C102  S    
C71   H27   S    
C33   C59   A    
C65   C66   A    
C83   C97   A    
C99   H54   S    
C70   C75   A    
N15   Ni2   S    
C14   C15   A    
N20   N34   A    
C53   H17   S    
C33   H6    S    
N3    Ni4   S    
C84   N8    A    
C1    C102  A    
C35   H8    S    
C74   C75   A    
C17   H12   S    
C1    H1    S    
N7    N16   A    
C66   H26   S    
