data_mof_unit_19076.cif
_audit_creation_date              2012-10-26T21:13:39-0400
_audit_creation_method            fapswitch 2.2
_symmetry_space_group_name_H-M    P1
_symmetry_Int_Tables_number       1
_space_group_crystal_system       triclinic
_cell_length_a                    9.052618
_cell_length_b                    10.869398
_cell_length_c                    9.601315
_cell_angle_alpha                 90.806303
_cell_angle_beta                  90.565813
_cell_angle_gamma                 90.389011
_cell_volume                      944.573582284

loop_
_atom_site_label
_atom_site_type_symbol
_atom_type_description
_atom_site_fract_x
_atom_site_fract_y
_atom_site_fract_z
_atom_type_partial_charge
C1    C     C_R   0.505162 0.262478 0.498674 0.542718
C2    C     C_R   0.607781 0.561487 0.928194 0.131120
C3    C     C_3   0.769258 0.539211 0.916399 -0.250460
C4    C     C_R   0.220886 0.499771 0.499554 0.555730
C5    C     C_3   0.772949 0.519461 0.072447 -0.140226
C6    C     C_R   0.500003 0.737172 0.500620 0.551111
C7    C     C_R   0.779099 0.499957 0.500439 0.546938
C8    C     C_1   0.065611 0.499700 0.499360 -0.075495
C9    C     C_1   0.934346 0.499771 0.500560 -0.081654
C10   C     C_R   0.468917 0.065193 0.615852 0.018804
C11   C     C_R   0.505378 0.128520 0.494670 0.017674
C12   C     C_R   0.522293 0.930920 0.373943 -0.139335
C13   C     C_R   0.529609 0.059204 0.369713 -0.034896
C14   C     C_3   0.574913 0.115901 0.233678 -0.382447
C15   C     C_3   0.804537 0.383379 0.103615 -0.391217
C16   C     C_3   0.689519 0.118861 0.775484 -0.409828
C17   C     C_3   0.260764 0.377079 0.133470 -0.357076
C18   C     C_R   0.495715 0.869958 0.499038 -0.009905
C19   C     C_R   0.461357 0.938745 0.617399 -0.002619
C20   C     C_3   0.518995 0.931370 0.763209 -0.242549
C21   C     C_3   0.529820 0.071489 0.762377 -0.126782
C22   C     C_R   0.611999 0.555354 0.075081 0.161279
C23   C     C_R   0.388260 0.444769 0.069607 0.089129
C24   C     C_R   0.389738 0.445845 0.921768 0.007362
Cu1   Cu    Cu3+1 0.499990 0.499980 0.640670 0.919796
Cu2   Cu    Cu3+1 0.500010 0.500020 0.359330 0.915043
H1    H     H_    0.829741 0.623479 0.884649 0.108938
H2    H     H_    0.605176 0.045447 0.154185 0.103890
H3    H     H_    0.482714 0.169396 0.188738 0.149873
H4    H     H_    0.813295 0.366139 0.216229 0.170590
H5    H     H_    0.717505 0.322260 0.057481 0.134432
H6    H     H_    0.912240 0.357229 0.057850 0.105984
H7    H     H_    0.759783 0.079513 0.691895 0.141125
H8    H     H_    0.692848 0.220622 0.769860 0.165250
H9    H     H_    0.736040 0.092539 0.878195 0.116718
H10   H     H_    0.295605 0.321924 0.223208 0.181193
H11   H     H_    0.172963 0.443162 0.162258 0.146950
H12   H     H_    0.846612 0.585813 0.129118 0.137378
H13   H     H_    0.210030 0.310257 0.058193 0.055424
H14   H     H_    0.544914 0.878293 0.279921 0.138692
H15   H     H_    0.433679 0.896753 0.835625 0.125443
H16   H     H_    0.626730 0.882914 0.769611 0.144601
H17   H     H_    0.452808 0.116637 0.836478 0.138307
H18   H     H_    0.302730 0.400191 0.862245 0.125273
H19   H     H_    0.795777 0.455730 0.853530 0.163841
H20   H     H_    0.673644 0.175154 0.251216 0.141702
N1    N     N_R   0.500920 0.500930 0.147930 -0.217880
N2    N     N_R   0.500930 0.500890 0.852020 -0.246725
O1    O     O_R   0.500000 0.319640 0.618810 -0.506666
O2    O     O_R   0.500020 0.319680 0.381230 -0.521396
O3    O     O_R   0.288380 0.499980 0.618770 -0.499893
O4    O     O_R   0.288400 0.500020 0.381190 -0.507295
O5    O     O_R   0.499980 0.680320 0.618770 -0.492504
O6    O     O_R   0.500000 0.680360 0.381190 -0.503757
O7    O     O_R   0.711600 0.499980 0.618810 -0.508076
O8    O     O_R   0.711620 0.500020 0.381230 -0.503629

loop_
_geom_bond_atom_site_label_1
_geom_bond_atom_site_label_2
_ccdc_geom_bond_type
C2    C22   A    
C20   H16   S    
C23   C24   A    
Cu1   O3    S    
C15   H5    S    
C16   C21   S    
C17   H10   S    
Cu2   O4    S    
C16   H7    S    
C1    O2    A    
C19   C20   S    
C1    C11   S    
C7    O7    A    
C10   C19   A    
C4    C8    S    
C16   H8    S    
C14   H2    S    
C3    H1    S    
C2    C3    S    
C15   H6    S    
C14   H20   S    
C17   H11   S    
C5    H12   S    
C20   C21   S    
C11   C13   A    
Cu1   N2    S    
C17   C23   S    
C7    O8    A    
C4    O4    A    
C20   H15   S    
Cu2   N1    S    
C16   H9    S    
Cu1   O5    S    
C22   N1    A    
Cu2   O2    S    
C10   C21   S    
C24   H18   S    
C6    C18   S    
Cu1   O1    S    
C6    O5    A    
C5    C15   S    
C23   N1    A    
C10   C11   A    
C4    O3    A    
C24   N2    A    
Cu2   O6    S    
C12   C13   A    
C15   H4    S    
C18   C19   A    
C17   H13   S    
C12   C18   A    
C7    C9    S    
C12   H14   S    
C14   H3    S    
C2    N2    A    
Cu1   Cu2   S    
C13   C14   S    
C1    O1    A    
C3    H19   S    
C6    O6    A    
C21   H17   S    
C5    C22   S    
Cu1   O7    S    
C8    C9    T    
C3    C5    S    
Cu2   O8    S    
