data_mof_unit_38891.cif
_audit_creation_date              2013-03-05T16:12:08-0500
_audit_creation_method            fapswitch 2.2
_symmetry_space_group_name_H-M    P1
_symmetry_Int_Tables_number       1
_space_group_crystal_system       triclinic
_cell_length_a                    10.725408
_cell_length_b                    9.40145
_cell_length_c                    27.817973
_cell_angle_alpha                 89.832853
_cell_angle_beta                  89.990768
_cell_angle_gamma                 89.976317
_cell_volume                      2804.99604479

loop_
_atom_site_label
_atom_site_type_symbol
_atom_site_description
_atom_site_fract_x
_atom_site_fract_y
_atom_site_fract_z
_atom_type_partial_charge
O1    O     O_R   0.317570 0.620260 0.500030 -0.595827
O2    O     O_R   0.317570 0.379740 0.500030 -0.596594
C1    C     C_R   0.259616 0.499814 0.500093 0.765967
O3    O     O_R   0.499900 0.620250 0.430280 -0.592775
O4    O     O_R   0.499900 0.379750 0.430280 -0.592986
C2    C     C_R   0.499896 0.500242 0.407457 0.806129
Cu1   Cu    Cu3+1 0.499860 0.642410 0.500020 0.894432
Cu2   Cu    Cu3+1 0.499860 0.357590 0.500020 0.894216
O5    O     O_R   0.682190 0.620260 0.500010 -0.595885
O6    O     O_R   0.682190 0.379740 0.500010 -0.596035
O7    O     O_R   0.499860 0.620280 0.569750 -0.590750
O8    O     O_R   0.499860 0.379720 0.569750 -0.589912
C3    C     C_R   0.740141 0.499779 0.500072 0.766419
C4    C     C_R   0.500193 0.499874 0.592570 0.808853
C5    C     C_R   0.391370 0.478789 0.177977 0.532659
O9    O     O_2   0.285812 0.451142 0.202715 -0.537563
N1    N     N_R   0.499784 0.505501 0.202168 -0.469278
C6    C     C_R   0.608124 0.534871 0.178211 0.532397
C7    C     C_R   0.509868 0.631550 0.279137 -0.103965
C8    C     C_R   0.509719 0.630425 0.329240 -0.227246
C9    C     C_R   0.489930 0.373276 0.328766 -0.228405
C10   C     C_R   0.489563 0.374806 0.278623 -0.102789
C11   C     C_R   0.499688 0.503882 0.253692 0.362458
C12   C     C_R   0.499634 0.511096 0.101992 -0.044117
C13   C     C_R   0.389285 0.481006 0.127507 -0.020016
C14   C     C_R   0.279239 0.454998 0.102272 -0.147046
C15   C     C_R   0.610051 0.538342 0.127756 -0.019976
C16   C     C_R   0.499880 0.501203 0.354533 -0.042159
H1    H     H_    0.482094 0.272188 0.347284 0.143144
H2    H     H_    0.481862 0.275749 0.259084 0.136873
H3    H     H_    0.192693 0.433674 0.121054 0.187405
C17   C     C_R   0.501956 0.500283 0.645494 -0.053117
C18   C     C_R   0.389484 0.478845 0.974357 0.042029
C19   C     C_R   0.610185 0.554426 0.974703 0.043045
C20   C     C_R   0.500161 0.516715 0.949288 0.066449
C21   C     C_R   0.284097 0.437146 0.947166 -0.208302
C22   C     C_R   0.286512 0.435924 0.897264 -0.148943
C23   C     C_R   0.393991 0.475527 0.872343 -0.020862
C24   C     C_R   0.500985 0.516383 0.898156 -0.045609
C25   C     C_R   0.608882 0.556687 0.872702 -0.020759
C26   C     C_R   0.608490 0.553079 0.822271 0.497453
N2    N     N_R   0.504279 0.509996 0.798015 -0.467605
C27   C     C_R   0.397337 0.473967 0.821912 0.545756
C28   C     C_R   0.502014 0.372242 0.721950 0.048856
C29   C     C_R   0.498769 0.371972 0.671519 -0.272937
C30   C     C_R   0.508008 0.629679 0.670374 -0.230048
C31   C     C_R   0.510433 0.631100 0.720315 -0.124823
C32   C     C_R   0.506946 0.503785 0.746435 0.323627
O10   O     O_2   0.294563 0.437007 0.796900 -0.545729
C33   C     C_R   0.387978 0.482472 0.025464 0.042643
C34   C     C_R   0.499604 0.513775 0.050858 0.067258
C35   C     C_R   0.611261 0.547484 0.025766 0.042285
C36   C     C_R   0.278229 0.456034 0.052356 -0.207373
H4    H     H_    0.495077 0.271332 0.652658 0.145424
H5    H     H_    0.203346 0.402729 0.878248 0.186150
H6    H     H_    0.198161 0.401906 0.963206 0.138408
H7    H     H_    0.188713 0.437599 0.036071 0.136970
O11   O     O_2   0.713742 0.559886 0.203169 -0.537519
C37   C     C_R   0.719998 0.567378 0.102769 -0.147074
H8    H     H_    0.517631 0.730629 0.348096 0.143365
H9    H     H_    0.517527 0.731650 0.260009 0.136515
H10   H     H_    0.806557 0.586786 0.121727 0.187428
C38   C     C_R   0.715632 0.598479 0.947886 -0.210267
C39   C     C_R   0.714816 0.599122 0.897977 -0.158074
O12   O     O_2   0.711954 0.590243 0.797634 -0.549101
C40   C     C_R   0.720955 0.571551 0.052874 -0.207920
H11   H     H_    0.800529 0.635366 0.964256 0.138716
H12   H     H_    0.510754 0.730230 0.651294 0.149715
H13   H     H_    0.798351 0.632845 0.879236 0.186418
H14   H     H_    0.514240 0.731786 0.738917 0.146006
H15   H     H_    0.810484 0.591459 0.036741 0.137107
C41   C     C_3   0.071778 0.577159 0.545257 -0.377876
C42   C     C_3   0.071277 0.344118 0.500711 -0.377057
H16   H     H_    0.106066 0.688888 0.545823 0.159700
H17   H     H_    0.105429 0.285210 0.468620 0.162786
H18   H     H_    0.106649 0.523882 0.578421 0.156009
H19   H     H_    0.105411 0.286787 0.533240 0.158637
C43   C     C_3   0.927847 0.577139 0.545250 -0.376363
C44   C     C_3   0.928587 0.344095 0.500711 -0.377162
H20   H     H_    0.892974 0.523868 0.578414 0.157107
H21   H     H_    0.894471 0.286784 0.533244 0.159273
H22   H     H_    0.893467 0.688863 0.545810 0.160132
H23   H     H_    0.894507 0.285159 0.468624 0.162811
H24   H     H_    0.106119 0.686865 0.453187 0.162289
H25   H     H_    0.106740 0.520482 0.421722 0.159065
H26   H     H_    0.893519 0.686809 0.453166 0.162314
H27   H     H_    0.893129 0.520411 0.421710 0.159128
C45   C     C_3   0.071827 0.575177 0.454512 -0.375818
C46   C     C_3   0.121690 0.499103 0.500148 0.159048
C47   C     C_3   0.878061 0.499056 0.500137 0.158369
C48   C     C_3   0.927926 0.575138 0.454503 -0.375931
C49   C     C_3   0.611173 0.083595 0.526167 -0.188598
C50   C     C_3   0.611155 0.915876 0.526189 -0.187515
H28   H     H_    0.614649 0.123161 0.563786 0.139574
H29   H     H_    0.614499 0.875814 0.563828 0.139007
H30   H     H_    0.698033 0.120782 0.508384 0.138116
H31   H     H_    0.698101 0.878755 0.508480 0.138687
H32   H     H_    0.384335 0.123195 0.563383 0.136639
H33   H     H_    0.384333 0.875857 0.563380 0.137997
C51   C     C_3   0.388730 0.083664 0.525772 -0.189061
C52   C     C_3   0.388709 0.915991 0.525764 -0.188566
C53   C     C_3   0.500851 0.083994 0.451580 -0.185304
C54   C     C_3   0.500924 0.916734 0.451582 -0.186788
N3    N     N_3   0.500250 0.143650 0.501060 -0.111478
N4    N     N_3   0.500250 0.856350 0.501060 -0.111817
H34   H     H_    0.417761 0.122795 0.431493 0.139007
H35   H     H_    0.417955 0.878158 0.431463 0.140405
H36   H     H_    0.584301 0.122914 0.431748 0.140514
H37   H     H_    0.584465 0.878108 0.431802 0.138639
H38   H     H_    0.302302 0.120921 0.507689 0.138430
H39   H     H_    0.302243 0.879013 0.507703 0.138805
C55   C     C_R   0.499744 0.234924 0.748349 0.116344
C56   C     C_R   0.404239 0.135906 0.739676 -0.109574
C57   C     C_R   0.400089 0.007952 0.765404 -0.153138
C58   C     C_R   0.491469 0.977397 0.799726 -0.103210
C59   C     C_R   0.587754 0.074226 0.808087 -0.116214
C60   C     C_R   0.592277 0.202283 0.782451 -0.157051
H40   H     H_    0.332066 0.158706 0.713533 0.129161
H41   H     H_    0.325889 0.932503 0.758784 0.139087
H42   H     H_    0.488064 0.878333 0.819636 0.133032
H43   H     H_    0.659036 0.049969 0.834403 0.141260
H44   H     H_    0.668251 0.275409 0.789015 0.153954

loop_
_geom_bond_atom_site_label_1
_geom_bond_atom_site_label_2
_geom_bond_distance
_ccdc_geom_bond_type
C51   H38   1.110801 S    
H27   C48   1.113184 S    
C3    C47   1.479259 S    
C17   C29   1.405481 A    
C20   C24   1.422422 A    
C7    C8    1.393754 A    
C12   C15   1.408310 A    
C51   N3    1.489731 S    
C41   H18   1.113155 S    
C57   C58   1.397555 A    
Cu1   Cu2   2.677720 S    
C43   C47   1.550767 S    
Cu1   O7    1.950269 S    
N1    C11   1.433355 S    
C21   C22   1.388491 A    
H26   C48   1.113222 S    
C37   C40   1.388446 A    
O4    C2    1.296969 A    
O7    C4    1.296222 A    
C43   H20   1.113172 S    
C5    C13   1.404224 A    
C5    O9    1.349768 S    
C49   H30   1.110834 S    
C18   C21   1.416280 A    
C59   C60   1.398347 A    
Cu1   O5    1.966534 S    
C19   C20   1.421313 A    
C26   N2    1.367781 A    
O5    C3    1.291791 A    
C51   C52   1.576371 S    
C44   C47   1.554219 S    
C41   C43   1.543718 S    
C50   N4    1.489924 S    
C6    O11   1.349805 S    
C2    C16   1.472240 S    
C40   H15   1.076117 S    
Cu1   N4    2.011645 S    
C53   H36   1.112776 S    
C8    H8    1.082960 S    
C57   H41   1.082436 S    
C12   C34   1.422594 A    
C14   H3    1.083598 S    
C50   H29   1.112260 S    
C9    C10   1.394932 A    
C42   H17   1.113749 S    
O3    Cu1   1.951784 S    
C55   C56   1.405784 A    
C33   C34   1.421542 A    
C52   N4    1.489732 S    
C38   H11   1.076143 S    
C19   C38   1.416129 A    
C33   C36   1.416281 A    
C59   H43   1.082363 S    
C34   C35   1.421459 A    
C12   C13   1.408339 A    
C41   H16   1.113235 S    
C24   C25   1.408074 A    
C44   H21   1.113749 S    
C36   H7    1.075992 S    
C27   O10   1.349771 S    
C26   O12   1.349770 S    
C8    C16   1.406140 A    
C18   C33   1.422279 A    
C9    H1    1.082975 S    
C38   C39   1.388403 A    
O1    C1    1.291970 A    
C7    C11   1.399522 A    
C60   H44   1.082218 S    
C31   H14   1.080926 S    
C30   H12   1.083204 S    
C22   C23   1.395218 A    
C21   H6    1.075953 S    
C43   H22   1.113217 S    
C31   C32   1.398922 A    
C45   C48   1.543394 S    
Cu2   O8    1.951476 S    
C49   H28   1.112282 S    
N1    C6    1.367319 A    
C42   C44   1.530414 S    
C54   N4    1.487334 S    
N2    C32   1.436486 S    
C39   H13   1.083586 S    
C53   N3    1.487836 S    
Cu2   N3    2.011473 S    
C28   C55   1.483575 S    
O3    C2    1.296225 A    
C25   C26   1.403418 A    
H33   C52   1.112285 S    
C9    C16   1.405984 A    
O8    C4    1.297396 A    
C29   H4    1.083974 S    
H32   C51   1.112323 S    
N2    C27   1.367861 A    
C14   C36   1.388623 A    
C50   H31   1.111162 S    
C35   C40   1.416163 A    
C28   C29   1.403357 A    
C56   C57   1.398682 A    
H25   C45   1.113167 S    
C5    N1    1.367281 A    
C30   C31   1.389592 A    
C37   H10   1.083595 S    
C10   H2    1.082852 S    
O1    Cu1   1.966280 S    
C17   C30   1.402905 A    
O2    Cu2   1.966109 S    
C6    C15   1.403989 A    
H24   C45   1.113235 S    
C4    C17   1.472382 S    
O6    C3    1.288618 A    
O4    Cu2   1.950575 S    
C52   H39   1.111201 S    
C19   C35   1.421837 A    
C25   C39   1.395229 A    
C54   H37   1.112753 S    
C55   C60   1.406221 A    
C1    C46   1.479328 S    
O2    C1    1.288465 A    
C13   C14   1.395411 A    
C42   C46   1.554418 S    
C23   C27   1.403458 A    
C15   C37   1.395394 A    
C44   H23   1.113762 S    
C41   C46   1.550677 S    
C47   C48   1.550458 S    
C23   C24   1.407938 A    
C7    H9    1.082896 S    
C49   C50   1.576800 S    
C18   C20   1.421557 A    
C53   H34   1.112737 S    
C53   C54   1.572491 S    
C49   N3    1.489750 S    
C56   H40   1.083131 S    
C22   H5    1.083602 S    
C28   C32   1.414603 A    
C45   C46   1.550389 S    
Cu2   O6    1.966705 S    
C58   H42   1.082813 S    
C42   H19   1.113751 S    
C10   C11   1.400180 A    
C54   H35   1.112765 S    
C58   C59   1.396910 A    
