data_mof_unit_52104.cif
_audit_creation_date              2012-12-11T16:25:33-0500
_audit_creation_method            fapswitch 2.2
_symmetry_space_group_name_H-M    P1
_symmetry_Int_Tables_number       1
_space_group_crystal_system       triclinic
_cell_length_a                    20.595598
_cell_length_b                    7.267636
_cell_length_c                    13.249372
_cell_angle_alpha                 90.000051
_cell_angle_beta                  103.689156
_cell_angle_gamma                 90.0
_cell_volume                      1926.84890036

loop_
_atom_site_label
_atom_site_type_symbol
_atom_type_description
_atom_site_fract_x
_atom_site_fract_y
_atom_site_fract_z
_atom_type_partial_charge
O1    O     O_R   0.449520 0.506760 0.599710 -0.553721
O2    O     O_R   0.550480 0.006760 0.400290 -0.553721
O3    O     O_R   0.587930 0.180200 0.595790 -0.543196
O4    O     O_R   0.412070 0.680200 0.404210 -0.543196
C1    C     C_R   0.615357 0.343398 0.616660 0.641147
C2    C     C_R   0.384643 0.843398 0.383340 0.641148
O5    O     O_R   0.452350 0.177380 0.611700 -0.497615
O6    O     O_R   0.547650 0.677380 0.388300 -0.497614
O7    O     O_R   0.413930 0.001760 0.416320 -0.534545
O8    O     O_R   0.586070 0.501760 0.583680 -0.534545
C3    C     C_R   0.432848 0.345166 0.633970 0.681089
C4    C     C_R   0.567152 0.845166 0.366030 0.681089
O9    O     O_3   0.487550 0.337460 0.435880 -0.366726
O10   O     O_3   0.512450 0.837460 0.564120 -0.366727
V1    V     V_3+5 0.502310 0.064670 0.511900 1.537223
V2    V     V_3+5 0.497690 0.564670 0.488100 1.537224
C5    C     C_R   0.611173 0.857116 0.105663 0.178012
C6    C     C_R   0.388827 0.357117 0.894337 0.178012
H1    H     H_    0.522453 0.890465 0.157141 0.101682
H2    H     H_    0.477547 0.390466 0.842859 0.101682
H3    H     H_    0.691127 0.836506 0.975528 0.183745
H4    H     H_    0.308873 0.336507 0.024472 0.183745
C7    C     C_R   0.607047 0.853086 0.286994 -0.017623
C8    C     C_R   0.392953 0.353086 0.713006 -0.017623
C9    C     C_R   0.928639 0.870046 0.318743 -0.200447
C10   C     C_R   0.071361 0.370046 0.681257 -0.200447
C11   C     C_R   0.893875 0.869939 0.396344 -0.121241
C12   C     C_R   0.106124 0.369938 0.603656 -0.121241
C13   C     C_R   0.824519 0.861076 0.371440 -0.146854
C14   C     C_R   0.175481 0.361076 0.628560 -0.146855
C15   C     C_R   0.787464 0.849561 0.266912 0.037830
C16   C     C_R   0.212536 0.349561 0.733088 0.037830
C17   C     C_R   0.823343 0.848830 0.186161 0.068702
C18   C     C_R   0.176657 0.348830 0.813839 0.068702
C19   C     C_R   0.715878 0.845510 0.240527 0.029298
C20   C     C_R   0.284122 0.345510 0.759472 0.029298
C21   C     C_R   0.681418 0.846267 0.134035 0.108331
C22   C     C_R   0.318582 0.346268 0.865965 0.108331
C23   C     C_R   0.717136 0.839274 0.056843 -0.186930
C24   C     C_R   0.282864 0.339274 0.943157 -0.186930
C25   C     C_R   0.786613 0.840681 0.080787 0.118307
C26   C     C_R   0.213387 0.340681 0.919213 0.118307
C27   C     C_R   0.676945 0.841839 0.316159 -0.158316
C28   C     C_R   0.323055 0.341839 0.683841 -0.158316
C29   C     C_R   0.575332 0.869018 0.182092 -0.175757
C30   C     C_R   0.424668 0.369018 0.817908 -0.175757
C31   C     C_R   0.894693 0.860548 0.214271 -0.064937
C32   C     C_R   0.105307 0.360547 0.785729 -0.064937
H5    H     H_    0.699022 0.829569 0.398122 0.096998
H6    H     H_    0.300978 0.329569 0.601877 0.096998
H7    H     H_    0.982668 0.878760 0.340436 0.097885
H8    H     H_    0.017332 0.378760 0.659564 0.097885
H9    H     H_    0.801520 0.866313 0.436340 0.117538
H10   H     H_    0.198480 0.366313 0.563660 0.117538
H11   H     H_    0.920969 0.878669 0.476902 0.121790
H12   H     H_    0.079031 0.378668 0.523098 0.121789
H13   H     H_    0.105248 0.009325 0.473784 0.127893
H14   H     H_    0.894751 0.509325 0.526216 0.127893
C33   C     C_R   0.225358 0.836737 0.030772 -0.170736
C34   C     C_R   0.774642 0.336737 0.969228 -0.170737
C35   C     C_R   0.277025 0.811160 0.981541 0.233612
C36   C     C_R   0.722974 0.311160 0.018459 0.233612
C37   C     C_R   0.340711 0.775990 0.041463 -0.151884
C38   C     C_R   0.659289 0.275990 0.958537 -0.151884
C39   C     C_R   0.353900 0.777166 0.150148 -0.052492
C40   C     C_R   0.646099 0.277166 0.849852 -0.052492
C41   C     C_R   0.302911 0.820477 0.203688 0.017138
C42   C     C_R   0.697089 0.320477 0.796312 0.017138
C43   C     C_R   0.236608 0.838027 0.140682 -0.001884
C44   C     C_R   0.763392 0.338027 0.859318 -0.001884
C45   C     C_R   0.314800 0.844745 0.315281 -0.171283
C46   C     C_R   0.685200 0.344745 0.684719 -0.171284
C47   C     C_R   0.258792 0.874512 0.361234 -0.004459
C48   C     C_R   0.741208 0.374512 0.638766 -0.004459
C49   C     C_R   0.193225 0.891749 0.294655 0.081238
C50   C     C_R   0.806775 0.391749 0.705345 0.081237
C51   C     C_R   0.182127 0.862648 0.186390 -0.145138
C52   C     C_R   0.817873 0.362648 0.813610 -0.145137
C53   C     C_R   0.264598 0.889340 0.471668 -0.038928
C54   C     C_R   0.735402 0.389340 0.528332 -0.038929
C55   C     C_R   0.209518 0.944878 0.509418 -0.110239
C56   C     C_R   0.790481 0.444878 0.490582 -0.110239
C57   C     C_R   0.147543 0.970900 0.442927 -0.173814
C58   C     C_R   0.852457 0.470900 0.557073 -0.173814
C59   C     C_R   0.138849 0.939552 0.337556 -0.146020
C60   C     C_R   0.861151 0.439552 0.662444 -0.146020
H15   H     H_    0.176225 0.859943 0.980994 0.136307
H16   H     H_    0.823775 0.359943 0.019006 0.136308
H17   H     H_    0.380951 0.751250 0.003141 0.127475
H18   H     H_    0.619049 0.251250 0.996858 0.127475
H19   H     H_    0.213589 0.958850 0.592168 0.165821
H20   H     H_    0.786411 0.458850 0.407832 0.165821
H21   H     H_    0.088798 0.956281 0.289820 0.092970
H22   H     H_    0.911202 0.456281 0.710180 0.092970
O11   O     O_R   0.913760 0.203480 0.916370 -0.531617
O12   O     O_R   0.086240 0.703480 0.083630 -0.531617
O13   O     O_R   0.047590 0.535230 0.888250 -0.543537
O14   O     O_R   0.952410 0.035230 0.111750 -0.543537
C61   C     C_R   0.064146 0.368413 0.862358 0.756892
C62   C     C_R   0.935854 0.868413 0.137642 0.756892
O15   O     O_R   0.912020 0.532880 0.904260 -0.536997
O16   O     O_R   0.087980 0.032880 0.095740 -0.536997
O17   O     O_R   0.949590 0.708460 0.099750 -0.528210
O18   O     O_R   0.050410 0.208460 0.900250 -0.528210
C63   C     C_R   0.886802 0.365509 0.881139 0.665240
C64   C     C_R   0.113198 0.865509 0.118861 0.665239
O19   O     O_3   0.012370 0.375360 0.064120 -0.375019
O20   O     O_3   0.987630 0.875360 0.935880 -0.375019
V3    V     V_3+5 0.997700 0.648160 0.988110 1.443825
V4    V     V_3+5 0.002300 0.148160 0.011890 1.443825
N1    N     N_3   0.263936 0.823742 0.870348 -0.646928
H23   H     H_    0.230259 0.719536 0.839019 0.226641
H24   H     H_    0.307542 0.798858 0.845077 0.253113
N2    N     N_3   0.736064 0.323742 0.129652 -0.646927
H25   H     H_    0.769741 0.219535 0.160981 0.226641
H26   H     H_    0.692457 0.298858 0.154923 0.253113
C65   C     C_2   0.422476 0.735083 0.202559 0.405752
H27   H     H_    0.451279 0.840861 0.249176 0.000936
O21   O     O_2   0.446797 0.584596 0.193735 -0.514999
C66   C     C_2   0.577524 0.235083 0.797441 0.405753
H28   H     H_    0.548721 0.340861 0.750824 0.000936
O22   O     O_2   0.553203 0.084597 0.806265 -0.514999
C67   C     C_2   0.322798 0.824505 0.551931 0.353790
H29   H     H_    0.347511 0.698419 0.539977 0.060351
O23   O     O_2   0.341247 0.905931 0.634381 -0.523106
C68   C     C_2   0.677202 0.324506 0.448069 0.353790
H30   H     H_    0.652488 0.198419 0.460023 0.060352
O24   O     O_2   0.658753 0.405932 0.365619 -0.523106
N3    N     N_3   0.575507 0.857486 0.998736 -0.642889
H31   H     H_    0.544638 0.741404 0.985986 0.232551
H32   H     H_    0.544529 0.973293 0.986385 0.250818
N4    N     N_3   0.424493 0.357487 0.001264 -0.642888
H33   H     H_    0.455471 0.473294 0.013615 0.250818
H34   H     H_    0.455362 0.241405 0.014014 0.232551
N5    N     N_3   0.818708 0.837935 0.995872 -0.647451
H35   H     H_    0.802982 0.720502 0.951304 0.239929
H36   H     H_    0.802748 0.952600 0.948956 0.233666
N6    N     N_3   0.181293 0.337935 0.004128 -0.647451
H37   H     H_    0.197018 0.220502 0.048696 0.239929
H38   H     H_    0.197252 0.452600 0.051044 0.233666

loop_
_geom_bond_atom_site_label_1
_geom_bond_atom_site_label_2
_ccdc_geom_bond_type
C40   C42   A    
C37   C39   A    
C68   H30   S    
O14   V4    S    
C26   N6    S    
C6    N4    S    
N1    H23   S    
O1    C3    A    
C38   H18   S    
O2    C4    A    
C2    O7    A    
N2    H25   S    
C34   H16   S    
C7    C27   A    
C67   H29   S    
C23   C25   A    
O5    C3    A    
C14   H10   S    
C4    C7    S    
C48   C50   A    
C52   C63   S    
C7    C29   A    
C16   C20   A    
C51   C64   S    
C19   C21   A    
C5    C29   A    
C36   N2    S    
C1    C46   S    
C10   H8    S    
C65   O21   D    
C11   H11   S    
C67   O23   D    
C11   C13   A    
O15   V3    S    
C3    C8    S    
C56   H20   S    
O20   V3    S    
C34   C36   A    
C35   C37   A    
C36   C38   A    
C60   H22   S    
C55   C57   A    
C43   C51   A    
C49   C59   A    
N4    H33   S    
C39   C41   A    
C18   C26   A    
H13   C57   S    
O6    C4    A    
C19   C27   A    
C9    C31   A    
C10   C32   A    
C24   C26   A    
C61   O18   A    
O6    V2    S    
C22   C24   A    
C40   C66   S    
O15   C63   A    
C47   C49   A    
C59   H21   S    
C6    C30   A    
O13   C61   A    
C66   O22   D    
C13   H9    S    
C12   H12   S    
C2    C45   S    
C33   C35   A    
C5    N3    S    
N5    H35   S    
C46   C48   A    
C45   C47   A    
C27   H5    S    
O5    V1    S    
C53   C67   S    
C62   O17   A    
C31   C62   S    
C41   C43   A    
C38   C40   A    
O4    V2    S    
C9    H7    S    
H14   C58   S    
O13   V3    S    
H3    C23   S    
C34   C44   A    
C42   C46   A    
H4    C24   S    
C37   H17   S    
C15   C17   A    
C47   C53   A    
N1    H24   S    
O1    V2    S    
C5    C21   A    
O2    V1    S    
C49   C51   A    
N6    H38   S    
C33   C43   A    
C54   C56   A    
C57   C59   A    
C56   C58   A    
C17   C31   A    
O19   V4    S    
C15   C19   A    
O16   V4    S    
O4    C2    A    
C18   C32   A    
C35   N1    S    
C50   C60   A    
C25   N5    S    
O3    V1    S    
C66   H28   S    
O18   V4    S    
C53   C55   A    
N3    H31   S    
C44   C52   A    
C28   H6    S    
N5    H36   S    
C32   C61   S    
O12   C64   A    
C68   O24   D    
C13   C15   A    
C10   C12   A    
C50   C52   A    
O3    C1    A    
O11   V4    S    
N2    H26   S    
H1    C29   S    
C9    C11   A    
O12   V3    S    
O14   C62   A    
O17   V3    S    
C8    C30   A    
C20   C22   A    
C6    C22   A    
C17   C25   A    
C1    O8    A    
C21   C23   A    
O8    V2    S    
C65   H27   S    
C14   C16   A    
C54   C68   S    
C8    C28   A    
C12   C14   A    
O11   C63   A    
O16   C64   A    
C41   C45   A    
O7    V1    S    
C33   H15   S    
C20   C28   A    
N6    H37   S    
C55   H19   S    
N4    H34   S    
O9    V2    S    
C42   C44   A    
C39   C65   S    
O10   V1    S    
C58   C60   A    
C48   C54   A    
H2    C30   S    
C16   C18   A    
N3    H32   S    
