data_mof_unit_37541.cif
_audit_creation_date              2012-12-10T18:33:42-0500
_audit_creation_method            fapswitch 2.2
_symmetry_space_group_name_H-M    P1
_symmetry_Int_Tables_number       1
_space_group_crystal_system       triclinic
_cell_length_a                    10.512988
_cell_length_b                    14.996608
_cell_length_c                    15.461034
_cell_angle_alpha                 82.64378
_cell_angle_beta                  89.356702
_cell_angle_gamma                 103.839104
_cell_volume                      2345.11526239

loop_
_atom_site_label
_atom_site_type_symbol
_atom_type_description
_atom_site_fract_x
_atom_site_fract_y
_atom_site_fract_z
_atom_type_partial_charge
C1    C     C_R   0.477962 0.442112 0.662157 0.854735
C2    C     C_R   0.514860 0.557784 0.337911 0.857598
C3    C     C_R   0.444688 0.473164 0.811172 -0.257631
C4    C     C_R   0.463396 0.525123 0.189662 -0.266279
C5    C     C_R   0.402198 0.446234 0.898370 0.090077
C6    C     C_R   0.434770 0.550325 0.103574 0.089965
C7    C     C_R   0.366174 0.350323 0.930182 0.178085
C8    C     C_R   0.454579 0.645818 0.072136 0.178185
C9    C     C_R   0.404970 0.512756 0.955911 0.068103
C10   C     C_R   0.396918 0.482955 0.046537 0.070612
C11   C     C_R   0.354089 0.386957 0.076789 -0.229558
C12   C     C_R   0.418426 0.608041 0.926143 -0.231081
C13   C     C_R   0.336437 0.321773 0.018924 -0.236946
C14   C     C_R   0.440153 0.673295 0.984020 -0.239902
C15   C     C_R   0.696703 0.842693 0.635567 -0.325416
C16   C     C_R   0.303695 0.157455 0.364108 -0.325577
C17   C     C_R   0.664128 0.753587 0.613526 0.003664
C18   C     C_R   0.336270 0.246550 0.386193 0.004917
C19   C     C_R   0.513527 0.793618 0.511223 -0.034053
C20   C     C_R   0.486177 0.206295 0.488925 -0.032811
C21   C     C_R   0.542579 0.885612 0.530135 -0.014572
C22   C     C_R   0.457243 0.114346 0.469895 -0.014631
C23   C     C_R   0.742285 0.500400 0.499343 0.903939
C24   C     C_R   0.257740 0.499610 0.500637 0.900037
C25   C     C_R   0.636046 0.909058 0.594158 0.185796
C26   C     C_R   0.364025 0.090983 0.405706 0.187655
C27   C     C_R   0.482780 0.954282 0.488149 0.075104
C28   C     C_R   0.517000 0.045663 0.511893 0.074981
C29   C     C_R   0.609823 0.065372 0.576634 -0.251946
C30   C     C_R   0.390062 0.934602 0.423338 -0.251812
C31   C     C_R   0.668330 0.998313 0.616485 -0.211882
C32   C     C_R   0.331739 0.001723 0.383370 -0.211450
C33   C     C_3   0.935198 0.422482 0.473444 0.600410
C34   C     C_3   0.064935 0.577562 0.526492 0.601241
C35   C     C_3   0.015572 0.426032 0.555852 -0.336819
C36   C     C_3   0.984549 0.574026 0.444088 -0.337170
C37   C     C_3   0.122781 0.499928 0.500895 -0.100093
C38   C     C_3   0.877309 0.500112 0.499045 -0.102727
C39   C     C_3   0.043238 0.495108 0.418096 -0.323603
C40   C     C_3   0.956896 0.504954 0.581839 -0.324214
C41   C     C_R   0.444089 0.407963 0.754382 -0.055128
C42   C     C_R   0.501380 0.591104 0.246218 -0.054486
C43   C     C_R   0.363751 0.284451 0.872997 -0.207876
C44   C     C_R   0.491692 0.712476 0.129012 -0.207841
C45   C     C_R   0.401838 0.313182 0.785164 -0.200275
C46   C     C_R   0.514043 0.685145 0.216064 -0.199617
H1    H     H_    0.032853 0.366214 0.600274 0.153719
H2    H     H_    0.967324 0.633868 0.399681 0.152814
H3    H     H_    0.555445 0.231408 0.536086 0.140300
H4    H     H_    0.443949 0.768417 0.464263 0.140473
H5    H     H_    0.290370 0.298788 0.354807 0.122942
H6    H     H_    0.710355 0.701448 0.644709 0.127876
H7    H     H_    0.768587 0.859600 0.684368 0.142403
H8    H     H_    0.232115 0.140657 0.315099 0.139783
H9    H     H_    0.640612 0.132341 0.598181 0.147465
H10   H     H_    0.359376 0.867648 0.401739 0.147062
H11   H     H_    0.082383 0.489785 0.352449 0.154920
H12   H     H_    0.917877 0.510348 0.647494 0.153534
H13   H     H_    0.305329 0.248757 0.044211 0.143440
H14   H     H_    0.451623 0.745818 0.959077 0.146212
H15   H     H_    0.460635 0.453802 0.213034 0.165077
H16   H     H_    0.483270 0.545428 0.787027 0.163453
H17   H     H_    0.541310 0.737239 0.259412 0.156676
H18   H     H_    0.398856 0.261577 0.741726 0.157652
H19   H     H_    0.334266 0.210946 0.896461 0.134747
H20   H     H_    0.504821 0.785571 0.105928 0.135105
H21   H     H_    0.331224 0.360640 0.144938 0.142470
H22   H     H_    0.409960 0.633627 0.858463 0.154896
H23   H     H_    0.739527 0.016568 0.665447 0.142164
H24   H     H_    0.260721 0.983522 0.334292 0.141522
N1    N     N_R   0.574200 0.731700 0.552740 -0.099494
N2    N     N_R   0.425800 0.268300 0.447260 -0.098415
O1    O     O_R   0.462600 0.383110 0.605620 -0.626355
O2    O     O_R   0.537400 0.616890 0.394380 -0.626220
O3    O     O_R   0.510210 0.531900 0.639510 -0.621563
O4    O     O_R   0.489790 0.468100 0.360490 -0.619836
O5    O     O_R   0.662240 0.425610 0.483080 -0.568979
O6    O     O_R   0.337760 0.574390 0.516920 -0.571223
O7    O     O_R   0.709860 0.574400 0.516970 -0.642744
O8    O     O_R   0.290140 0.425600 0.483030 -0.644690
Zn1   Zn    Zn3+2 0.468210 0.400660 0.477370 0.950828
Zn2   Zn    Zn3+2 0.531790 0.599340 0.522630 0.949403
O9    O     O_3   0.857862 0.342392 0.444000 -0.597174
C47   C     C_3   0.935957 0.279589 0.433896 0.092981
H25   H     H_    0.961373 0.248959 0.498858 0.142840
H26   H     H_    0.027719 0.313513 0.393958 0.135838
C48   C     C_3   0.859141 0.201587 0.387469 -0.810668
H27   H     H_    0.834786 0.229953 0.321509 0.256006
H28   H     H_    0.918711 0.150693 0.380685 0.202909
H29   H     H_    0.766923 0.165778 0.425406 0.265617
O10   O     O_3   0.142422 0.657551 0.556012 -0.598045
C49   C     C_3   0.064826 0.720811 0.565454 0.093326
H30   H     H_    0.972202 0.687211 0.604590 0.136365
H31   H     H_    0.040993 0.751839 0.500222 0.143105
C50   C     C_3   0.141294 0.798329 0.612593 -0.813803
H32   H     H_    0.234440 0.833718 0.575523 0.265686
H33   H     H_    0.082260 0.849681 0.618746 0.203803
H34   H     H_    0.163935 0.769564 0.678848 0.254081

loop_
_geom_bond_atom_site_label_1
_geom_bond_atom_site_label_2
_ccdc_geom_bond_type
C25   C31   A    
C38   C40   S    
C48   H27   S    
C26   C32   A    
C34   C37   S    
C44   H20   S    
C50   H32   S    
C47   C48   S    
C35   H1    S    
C50   H34   S    
C12   H22   S    
C33   C39   S    
C34   C40   S    
C15   H7    S    
C28   C29   A    
C35   C37   S    
C47   H26   S    
C15   C25   A    
C39   H11   S    
C42   C46   A    
C34   O10   S    
C19   N1    A    
C24   O8    A    
C11   H21   S    
C7    C43   A    
C9    C10   A    
N2    Zn1   S    
C2    O2    A    
N1    Zn2   S    
C21   C27   A    
C22   C28   A    
C27   C30   A    
C18   N2    A    
O2    Zn2   S    
C17   H6    S    
O1    Zn1   S    
C44   C46   A    
C18   H5    S    
C16   C26   A    
C37   C39   S    
C40   H12   S    
C1    O3    A    
C47   H25   S    
C4    C6    A    
O10   C49   S    
C5    C7    A    
C6    C8    A    
C29   H9    S    
C30   H10   S    
C4    H15   S    
C49   C50   S    
C5    C9    A    
C20   H3    S    
C33   O9    S    
O6    Zn2   S    
C31   H23   S    
O9    C47   S    
O5    Zn1   S    
C43   H19   S    
C49   H31   S    
C24   C37   S    
C23   O5    A    
C43   C45   A    
C24   O6    A    
C20   C22   A    
C17   N1    A    
C48   H28   S    
C2    O4    A    
C3    H16   S    
C1    C41   S    
C15   C17   A    
C21   C25   A    
C3    C41   A    
C8    C14   A    
C19   C21   A    
C36   C39   S    
C8    C44   A    
C12   C14   A    
O8    Zn1   S    
C3    C5    A    
O4    Zn1   S    
C6    C10   A    
O7    Zn2   S    
C32   H24   S    
C50   H33   S    
O3    Zn2   S    
C13   H13   S    
C23   C38   S    
C14   H14   S    
C45   H18   S    
C33   C38   S    
C46   H17   S    
C1    O1    A    
C36   C38   S    
C35   C40   S    
C29   C31   A    
C30   C32   A    
C11   C13   A    
C19   H4    S    
C4    C42   A    
C2    C42   S    
C49   H30   S    
C33   C35   S    
C36   H2    S    
C34   C36   S    
C9    C12   A    
C16   H8    S    
C10   C11   A    
C7    C13   A    
C16   C18   A    
C22   C26   A    
C48   H29   S    
C27   C28   A    
C41   C45   A    
C20   N2    A    
C23   O7    A    
