data_mof_unit_60189.cif
_audit_creation_date              2012-10-26T18:13:34-0400
_audit_creation_method            fapswitch 2.2
_symmetry_space_group_name_H-M    P1
_symmetry_Int_Tables_number       1
_space_group_crystal_system       triclinic
_cell_length_a                    21.529981
_cell_length_b                    21.635539
_cell_length_c                    22.028411
_cell_angle_alpha                 119.226797
_cell_angle_beta                  119.154811
_cell_angle_gamma                 89.567814
_cell_volume                      7454.6166001

loop_
_atom_site_label
_atom_site_type_symbol
_atom_type_description
_atom_site_fract_x
_atom_site_fract_y
_atom_site_fract_z
_atom_type_partial_charge
C1    C     C_R   0.499656 0.119671 0.499140 0.553860
C2    C     C_3   0.184947 0.773447 0.951251 -0.243132
C3    C     C_3   0.734629 0.161732 0.952601 -0.247021
C4    C     C_3   0.234927 0.823134 0.048108 -0.243060
C5    C     C_1   0.835916 0.338990 0.175285 -0.072087
C6    C     C_1   0.164567 0.660679 0.824771 -0.073921
C7    C     C_1   0.661401 0.163094 0.824917 -0.075668
C8    C     C_1   0.339199 0.835629 0.175128 -0.084593
C9    C     C_1   0.624078 0.124786 0.749537 -0.054174
C10   C     C_1   0.376070 0.874510 0.250492 -0.048832
C11   C     C_3   0.424050 0.204483 0.478314 -0.247341
C12   C     C_R   0.501338 0.880370 0.501034 0.555089
C13   C     C_3   0.493528 0.820449 0.569725 -0.271560
C14   C     C_3   0.420634 0.272233 0.471625 -0.248836
C15   C     C_3   0.488712 0.748557 0.567671 -0.250618
C16   C     C_R   0.579715 0.079614 0.659830 0.536777
C17   C     C_R   0.420300 0.920196 0.340176 0.546609
C18   C     C_3   0.567959 0.259560 0.593411 0.095332
C19   C     C_3   0.579847 0.788355 0.512305 0.091383
C20   C     C_3   0.510426 0.182396 0.431379 -0.041415
C21   C     C_3   0.432118 0.745496 0.416739 -0.046975
C22   C     C_3   0.502216 0.190334 0.502330 0.092409
C23   C     C_3   0.707232 0.210502 0.917180 0.080860
C24   C     C_3   0.503727 0.810647 0.500080 0.093333
C25   C     C_3   0.499017 0.312568 0.503218 0.027709
C26   C     C_3   0.499553 0.688829 0.500054 0.041809
C27   C     C_3   0.556215 0.332408 0.594656 0.034941
C28   C     C_3   0.576481 0.718109 0.518356 0.015487
C29   C     C_3   0.521293 0.259117 0.443524 -0.234092
C30   C     C_3   0.436229 0.672541 0.413527 -0.234489
C31   C     C_3   0.758616 0.562543 0.586771 -0.227730
C32   C     C_3   0.275248 0.423909 0.475265 -0.239034
C33   C     C_3   0.773544 0.424183 0.477132 -0.225903
C34   C     C_3   0.294234 0.787559 0.082832 0.071323
C35   C     C_3   0.181082 0.514583 0.434141 -0.233544
C36   C     C_3   0.701447 0.425047 0.475970 -0.241701
C37   C     C_3   0.253908 0.517795 0.436738 -0.235331
C38   C     C_3   0.689026 0.501859 0.499415 0.052749
C39   C     C_3   0.310840 0.501242 0.500436 0.054864
C40   C     C_3   0.752024 0.513440 0.431819 -0.235420
C41   C     C_3   0.255252 0.560496 0.586520 -0.239633
C42   C     C_3   0.681616 0.516855 0.434423 -0.234711
C43   C     C_3   0.327730 0.560794 0.588289 -0.227724
C44   C     C_R   0.879170 0.499180 0.498037 0.546423
C45   C     C_3   0.705507 0.295187 0.048467 -0.065270
C46   C     C_R   0.119088 0.498984 0.498445 0.546439
C47   C     C_R   0.920385 0.420380 0.340297 0.546756
C48   C     C_R   0.079624 0.579596 0.659719 0.549706
C49   C     C_R   0.379708 0.501312 0.500244 0.545667
C50   C     C_R   0.620300 0.501936 0.499885 0.561641
C51   C     C_R   0.498441 0.380165 0.500766 0.541759
C52   C     C_R   0.497040 0.620026 0.499748 0.574726
C53   C     C_3   0.809952 0.499525 0.497747 0.052024
C54   C     C_3   0.188212 0.498928 0.498600 0.052221
C55   C     C_3   0.829270 0.562319 0.584977 -0.240748
C56   C     C_3   0.296342 0.736562 0.951392 -0.062377
C57   C     C_3   0.204076 0.422966 0.476097 -0.226852
C58   C     C_3   0.659993 0.250275 0.950866 -0.194943
C59   C     C_3   0.344076 0.782300 0.049241 -0.193337
C60   C     C_3   0.778899 0.268022 0.951898 -0.051659
C61   C     C_3   0.251426 0.707742 0.048398 -0.052732
C62   C     C_3   0.821047 0.322047 0.048471 -0.192247
C63   C     C_3   0.205954 0.659193 0.950822 -0.182954
C64   C     C_1   0.874806 0.376062 0.250641 -0.045970
C65   C     C_1   0.125395 0.623750 0.749404 -0.046479
C66   C     C_3   0.572677 0.260875 0.668459 -0.217034
C67   C     C_3   0.788453 0.293960 0.083065 0.067738
C68   C     C_3   0.503343 0.253115 0.671096 -0.428387
C69   C     C_3   0.655588 0.855231 0.587757 -0.228605
C70   C     C_3   0.663939 0.914718 0.669399 -0.438164
C71   C     C_3   0.647486 0.256252 0.607939 -0.274639
C72   C     C_3   0.715745 0.313335 0.696473 -0.494678
C73   C     C_3   0.580551 0.760804 0.431258 -0.263781
C74   C     C_3   0.653519 0.747390 0.438418 -0.488418
C75   C     C_3   0.696002 0.374286 0.087275 -0.283963
C76   C     C_3   0.686287 0.395961 0.158808 -0.454859
C77   C     C_3   0.330508 0.676859 0.913563 -0.283581
C78   C     C_3   0.212439 0.705671 0.917013 0.067043
C79   C     C_3   0.327408 0.671750 0.840257 -0.456334
C80   C     C_3   0.770821 0.308139 0.907274 -0.282216
C81   C     C_3   0.716039 0.353612 0.903880 -0.439922
C82   C     C_3   0.297259 0.668436 0.091192 -0.277142
C83   C     C_3   0.337748 0.620012 0.054653 -0.437574
C84   C     C_3   0.787511 0.211560 0.049532 -0.242677
Cu1   Cu    Cu3+1 0.437520 0.000000 0.500030 0.878439
Cu2   Cu    Cu3+1 0.562480 1.000000 0.499970 0.875504
Cu3   Cu    Cu3+1 0.000200 0.562470 0.499990 0.892825
Cu4   Cu    Cu3+1 0.999800 0.437530 0.500010 0.895197
Cu5   Cu    Cu3+1 0.458730 0.458690 0.417370 0.873369
Cu6   Cu    Cu3+1 0.541270 0.541310 0.582630 0.886982
H1    H     H_    0.750265 0.618292 0.605778 0.124306
H2    H     H_    0.185660 0.806971 0.925976 0.111044
H3    H     H_    0.723248 0.389196 0.965330 0.144976
H4    H     H_    0.725755 0.390253 0.885538 0.124550
H5    H     H_    0.826727 0.345914 0.939458 0.129312
H6    H     H_    0.754238 0.266465 0.842329 0.138984
H7    H     H_    0.298076 0.565259 0.997286 0.130722
H8    H     H_    0.367292 0.646593 0.040314 0.146843
H9    H     H_    0.379584 0.609112 0.100619 0.135341
H10   H     H_    0.338623 0.709823 0.158783 0.156410
H11   H     H_    0.258375 0.631764 0.088125 0.123576
H12   H     H_    0.609606 0.207954 0.924843 0.092161
H13   H     H_    0.373472 0.839313 0.073838 0.092069
H14   H     H_    0.681189 0.263931 0.063742 0.133028
H15   H     H_    0.298591 0.777189 0.934706 0.132371
H16   H     H_    0.844933 0.207544 0.068803 0.116084
H17   H     H_    0.126185 0.754099 0.930323 0.114637
H18   H     H_    0.408556 0.211606 0.521575 0.139156
H19   H     H_    0.536441 0.867344 0.633073 0.111592
H20   H     H_    0.379121 0.154924 0.416830 0.103876
H21   H     H_    0.315650 0.410269 0.519351 0.099766
H22   H     H_    0.440917 0.834370 0.559911 0.121862
H23   H     H_    0.380598 0.253467 0.405341 0.115659
H24   H     H_    0.433186 0.727443 0.553485 0.096178
H25   H     H_    0.776156 0.566644 0.444006 0.131711
H26   H     H_    0.260773 0.551112 0.634095 0.106706
H27   H     H_    0.398985 0.309774 0.507773 0.116848
H28   H     H_    0.531003 0.760872 0.630606 0.146328
H29   H     H_    0.456917 0.144175 0.369726 0.112987
H30   H     H_    0.381919 0.757535 0.417623 0.136220
H31   H     H_    0.486252 0.250169 0.380839 0.123516
H32   H     H_    0.881213 0.325499 0.077221 0.089342
H33   H     H_    0.381514 0.644083 0.395466 0.100797
H34   H     H_    0.579674 0.285075 0.468328 0.105184
H35   H     H_    0.445681 0.633776 0.364509 0.139660
H36   H     H_    0.609574 0.367726 0.616992 0.127728
H37   H     H_    0.579498 0.670768 0.468042 0.124620
H38   H     H_    0.766735 0.552314 0.634642 0.129582
H39   H     H_    0.260978 0.380321 0.411722 0.120787
H40   H     H_    0.673705 0.572498 0.450997 0.103038
H41   H     H_    0.367142 0.549387 0.635169 0.127991
H42   H     H_    0.760452 0.377826 0.415225 0.118147
H43   H     H_    0.146279 0.637910 0.926015 0.089780
H44   H     H_    0.169218 0.568363 0.447761 0.133267
H45   H     H_    0.812968 0.413451 0.524668 0.132007
H46   H     H_    0.133712 0.470257 0.370231 0.105425
H47   H     H_    0.736510 0.468187 0.368311 0.104436
H48   H     H_    0.246220 0.615792 0.603519 0.122820
H49   H     H_    0.853511 0.617147 0.600339 0.122820
H50   H     H_    0.211428 0.410950 0.522509 0.131278
H51   H     H_    0.705432 0.412389 0.520827 0.102458
H52   H     H_    0.240789 0.476605 0.373062 0.130756
H53   H     H_    0.653263 0.380773 0.412661 0.119513
H54   H     H_    0.686077 0.122464 0.934041 0.114277
H55   H     H_    0.278187 0.573736 0.454473 0.099628
H56   H     H_    0.631931 0.474957 0.371068 0.130046
H57   H     H_    0.354723 0.616899 0.608554 0.114407
H58   H     H_    0.871894 0.554381 0.633637 0.108085
H59   H     H_    0.155962 0.377455 0.413660 0.117491
H60   H     H_    0.637909 0.285587 0.927464 0.116530
H61   H     H_    0.389118 0.759940 0.075173 0.117207
H62   H     H_    0.816732 0.235086 0.940895 0.107512
H63   H     H_    0.209141 0.716464 0.064746 0.106628
H64   H     H_    0.819120 0.379336 0.066876 0.118462
H65   H     H_    0.262949 0.879084 0.068885 0.114055
H66   H     H_    0.222837 0.609046 0.925812 0.122842
H67   H     H_    0.521598 0.267367 0.734219 0.112270
H68   H     H_    0.471452 0.291039 0.660489 0.178100
H69   H     H_    0.466453 0.195237 0.627092 0.174755
H70   H     H_    0.596538 0.216769 0.673937 0.139415
H71   H     H_    0.613354 0.314170 0.727590 0.152794
H72   H     H_    0.624758 0.947413 0.658948 0.164839
H73   H     H_    0.658389 0.891937 0.702361 0.120927
H74   H     H_    0.720926 0.954713 0.712575 0.124518
H75   H     H_    0.703768 0.833408 0.604759 0.127363
H76   H     H_    0.764544 0.127446 0.926225 0.107267
H77   H     H_    0.668094 0.887141 0.565952 0.169287
H78   H     H_    0.498809 0.406180 0.634394 0.249112
H79   H     H_    0.582071 0.416302 0.711372 0.216381
H80   H     H_    0.645870 0.775891 0.648966 0.240377
H81   H     H_    0.687438 0.730054 0.597934 0.207929
H82   H     H_    0.582589 0.163405 0.392274 0.213067
H83   H     H_    0.548589 0.093147 0.389224 0.249287
H84   H     H_    0.373708 0.690554 0.288970 0.218873
H85   H     H_    0.405909 0.782214 0.339227 0.240907
H86   H     H_    0.709995 0.370051 0.721611 0.140653
H87   H     H_    0.199352 0.831228 0.073212 0.110740
H88   H     H_    0.724915 0.296788 0.739851 0.141403
H89   H     H_    0.766489 0.315153 0.694956 0.139950
H90   H     H_    0.654230 0.201082 0.593941 0.200232
H91   H     H_    0.654382 0.265387 0.566142 0.169449
H92   H     H_    0.697672 0.800656 0.476558 0.138280
H93   H     H_    0.674182 0.714377 0.465901 0.138242
H94   H     H_    0.643499 0.716298 0.375182 0.138666
H95   H     H_    0.536874 0.706975 0.377756 0.170248
H96   H     H_    0.567975 0.799906 0.411322 0.196444
H97   H     H_    0.635010 0.356976 0.135558 0.135628
H98   H     H_    0.768858 0.190537 0.076918 0.111119
H99   H     H_    0.734836 0.395453 0.209961 0.158576
H100  H     H_    0.680734 0.452852 0.184637 0.136022
H101  H     H_    0.744038 0.417309 0.110679 0.149404
H102  H     H_    0.645519 0.377149 0.039765 0.132921
H103  H     H_    0.269252 0.656705 0.788542 0.159005
H104  H     H_    0.359837 0.725638 0.861154 0.138162
H105  H     H_    0.352272 0.628427 0.815947 0.132637
H106  H     H_    0.390389 0.690539 0.961125 0.131963
H107  H     H_    0.302301 0.621102 0.892412 0.150559
H108  H     H_    0.657964 0.316323 0.855494 0.142145
N1    N     N_3   0.534200 0.377004 0.652895 -0.656572
N2    N     N_3   0.638087 0.728485 0.596233 -0.632667
N3    N     N_3   0.569866 0.151121 0.426107 -0.646022
N4    N     N_3   0.420338 0.736655 0.341076 -0.681432
O1    O     O_R   0.447230 0.091150 0.500010 -0.531036
O2    O     O_R   0.447240 0.908850 0.500040 -0.521657
O3    O     O_R   0.507510 0.060280 0.620590 -0.506228
O4    O     O_R   0.492490 0.939720 0.379410 -0.506076
O5    O     O_R   0.613050 0.060280 0.620540 -0.514115
O6    O     O_R   0.386950 0.939720 0.379460 -0.505296
O7    O     O_R   0.909030 0.552780 0.500030 -0.516367
O8    O     O_R   0.090970 0.447220 0.499970 -0.516488
O9    O     O_R   0.909010 0.447270 0.500050 -0.517340
O10   O     O_R   0.090990 0.552730 0.499950 -0.517365
O11   O     O_R   0.939920 0.492480 0.379430 -0.505901
O12   O     O_R   0.552770 0.908850 0.499990 -0.525868
O13   O     O_R   0.060080 0.507520 0.620570 -0.503428
O14   O     O_R   0.939890 0.386970 0.379440 -0.505922
O15   O     O_R   0.060110 0.613030 0.620560 -0.505012
O16   O     O_R   0.373940 0.465070 0.430170 -0.519165
O17   O     O_R   0.626060 0.534930 0.569830 -0.507990
O18   O     O_R   0.443640 0.534850 0.569740 -0.524640
O19   O     O_R   0.556360 0.465150 0.430260 -0.517418
O20   O     O_R   0.465150 0.373960 0.430230 -0.516402
O21   O     O_R   0.534850 0.626040 0.569770 -0.482135
O22   O     O_R   0.534860 0.443740 0.569790 -0.523417
O23   O     O_R   0.465140 0.556260 0.430210 -0.529756
O24   O     O_R   0.552760 0.091150 0.499960 -0.504528

loop_
_geom_bond_atom_site_label_1
_geom_bond_atom_site_label_2
_ccdc_geom_bond_type
C1    O24   A    
C23   C58   S    
C66   C68   S    
Cu3   Cu4   S    
C50   O19   A    
H78   N1    S    
Cu3   O7    S    
Cu3   O10   S    
C71   H91   S    
C3    C23   S    
C72   H88   S    
C4    H87   S    
C5    C67   S    
C16   O5    A    
C70   H73   S    
Cu2   O4    S    
H80   N2    S    
C73   H96   S    
C79   H105  S    
Cu1   Cu2   S    
C5    C64   T    
C28   N2    S    
C79   H104  S    
C62   C67   S    
C63   H43   S    
C60   C62   S    
C17   O4    A    
Cu4   O13   S    
C77   H106  S    
C20   N3    S    
C38   C42   S    
C21   H30   S    
C61   C82   S    
Cu5   O19   S    
C11   C14   S    
C46   O10   A    
C6    C78   S    
C40   H25   S    
C74   H94   S    
C10   C17   S    
C29   H34   S    
C2    H17   S    
H84   N4    S    
C33   C36   S    
C56   C78   S    
H83   N3    S    
C44   O7    A    
C60   H62   S    
C32   C39   S    
C61   C63   S    
C56   C59   S    
C13   H19   S    
C76   H99   S    
Cu1   O2    S    
Cu5   O16   S    
C44   C53   S    
C6    C65   T    
Cu4   O9    S    
C57   H59   S    
C45   C67   S    
C84   H16   S    
C58   H12   S    
C12   O12   A    
C48   C65   S    
C80   H6    S    
C68   H69   S    
Cu6   O18   S    
C28   H37   S    
C20   C29   S    
C40   C42   S    
C48   O13   A    
C3    H76   S    
C1    C22   S    
C83   H9    S    
C40   H47   S    
C35   C54   S    
C25   C29   S    
C41   C43   S    
H82   N3    S    
C32   C57   S    
C84   H98   S    
C68   H68   S    
C70   H72   S    
C35   H44   S    
C66   H70   S    
C32   H39   S    
C48   O15   A    
C53   C55   S    
C73   C74   S    
C33   C53   S    
C23   C60   S    
C41   C54   S    
C4    C34   S    
C45   C58   S    
C15   H24   S    
C37   H52   S    
C3    H54   S    
C49   O18   A    
Cu1   O3    S    
C19   C73   S    
C76   H100  S    
C16   O3    A    
Cu5   O20   S    
C15   C26   S    
C39   C43   S    
C74   H93   S    
C3    C84   S    
C46   O8    A    
C83   H8    S    
C34   C61   S    
C56   C77   S    
C62   H64   S    
C66   H71   S    
C29   H31   S    
C71   H90   S    
Cu2   O5    S    
C75   H101  S    
C75   C76   S    
Cu2   O12   S    
Cu6   O22   S    
H81   N2    S    
C2    C78   S    
C45   H14   S    
C26   C52   S    
C81   H3    S    
C33   H45   S    
C51   O22   A    
C14   H27   S    
C47   O14   A    
C46   C54   S    
Cu6   O17   S    
C77   C79   S    
C27   N1    S    
C55   H49   S    
C42   H40   S    
C8    C34   S    
C13   H22   S    
C80   H5    S    
C2    H2    S    
C19   C28   S    
C41   H48   S    
C76   H97   S    
C74   H92   S    
C31   H38   S    
C33   H42   S    
C39   C49   S    
C20   C22   S    
C26   C30   S    
C31   H1    S    
C69   H77   S    
C81   H108  S    
C37   H55   S    
C34   C59   S    
Cu2   O24   S    
C19   C69   S    
C18   C66   S    
C41   H26   S    
C68   H67   S    
C42   H56   S    
C62   H32   S    
Cu3   O15   S    
C13   C24   S    
C61   H63   S    
C18   C71   S    
C7    C9    T    
C36   H51   S    
C50   O17   A    
C60   C80   S    
Cu4   O14   S    
C35   C37   S    
C18   C22   S    
C82   H10   S    
C21   N4    S    
C36   H53   S    
C17   O6    A    
C18   C27   S    
H85   N4    S    
Cu5   O23   S    
C80   C81   S    
C70   H74   S    
C35   H46   S    
C63   H66   S    
C32   H21   S    
C73   H95   S    
C47   C64   S    
C31   C38   S    
C38   C50   S    
C59   H61   S    
C25   C27   S    
C14   H23   S    
C21   C30   S    
C12   C24   S    
C11   C22   S    
C26   C28   S    
C25   C51   S    
C79   H103  S    
C15   H28   S    
H79   N1    S    
C49   O16   A    
C45   C75   S    
C44   O9    A    
C59   H13   S    
C13   C15   S    
C75   H102  S    
Cu6   O21   S    
C37   C39   S    
C36   C38   S    
C81   H4    S    
C55   H58   S    
Cu3   O11   S    
C7    C23   S    
C2    C4    S    
C47   O11   A    
C43   H41   S    
C27   H36   S    
C82   H11   S    
C19   C24   S    
C12   O2    A    
C14   C25   S    
C69   C70   S    
C72   H86   S    
C69   H75   S    
C56   H15   S    
C30   H35   S    
C43   H57   S    
Cu1   O1    S    
C40   C53   S    
C52   O23   A    
C67   C84   S    
C4    H65   S    
C71   C72   S    
C30   H33   S    
C57   H50   S    
C52   O21   A    
C8    C10   T    
C82   C83   S    
C83   H7    S    
C21   C24   S    
C11   H18   S    
Cu4   O8    S    
C51   O20   A    
C72   H89   S    
C31   C55   S    
Cu5   Cu6   S    
C77   H107  S    
C54   C57   S    
C20   H29   S    
C58   H60   S    
Cu1   O6    S    
C9    C16   S    
C11   H20   S    
C63   C78   S    
C1    O1    A    
