data_mof_unit_18123.cif
_audit_creation_date              2012-12-11T16:08:52-0500
_audit_creation_method            fapswitch 2.2
_symmetry_space_group_name_H-M    P1
_symmetry_Int_Tables_number       1
_space_group_crystal_system       triclinic
_cell_length_a                    19.79808
_cell_length_b                    19.828207
_cell_length_c                    19.842057
_cell_angle_alpha                 110.542707
_cell_angle_beta                  107.043075
_cell_angle_gamma                 110.617732
_cell_volume                      6005.95520051

loop_
_atom_site_label
_atom_site_type_symbol
_atom_type_description
_atom_site_fract_x
_atom_site_fract_y
_atom_site_fract_z
_atom_type_partial_charge
C1    C     C_R   0.658548 0.930506 0.928453 -0.142291
C2    C     C_3   0.534713 0.530828 0.016956 0.633463
C3    C     C_R   0.041579 0.421947 0.668990 -0.087771
C4    C     C_R   0.024840 0.486657 0.694126 -0.105301
C5    C     C_R   0.009761 0.521362 0.645069 -0.160345
C6    C     C_R   0.003649 0.099887 0.061265 0.128033
C7    C     C_R   0.020747 0.077996 0.121734 -0.149221
C8    C     C_R   0.030802 0.127158 0.198558 -0.112211
C9    C     C_R   0.023865 0.198318 0.215521 -0.085625
C10   C     C_R   0.006976 0.220533 0.155711 -0.115434
C11   C     C_R   0.996992 0.171620 0.078885 -0.158775
C12   C     C_R   0.952996 0.908815 0.742774 0.122644
C13   C     C_3   0.661248 0.626164 0.107979 -0.070721
C14   C     C_R   0.891542 0.824292 0.689194 -0.141379
C15   C     C_R   0.880360 0.781929 0.610103 -0.124065
C16   C     C_R   0.930372 0.823482 0.584020 -0.102391
C17   C     C_R   0.991920 0.907403 0.637119 -0.104568
C18   C     C_R   0.003194 0.950033 0.716197 -0.147619
C19   C     C_R   0.630490 0.267847 0.284349 0.103626
C20   C     C_R   0.686323 0.325599 0.367980 -0.151308
C21   C     C_R   0.660087 0.360709 0.421813 -0.118691
C22   C     C_R   0.577611 0.337695 0.393337 -0.083188
C23   C     C_R   0.521109 0.278649 0.311221 -0.125309
C24   C     C_3   0.519918 0.508301 0.079615 -0.111504
C25   C     C_R   0.547176 0.243460 0.257242 -0.165706
C26   C     C_R   0.352706 0.756496 0.698234 0.123708
C27   C     C_R   0.318400 0.752855 0.623336 -0.145105
C28   C     C_R   0.336796 0.717840 0.561667 -0.117563
C29   C     C_R   0.388755 0.685561 0.574063 -0.090654
C30   C     C_R   0.422264 0.688038 0.648085 -0.129135
C31   C     C_R   0.404225 0.723199 0.710037 -0.171408
C32   C     C_3   0.413914 0.826067 0.203631 0.179065
C33   C     C_3   0.482744 0.804949 0.216382 -0.339126
C34   C     C_3   0.496178 0.780578 0.281921 -0.999888
C35   C     C_1   0.534772 0.715819 0.033142 -0.046661
C36   C     C_3   0.613041 0.185512 0.824987 0.149085
C37   C     C_3   0.689440 0.234182 0.820559 -0.231345
C38   C     C_3   0.672209 0.272602 0.767746 -1.038718
C39   C     C_R   0.738885 0.697242 0.126736 0.185138
C40   C     C_R   0.781828 0.683555 0.083197 -0.174997
C41   C     C_R   0.852795 0.750840 0.100078 -0.129707
C42   C     C_R   0.881226 0.832017 0.160332 -0.101816
C43   C     C_R   0.838920 0.846001 0.204088 -0.140902
C44   C     C_R   0.768049 0.778884 0.187488 -0.125760
C45   C     C_R   0.442414 0.444288 0.069978 0.175891
C46   C     C_1   0.581756 0.364193 0.080971 -0.058575
C47   C     C_R   0.365317 0.409273 0.003817 -0.172784
C48   C     C_R   0.294731 0.349078 0.995516 -0.131641
C49   C     C_R   0.300278 0.324079 0.053605 -0.076662
C50   C     C_R   0.376296 0.360155 0.120775 -0.131387
C51   C     C_R   0.446896 0.420584 0.129440 -0.141272
C52   C     C_3   0.564772 0.602010 0.145479 -0.460907
C53   C     C_3   0.617048 0.532778 0.042172 -0.432116
C54   C     C_3   0.578772 0.623598 0.081304 -0.004737
C55   C     C_3   0.602518 0.509525 0.105419 -0.017117
C56   C     C_1   0.557325 0.676826 0.057557 0.044651
C57   C     C_R   0.334291 0.071350 0.031492 -0.150088
C58   C     C_1   0.599850 0.434488 0.100255 -0.006915
C59   C     C_3   0.681948 0.058724 0.587143 0.074711
C60   C     C_3   0.523611 0.966268 0.477580 0.073105
C61   C     C_R   0.537017 0.069517 0.236587 -0.209744
C62   C     C_R   0.505762 0.932434 0.773825 -0.218035
C63   C     C_3   0.644439 0.980397 0.502332 -0.221037
C64   C     C_3   0.561105 0.044112 0.560669 -0.196103
C65   C     C_1   0.548103 0.006512 0.322305 -0.033155
C66   C     C_1   0.580916 0.003734 0.717134 0.016246
C67   C     C_3   0.631853 0.091693 0.547269 -0.221729
C68   C     C_R   0.514147 0.000456 0.245378 -0.089037
C69   C     C_3   0.573186 0.932801 0.516230 -0.218595
C70   C     C_3   0.593623 0.013154 0.463979 0.144576
C71   C     C_3   0.611240 0.011080 0.599686 0.165233
C72   C     C_1   0.573537 0.011152 0.387102 -0.060244
C73   C     C_1   0.601626 0.006827 0.667307 -0.098701
C74   C     C_3   0.961323 0.598827 0.429431 0.075514
C75   C     C_3   0.994597 0.529445 0.518184 0.077515
C76   C     C_3   0.965363 0.625237 0.514707 -0.233395
C77   C     C_3   0.991847 0.504206 0.434518 -0.209217
C78   C     C_1   0.180649 0.715922 0.683278 -0.028646
C79   C     C_R   0.548332 0.002409 0.771453 -0.071338
C80   C     C_1   0.790317 0.361618 0.281315 -0.038050
C81   C     C_3   0.041891 0.597374 0.460967 -0.211610
C82   C     C_3   0.914998 0.531574 0.487676 -0.213031
C83   C     C_3   0.044160 0.621444 0.544471 0.155565
C84   C     C_3   0.912231 0.506716 0.403762 0.162441
C85   C     C_R   0.728873 0.227908 0.156712 -0.146119
C86   C     C_R   0.263169 0.791159 0.833457 -0.144020
C87   C     C_1   0.118381 0.676167 0.620984 -0.064790
C88   C     C_1   0.843062 0.431231 0.332569 -0.086547
C89   C     C_3   0.997398 0.968063 0.947688 -0.209275
C90   C     C_R   0.731761 0.275838 0.227718 0.043908
C91   C     C_3   0.955979 0.035056 0.856853 -0.230880
C92   C     C_3   0.990187 0.046547 0.977271 0.080641
C93   C     C_3   0.964413 0.956159 0.827201 0.074521
C94   C     C_1   0.787482 0.000284 0.925083 -0.034786
C95   C     C_1   0.183437 0.002456 0.948124 -0.045009
C96   C     C_3   0.916162 0.922041 0.867750 -0.214570
C97   C     C_3   0.038014 0.080894 0.937120 -0.231984
C98   C     C_3   0.909509 0.001069 0.898210 0.162837
C99   C     C_3   0.044612 0.001855 0.906691 0.161277
C100  C     C_1   0.839410 0.000316 0.906459 -0.067056
C101  C     C_R   0.255432 0.762985 0.756245 0.043908
C102  C     C_1   0.120704 0.002281 0.924382 -0.065340
C103  C     C_R   0.455826 0.787797 0.023867 -0.141545
C104  C     C_R   0.574257 0.230855 0.004069 -0.140550
C105  C     C_R   0.659496 0.231488 0.227409 0.024270
C106  C     C_R   0.332970 0.792249 0.763197 0.025912
C107  C     C_R   0.532323 0.794983 0.960471 -0.127886
C108  C     C_R   0.502760 0.230466 0.071877 -0.135637
C109  C     C_R   0.459055 0.929587 0.167157 0.557215
C110  C     C_R   0.569402 0.071323 0.841465 0.525502
C111  C     C_R   0.728533 0.069979 0.998915 -0.101123
C112  C     C_R   0.506870 0.761605 0.004569 0.072873
C113  C     C_R   0.263094 0.931539 0.965335 -0.118794
C114  C     C_R   0.730412 0.000276 0.954205 0.095708
C115  C     C_R   0.256891 0.001982 0.980719 0.098013
C116  C     C_3   0.685710 0.645638 0.308430 0.203759
C117  C     C_3   0.702226 0.734750 0.354098 -0.304494
C118  C     C_3   0.673403 0.745791 0.418528 -1.020304
C119  C     C_3   0.458755 0.416424 0.884280 0.165769
C120  C     C_3   0.498118 0.419878 0.828755 -0.259485
C121  C     C_3   0.487469 0.335132 0.777367 -1.051741
C122  C     C_R   0.772368 0.111937 0.646174 0.124803
C123  C     C_R   0.550039 0.277648 0.049208 0.090012
C124  C     C_R   0.826426 0.152381 0.622310 -0.151346
C125  C     C_R   0.910637 0.202990 0.676357 -0.108891
C126  C     C_R   0.941472 0.213658 0.754631 -0.093179
C127  C     C_R   0.888139 0.173557 0.778846 -0.120565
C128  C     C_R   0.803936 0.122523 0.724806 -0.160081
C129  C     C_R   0.433428 0.917760 0.417783 0.115853
C130  C     C_R   0.385658 0.831815 0.387634 -0.162095
C131  C     C_R   0.302253 0.787665 0.331370 -0.128777
C132  C     C_R   0.265902 0.828928 0.305129 -0.094217
C133  C     C_R   0.312860 0.914515 0.335305 -0.111172
C134  C     C_3   0.647035 0.602066 0.170773 0.609723
C135  C     C_R   0.396262 0.958896 0.391594 -0.169612
C136  C     C_R   0.946116 0.642037 0.382692 0.113295
C137  C     C_R   0.996160 0.729066 0.421002 -0.172163
C138  C     C_R   0.983577 0.770737 0.378822 -0.141596
C139  C     C_R   0.921484 0.725744 0.297905 -0.072705
C140  C     C_R   0.871659 0.639078 0.259123 -0.018273
C141  C     C_R   0.883499 0.597254 0.301382 -0.166861
C142  C     C_R   0.011537 0.491653 0.570471 0.125353
C143  C     C_R   0.028432 0.426595 0.545597 -0.143624
C144  C     C_R   0.043356 0.391948 0.594795 -0.114748
H1    H     H_    0.635466 0.867266 0.881902 0.097361
H2    H     H_    0.002050 0.454470 0.399815 0.117149
H3    H     H_    0.358957 0.428867 0.959123 0.147906
H4    H     H_    0.235607 0.322020 0.944136 0.106615
H5    H     H_    0.245616 0.277328 0.046949 0.096674
H6    H     H_    0.380557 0.341355 0.166198 0.106013
H7    H     H_    0.505211 0.448147 0.182127 0.105590
H8    H     H_    0.862182 0.503859 0.497856 0.120970
H9    H     H_    0.095047 0.625549 0.451401 0.125199
H10   H     H_    0.015162 0.939753 0.984014 0.116592
H11   H     H_    0.937291 0.061290 0.818655 0.133973
H12   H     H_    0.578860 0.132979 0.285750 0.157865
H13   H     H_    0.496302 0.871949 0.736786 0.162412
H14   H     H_    0.088944 0.145832 0.965931 0.119790
H15   H     H_    0.865189 0.857569 0.840510 0.117300
H16   H     H_    0.769113 0.248737 0.132410 0.108754
H17   H     H_    0.350765 0.136141 0.055931 0.105177
H18   H     H_    0.214216 0.770872 0.848109 0.105127
H19   H     H_    0.417424 0.762725 0.047249 0.166417
H20   H     H_    0.622817 0.254642 0.989634 0.139530
H21   H     H_    0.570965 0.785213 0.933980 0.104266
H22   H     H_    0.483550 0.253620 0.116258 0.099173
H23   H     H_    0.769375 0.133730 0.017109 0.107399
H24   H     H_    0.212511 0.868556 0.933039 0.094764
H25   H     H_    0.722315 0.634405 0.353051 0.127018
H26   H     H_    0.620262 0.598295 0.283079 0.078988
H27   H     H_    0.769135 0.779735 0.384460 0.210483
H28   H     H_    0.638851 0.503177 0.001580 0.149050
H29   H     H_    0.670116 0.749400 0.310130 0.188140
H30   H     H_    0.606293 0.702460 0.389221 0.266513
H31   H     H_    0.686403 0.810967 0.450465 0.273649
H32   H     H_    0.706210 0.733349 0.464374 0.269932
H33   H     H_    0.391241 0.375620 0.844974 0.117131
H34   H     H_    0.477907 0.385910 0.917780 0.097162
H35   H     H_    0.469263 0.438947 0.787470 0.202069
H36   H     H_    0.564584 0.467175 0.866087 0.193465
H37   H     H_    0.518103 0.316139 0.817590 0.265161
H38   H     H_    0.515678 0.339392 0.737104 0.273913
H39   H     H_    0.542343 0.630779 0.185906 0.167760
H40   H     H_    0.421306 0.286820 0.738528 0.270431
H41   H     H_    0.803266 0.144861 0.561902 0.111671
H42   H     H_    0.951944 0.234039 0.657584 0.102434
H43   H     H_    0.006646 0.252969 0.796498 0.095763
H44   H     H_    0.912054 0.181990 0.839557 0.105352
H45   H     H_    0.764159 0.091766 0.744842 0.116902
H46   H     H_    0.412565 0.798556 0.406863 0.109285
H47   H     H_    0.265811 0.721380 0.308009 0.108464
H48   H     H_    0.201355 0.794607 0.261484 0.103790
H49   H     H_    0.284672 0.946458 0.314992 0.110187
H50   H     H_    0.678784 0.954719 0.477307 0.132383
H51   H     H_    0.432054 0.025167 0.414339 0.118478
H52   H     H_    0.044746 0.764636 0.483638 0.115705
H53   H     H_    0.022151 0.837878 0.408789 0.111521
H54   H     H_    0.912210 0.758043 0.265283 0.127572
H55   H     H_    0.823638 0.604299 0.196345 0.120344
H56   H     H_    0.844123 0.530258 0.270116 0.119076
H57   H     H_    0.030065 0.402421 0.488406 0.100318
H58   H     H_    0.056282 0.341781 0.575369 0.104089
H59   H     H_    0.053167 0.395071 0.706981 0.096478
H60   H     H_    0.023458 0.509876 0.751587 0.107058
H61   H     H_    0.526232 0.069892 0.584641 0.119736
H62   H     H_    0.996716 0.571399 0.665163 0.110509
H63   H     H_    0.025746 0.022853 0.109713 0.098632
H64   H     H_    0.043711 0.109907 0.244879 0.101958
H65   H     H_    0.031476 0.236166 0.274950 0.097288
H66   H     H_    0.001421 0.275538 0.168804 0.104877
H67   H     H_    0.983438 0.189209 0.032860 0.107229
H68   H     H_    0.851862 0.791090 0.707988 0.099594
H69   H     H_    0.832744 0.716905 0.568910 0.104740
H70   H     H_    0.921361 0.790656 0.522691 0.116934
H71   H     H_    0.030689 0.939520 0.616891 0.104601
H72   H     H_    0.551051 0.868289 0.505405 0.125780
H73   H     H_    0.050743 0.015229 0.756602 0.109053
H74   H     H_    0.750040 0.342403 0.392394 0.116972
H75   H     H_    0.703699 0.405301 0.485820 0.103483
H76   H     H_    0.557305 0.364737 0.435110 0.098179
H77   H     H_    0.456862 0.259554 0.289415 0.106237
H78   H     H_    0.501665 0.196037 0.195082 0.122279
H79   H     H_    0.278448 0.778080 0.613108 0.111865
H80   H     H_    0.310850 0.715818 0.504302 0.108538
H81   H     H_    0.402972 0.658543 0.526277 0.100725
H82   H     H_    0.462329 0.662847 0.657519 0.111117
H83   H     H_    0.655674 0.156745 0.559301 0.131607
H84   H     H_    0.430549 0.724764 0.767122 0.118086
H85   H     H_    0.356306 0.768116 0.180680 0.138064
H86   H     H_    0.421135 0.871587 0.260813 0.133185
H87   H     H_    0.465966 0.751222 0.158585 0.201015
H88   H     H_    0.541112 0.858847 0.233959 0.201491
H89   H     H_    0.516060 0.833568 0.341604 0.277489
H90   H     H_    0.544696 0.763863 0.288163 0.269222
H91   H     H_    0.438792 0.725865 0.265035 0.264426
H92   H     H_    0.593695 0.229204 0.853520 0.106416
H93   H     H_    0.562009 0.138423 0.761368 0.087683
H94   H     H_    0.956033 0.675884 0.549014 0.133449
H95   H     H_    0.739307 0.284770 0.883268 0.195609
H96   H     H_    0.710552 0.191427 0.794210 0.202691
H97   H     H_    0.623559 0.222948 0.704311 0.268841
H98   H     H_    0.728841 0.307138 0.765712 0.272835
H99   H     H_    0.652448 0.316916 0.793780 0.271145
H100  H     H_    0.760586 0.621255 0.036099 0.110932
H101  H     H_    0.885678 0.740066 0.066317 0.111125
H102  H     H_    0.936066 0.884022 0.173192 0.102771
H103  H     H_    0.861004 0.908838 0.250825 0.113249
H104  H     H_    0.735585 0.790538 0.221551 0.107975
N1    N     N_R   0.613530 0.956740 0.956480 -0.044349
N2    N     N_R   0.386500 0.842990 0.843230 -0.062741
N3    N     N_R   0.499770 0.842990 0.956480 -0.049014
N4    N     N_R   0.500230 0.157010 0.043520 -0.049168
N5    N     N_R   0.456470 0.956710 0.113500 -0.082794
N6    N     N_R   0.543530 0.043290 0.886500 -0.084974
N7    N     N_R   0.656800 0.043290 0.999750 -0.044540
N8    N     N_R   0.343200 0.956710 0.000250 -0.041135
N9    N     N_R   0.386470 0.043260 0.043520 -0.048962
N10   N     N_R   0.499750 0.043260 0.156770 -0.073998
N11   N     N_R   0.500250 0.956740 0.843230 -0.069669
N12   N     N_R   0.656790 0.157020 0.113500 -0.046628
N13   N     N_R   0.343210 0.842980 0.886500 -0.047223
N14   N     N_R   0.456490 0.842980 0.999750 -0.042095
N15   N     N_R   0.543510 0.157020 0.000250 -0.041398
N16   N     N_R   0.613500 0.157010 0.156770 -0.061692
Ni1   Ni    Ni4+2 0.500010 0.900760 0.900750 0.197918
Ni2   Ni    Ni4+2 0.499990 0.099240 0.099250 0.197679
Ni3   Ni    Ni4+2 0.599260 0.099260 0.000000 0.234843
Ni4   Ni    Ni4+2 0.400740 0.900740 0.000000 0.240196
O1    O     O_3   0.712545 0.637795 0.249052 -0.676136
O2    O     O_3   0.475530 0.497354 0.935876 -0.678059
O3    O     O_3   0.401051 0.849213 0.143317 -0.701719
O4    O     O_3   0.632715 0.151556 0.874854 -0.685172

loop_
_geom_bond_atom_site_label_1
_geom_bond_atom_site_label_2
_ccdc_geom_bond_type
C78   C87   T    
C24   C52   S    
C83   C87   S    
C107  H21   S    
C126  C127  A    
C131  H47   S    
C3    H59   S    
C41   C42   A    
C30   H82   S    
C1    H1    S    
C19   C20   A    
C38   H97   S    
C52   H39   S    
C29   H81   S    
C15   H69   S    
C26   C106  S    
C113  H24   S    
C94   C114  S    
C139  H54   S    
C92   C98   S    
C7    C8    A    
C57   C115  A    
C104  C123  A    
C109  O3    S    
C24   C55   S    
N15   Ni3   S    
C66   C79   S    
C86   C101  A    
C26   C27   A    
C37   C38   S    
C74   C76   S    
C108  N4    A    
C24   C45   S    
N6    N11   A    
C21   C22   A    
C28   C29   A    
C140  H55   S    
C13   C54   S    
C81   H9    S    
N14   Ni4   S    
C124  H41   S    
C1    N1    A    
C4    H60   S    
C45   C51   A    
C143  C144  A    
C36   H93   S    
C52   C134  S    
C116  C117  S    
C76   H94   S    
C128  H45   S    
C13   C134  S    
C64   C71   S    
N1    Ni1   S    
C8    H64   S    
C109  N5    A    
C117  H27   S    
C22   H76   S    
N4    N15   A    
C59   C67   S    
C5    H62   S    
C129  C135  A    
C41   H101  S    
N5    N10   A    
C10   H66   S    
C42   H102  S    
C63   C69   S    
C43   H103  S    
C16   C17   A    
C62   N11   A    
C74   C136  S    
C116  H25   S    
C36   C37   S    
C108  H22   S    
C86   H18   S    
C141  H56   S    
C60   C70   S    
C27   H79   S    
C33   H88   S    
C9    C10   A    
N3    Ni1   S    
C86   N13   A    
C53   H28   S    
C95   C102  T    
N12   N16   A    
C132  H48   S    
C68   C109  A    
C9    H65   S    
C11   H67   S    
C59   C122  S    
C53   C55   S    
N8    Ni4   S    
C137  H52   S    
C118  H32   S    
C26   C31   A    
C91   C98   S    
C113  N8    A    
C31   H84   S    
C46   C58   T    
C78   C101  S    
C80   C90   S    
N16   Ni2   S    
C65   C72   T    
C69   H72   S    
C61   N10   A    
C32   H86   S    
C2    O2    S    
C34   H91   S    
C76   C83   S    
C97   C99   S    
C52   C54   S    
C92   C97   S    
C50   C51   A    
C6    C7    A    
C13   C53   S    
C45   C47   A    
N5    Ni4   S    
C111  N7    A    
C38   H98   S    
C85   C90   A    
C54   C56   S    
N6    Ni3   S    
C63   H50   S    
C69   C71   S    
C15   C16   A    
C3    C144  A    
C64   C67   S    
C23   H77   S    
C62   C79   A    
C140  C141  A    
N2    Ni1   S    
N13   Ni4   S    
C7    H63   S    
C2    C54   S    
C95   C115  S    
C6    C11   A    
C71   C73   S    
C8    C9    A    
C37   H96   S    
N12   Ni3   S    
N3    N14   A    
C77   C84   S    
C66   C73   T    
C135  H51   S    
C3    C4    A    
C96   C98   S    
C103  C112  A    
C134  O1    S    
C38   H99   S    
C43   C44   A    
C104  H20   S    
N2    N13   A    
C91   H11   S    
C29   C30   A    
N11   Ni1   S    
C75   C142  S    
C91   C93   S    
C94   C100  T    
C50   H6    S    
C47   C48   A    
C63   C70   S    
C67   H83   S    
C28   H80   S    
C65   C68   S    
N8    N9    A    
C99   C102  S    
C17   C18   A    
C36   O4    S    
C62   H13   S    
C116  H26   S    
C25   H78   S    
C107  C112  A    
C91   C97   S    
C89   C92   S    
C16   H70   S    
C75   C77   S    
C127  H44   S    
C40   H100  S    
C35   C112  S    
C121  H40   S    
C144  H58   S    
C19   C105  S    
N4    Ni2   S    
C40   C41   A    
C104  N15   A    
C12   C14   A    
C118  H31   S    
N1    N7    A    
C93   C96   S    
C82   C84   S    
C10   C11   A    
C2    C24   S    
C125  C126  A    
C49   C50   A    
C46   C123  S    
C111  H23   S    
C1    C114  A    
C108  C123  A    
C76   C82   S    
C127  C128  A    
N10   Ni2   S    
C61   H12   S    
C39   C40   A    
C120  C121  S    
C121  H38   S    
C121  H37   S    
C129  C130  A    
C137  C138  A    
C117  H29   S    
C101  C106  A    
C119  O2    S    
C93   C99   S    
C32   H85   S    
C126  H43   S    
C21   H75   S    
C79   C110  A    
C143  H57   S    
C35   C56   T    
C142  C143  A    
C20   H74   S    
C120  H35   S    
C22   C23   A    
N9    Ni2   S    
C84   C88   S    
C90   C105  A    
C74   C84   S    
C4    C5    A    
C89   C99   S    
C2    C53   S    
C60   C129  S    
C81   C83   S    
C139  C140  A    
C75   C82   S    
C39   C44   A    
C49   H5    S    
C36   H92   S    
C55   C134  S    
C119  H33   S    
C64   H61   S    
C103  H19   S    
C107  N3    A    
C60   C64   S    
C67   C70   S    
C32   C33   S    
C106  N2    A    
C89   C96   S    
C130  C131  A    
C120  H36   S    
C14   H68   S    
C80   C88   T    
C47   H3    S    
C17   H71   S    
C117  C118  S    
C97   H14   S    
C110  O4    S    
C18   H73   S    
C61   C68   A    
C75   C83   S    
C89   H10   S    
C30   C31   A    
N7    Ni3   S    
C60   C69   S    
C110  N6    A    
C105  N16   A    
C48   C49   A    
C48   H4    S    
C57   N9    A    
C136  C141  A    
C33   C34   S    
C59   C63   S    
C132  C133  A    
C111  C114  A    
C6    C92   S    
C23   C25   A    
C85   N12   A    
C122  C128  A    
C131  C132  A    
C12   C93   S    
C98   C100  S    
C82   H8    S    
C13   C39   S    
C37   H95   S    
C138  C139  A    
C44   H104  S    
C19   C25   A    
C51   H7    S    
C138  H53   S    
C130  H46   S    
C85   H16   S    
C96   H15   S    
C57   H17   S    
C20   C21   A    
C118  H30   S    
C133  H49   S    
C119  C120  S    
C42   C43   A    
C55   C58   S    
C12   C18   A    
C27   C28   A    
C133  C135  A    
C119  H34   S    
C14   C15   A    
C125  H42   S    
C32   O3    S    
C70   C72   S    
C74   C81   S    
C5    C142  A    
C113  C115  A    
C33   H87   S    
C34   H89   S    
C122  C124  A    
C77   H2    S    
C103  N14   A    
C136  C137  A    
C116  O1    S    
C59   C71   S    
C124  C125  A    
C77   C81   S    
C34   H90   S    
