data_mof_unit_34985.cif
_audit_creation_date              2012-12-10T16:51:32-0500
_audit_creation_method            fapswitch 2.2
_symmetry_space_group_name_H-M    P1
_symmetry_Int_Tables_number       1
_space_group_crystal_system       triclinic
_cell_length_a                    7.851773
_cell_length_b                    8.589829
_cell_length_c                    12.1328
_cell_angle_alpha                 92.872332
_cell_angle_beta                  101.462954
_cell_angle_gamma                 93.637967
_cell_volume                      798.715680847

loop_
_atom_site_label
_atom_site_type_symbol
_atom_type_description
_atom_site_fract_x
_atom_site_fract_y
_atom_site_fract_z
_atom_type_partial_charge
C1    C     C_R   0.042207 0.793515 0.492880 0.835652
C2    C     C_R   0.159500 0.503910 0.831764 -0.116544
C3    C     C_2   0.059418 0.953696 0.474866 0.349498
C4    C     C_R   0.106188 0.503837 0.710134 0.836644
C5    C     C_2   0.933585 0.041867 0.497855 -0.536953
C6    C     C_R   0.955094 0.205434 0.499318 0.961187
C7    C     C_R   0.892288 0.488190 0.289826 0.836695
C8    C     C_R   0.811568 0.288277 0.002437 -0.190947
C9    C     C_R   0.829865 0.456784 0.170171 -0.057389
C10   C     C_R   0.072991 0.594071 0.899834 -0.175828
C11   C     C_R   0.143918 0.623600 0.013649 -0.132271
C12   C     C_R   0.396371 0.483221 0.989804 0.079835
C13   C     C_R   0.305935 0.571776 0.058419 -0.205862
C14   C     C_3   0.622267 0.761031 0.641307 -0.108158
C15   C     C_3   0.177054 0.994017 0.321162 -0.292328
C16   C     C_R   0.311189 0.433253 0.879506 0.078620
C17   C     C_R   0.568898 0.443244 0.026683 0.080631
C18   C     C_R   0.642683 0.333005 0.962258 0.164526
C19   C     C_R   0.545470 0.267275 0.860119 -0.231175
C20   C     C_R   0.381541 0.317008 0.818861 -0.170904
C21   C     C_R   0.671282 0.512775 0.125391 -0.272748
C22   C     C_R   0.903656 0.347253 0.108052 -0.191055
H1    H     H_    0.027599 0.302627 0.142991 0.148869
H2    H     H_    0.605820 0.828468 0.564628 0.154329
H3    H     H_    0.760641 0.744849 0.676822 0.164090
H4    H     H_    0.572497 0.830761 0.705935 0.121073
H5    H     H_    0.597259 0.179612 0.811167 0.142732
H6    H     H_    0.064033 0.058328 0.281932 0.147221
H7    H     H_    0.156617 0.868376 0.290946 0.144243
H8    H     H_    0.293528 0.044211 0.292791 0.180357
H9    H     H_    0.816440 0.993954 0.522041 0.142930
H10   H     H_    0.466596 0.387298 0.407402 0.146803
H11   H     H_    0.868749 0.203215 0.954633 0.131221
H12   H     H_    0.626810 0.606410 0.172600 0.145450
H13   H     H_    0.953700 0.646010 0.864379 0.151232
H14   H     H_    0.355233 0.599293 0.147248 0.134710
H15   H     H_    0.076365 0.691805 0.066495 0.135363
H16   H     H_    0.309622 0.262385 0.739510 0.166729
N1    N     N_2   0.434800 0.456690 0.470850 -0.078429
N2    N     N_2   0.565200 0.543310 0.529150 0.128817
O1    O     O_R   0.893060 0.738880 0.507150 -0.677538
O2    O     O_3   0.207640 0.012168 0.439821 -0.571913
O3    O     O_R   0.172250 0.711130 0.488470 -0.560273
O4    O     O_R   0.944700 0.520730 0.667600 -0.621231
O5    O     O_R   0.223890 0.492980 0.648920 -0.547995
O6    O     O_R   0.827750 0.288870 0.511530 -0.630323
O7    O     O_R   0.106940 0.261120 0.492850 -0.555421
O8    O     O_R   0.776110 0.507020 0.351080 -0.634760
O9    O     O_R   0.055300 0.479270 0.332400 -0.636556
O10   O     O_3   0.523429 0.617559 0.619424 -0.485123
Zn1   Zn    Zn3+2 0.813580 0.518530 0.512470 0.956218
Zn2   Zn    Zn3+2 0.186420 0.481470 0.487530 1.016050

loop_
_geom_bond_atom_site_label_1
_geom_bond_atom_site_label_2
_ccdc_geom_bond_type
C12   C17   A    
C2    C4    S    
C3    O2    S    
O7    Zn2   S    
N2    Zn1   S    
C2    C16   A    
C8    C22   A    
C19   C20   A    
C16   C20   A    
O9    Zn2   S    
C7    O8    A    
C17   C18   A    
C14   H4    S    
C11   C13   A    
C9    C21   A    
C15   H6    S    
C14   O10   S    
C13   H14   S    
N2    O10   S    
O4    Zn1   S    
C1    O1    A    
C19   H5    S    
O1    Zn1   S    
C15   H7    S    
C4    O5    A    
C14   H3    S    
C6    O6    A    
C5    C6    S    
O3    Zn2   S    
C10   H13   S    
C17   C21   A    
C9    C22   A    
C10   C11   A    
C2    C10   A    
C20   H16   S    
C12   C13   A    
C7    O9    A    
C15   H8    S    
C7    C9    S    
C18   C19   A    
C6    O7    A    
H10   N1    S    
C14   H2    S    
N1    N2    D    
C11   H15   S    
C22   H1    S    
C5    H9    S    
C21   H12   S    
C4    O4    A    
O5    Zn2   S    
C3    C5    D    
O6    Zn1   S    
C1    O3    A    
O8    Zn1   S    
C8    C18   A    
C12   C16   A    
C15   O2    S    
N1    Zn2   S    
C8    H11   S    
C1    C3    S    
