data_mof_unit_33623.cif
_audit_creation_date              2012-12-10T20:46:23-0500
_audit_creation_method            fapswitch 2.2
_symmetry_space_group_name_H-M    P1
_symmetry_Int_Tables_number       1
_space_group_crystal_system       triclinic
_cell_length_a                    10.685636
_cell_length_b                    8.920174
_cell_length_c                    8.110878
_cell_angle_alpha                 89.96632
_cell_angle_beta                  90.65763
_cell_angle_gamma                 89.868713
_cell_volume                      773.057399373

loop_
_atom_site_label
_atom_site_type_symbol
_atom_type_description
_atom_site_fract_x
_atom_site_fract_y
_atom_site_fract_z
_atom_type_partial_charge
C1    C     C_R   0.499729 0.218024 0.499998 0.936003
C2    C     C_1   0.499733 0.934773 0.499907 -0.189696
C3    C     C_3   0.924561 0.481042 0.091121 0.125835
C4    C     C_3   0.865241 0.637752 0.088671 -0.346529
C5    C     C_3   0.918794 0.734005 0.950901 -0.967383
C6    C     C_3   0.107182 0.155222 0.348484 0.084577
C7    C     C_3   0.183198 0.043204 0.247804 -0.304370
C8    C     C_3   0.165003 0.882940 0.309216 -0.972596
C9    C     C_R   0.499847 0.781965 0.499929 0.923767
C10   C     C_R   0.261835 0.499063 0.498692 1.004776
C11   C     C_R   0.738134 0.489774 0.500775 0.986161
C12   C     C_2   0.934107 0.422864 0.369959 0.419395
C13   C     C_2   0.069202 0.403309 0.391090 0.366784
C14   C     C_2   0.868789 0.456818 0.505215 -0.525861
C15   C     C_2   0.129648 0.497661 0.492834 -0.495540
C16   C     C_1   0.499713 0.065215 0.500029 -0.200317
H1    H     H_    0.912745 0.457739 0.626770 0.118093
H2    H     H_    0.005909 0.129314 0.331105 0.160072
H3    H     H_    0.133419 0.142228 0.481283 0.128633
H4    H     H_    0.153654 0.050087 0.116141 0.225127
H5    H     H_    0.284150 0.072142 0.256644 0.238293
H6    H     H_    0.198370 0.872157 0.438919 0.255790
H7    H     H_    0.219471 0.804340 0.231653 0.280048
H8    H     H_    0.064671 0.851350 0.301723 0.262352
H9    H     H_    0.082384 0.580921 0.567508 0.113365
H10   H     H_    0.901065 0.424624 0.972702 0.159198
H11   H     H_    0.028406 0.489453 0.095400 0.163392
H12   H     H_    0.762437 0.627513 0.069952 0.247942
H13   H     H_    0.882780 0.694430 0.208609 0.206668
H14   H     H_    0.021395 0.747787 0.968449 0.268432
H15   H     H_    0.874252 0.846566 0.952737 0.275118
H16   H     H_    0.899864 0.681547 0.829019 0.265515
N1    N     N_1   0.500000 0.500000 0.073640 -0.034845
N2    N     N_1   0.500000 0.500000 0.926360 -0.034211
O1    O     O_R   0.500000 0.285350 0.636850 -0.618391
O2    O     O_3   0.134039 0.301896 0.294010 -0.622495
O3    O     O_R   0.500000 0.714650 0.636850 -0.618113
O4    O     O_R   0.500000 0.285360 0.363100 -0.608314
O5    O     O_R   0.500000 0.714640 0.363100 -0.628993
O6    O     O_R   0.319080 0.500000 0.636840 -0.631305
O7    O     O_R   0.680920 0.500000 0.636840 -0.632976
O8    O     O_R   0.319090 0.500000 0.363090 -0.578337
O9    O     O_R   0.680910 0.500000 0.363090 -0.575181
O10   O     O_3   0.874476 0.392837 0.219911 -0.611349
Zn1   Zn    Zn3+2 0.500000 0.500000 0.682780 0.978109
Zn2   Zn    Zn3+2 0.500000 0.500000 0.317220 1.003356

loop_
_geom_bond_atom_site_label_1
_geom_bond_atom_site_label_2
_ccdc_geom_bond_type
C8    H6    S    
C11   O9    A    
C6    C7    S    
C6    H3    S    
C10   O8    A    
C2    C16   T    
C4    H13   S    
C5    H16   S    
C3    H11   S    
N1    N2    T    
C7    C8    S    
C12   O10   S    
C1    C16   S    
N1    Zn2   S    
C14   H1    S    
C1    O4    A    
O5    Zn2   S    
C9    O3    A    
O9    Zn2   S    
C6    O2    S    
C11   O7    A    
C10   C15   S    
C13   C15   D    
O6    Zn1   S    
C6    H2    S    
C11   C14   S    
C3    O10   S    
C15   H9    S    
O4    Zn2   S    
O3    Zn1   S    
C3    C4    S    
O1    Zn1   S    
C9    O5    A    
C8    H7    S    
C12   C13   S    
C1    O1    A    
C13   O2    S    
C10   O6    A    
C7    H4    S    
O8    Zn2   S    
N2    Zn1   S    
O7    Zn1   S    
C8    H8    S    
C7    H5    S    
C2    C9    S    
C4    H12   S    
C3    H10   S    
C5    H14   S    
C12   C14   D    
C4    C5    S    
C5    H15   S    
