data_mof_unit_29506.cif
_audit_creation_date              2013-03-05T15:45:11-0500
_audit_creation_method            fapswitch 2.2
_symmetry_space_group_name_H-M    P1
_symmetry_Int_Tables_number       1
_space_group_crystal_system       triclinic
_cell_length_a                    24.705869
_cell_length_b                    17.356669
_cell_length_c                    15.919004
_cell_angle_alpha                 90.00503
_cell_angle_beta                  50.118605
_cell_angle_gamma                 89.952979
_cell_volume                      5238.28187303

loop_
_atom_site_label
_atom_site_type_symbol
_atom_site_description
_atom_site_fract_x
_atom_site_fract_y
_atom_site_fract_z
_atom_type_partial_charge
C1    C     C_R   0.334293 0.112644 0.795782 0.405811
C2    C     C_R   0.665765 0.887612 0.203970 0.408461
C3    C     C_R   0.665253 0.112724 0.201922 0.513775
C4    C     C_R   0.334641 0.887592 0.798314 0.533931
C5    C     C_R   0.834716 0.612744 0.798253 0.534375
C6    C     C_R   0.165397 0.387517 0.201613 0.533572
C7    C     C_R   0.165664 0.612548 0.204251 0.406750
C8    C     C_R   0.833752 0.389615 0.797361 0.405151
N1    N     N_R   0.388930 0.078160 0.705470 -0.139220
N2    N     N_R   0.611070 0.921840 0.294530 -0.138273
N3    N     N_R   0.611070 0.078160 0.294530 -0.133874
N4    N     N_R   0.388930 0.921840 0.705470 -0.135335
N5    N     N_R   0.888930 0.578160 0.705470 -0.135982
N6    N     N_R   0.111070 0.421840 0.294530 -0.135426
N7    N     N_R   0.111070 0.578160 0.294530 -0.138989
N8    N     N_R   0.888930 0.421840 0.705470 -0.138600
C9    C     C_R   0.617354 0.094856 0.588745 0.485084
C10   C     C_R   0.382678 0.905051 0.411189 0.484699
C11   C     C_R   0.408325 0.144265 0.412438 0.472772
C12   C     C_R   0.591726 0.855707 0.587459 0.474720
C13   C     C_R   0.091776 0.644132 0.587637 0.475681
C14   C     C_R   0.908167 0.355958 0.412318 0.474915
C15   C     C_R   0.882688 0.594994 0.411160 0.484063
C16   C     C_R   0.117314 0.405006 0.588839 0.485659
N9    N     N_R   0.580500 0.077840 0.556650 -0.133191
N10   N     N_R   0.419500 0.922160 0.443350 -0.132758
N11   N     N_R   0.419500 0.077840 0.443350 -0.123150
N12   N     N_R   0.580500 0.922160 0.556650 -0.122057
N13   N     N_R   0.080500 0.577840 0.556650 -0.122299
N14   N     N_R   0.919500 0.422160 0.443350 -0.122526
N15   N     N_R   0.919500 0.577840 0.443350 -0.132900
N16   N     N_R   0.080500 0.422160 0.556650 -0.132037
C17   C     C_R   0.690436 0.097479 0.408859 0.500172
C18   C     C_R   0.309591 0.902423 0.591060 0.501082
C19   C     C_R   0.332555 0.139656 0.595018 0.422894
C20   C     C_R   0.667435 0.860361 0.404876 0.422994
C21   C     C_R   0.167558 0.639444 0.405041 0.423789
C22   C     C_R   0.832173 0.360797 0.594932 0.429617
C23   C     C_R   0.809617 0.597895 0.591006 0.502725
C24   C     C_R   0.190410 0.402288 0.408990 0.500702
N17   N     N_R   0.626210 0.077590 0.443410 -0.129454
N18   N     N_R   0.373790 0.922410 0.556590 -0.128794
N19   N     N_R   0.373790 0.077590 0.556590 -0.118509
N20   N     N_R   0.626210 0.922410 0.443410 -0.118390
N21   N     N_R   0.126210 0.577590 0.443410 -0.118849
N22   N     N_R   0.873790 0.422410 0.556590 -0.119111
N23   N     N_R   0.873790 0.577590 0.556590 -0.129142
N24   N     N_R   0.126210 0.422410 0.443410 -0.128827
C25   C     C_R   0.580499 0.097794 0.193271 0.538872
C26   C     C_R   0.419360 0.902430 0.807001 0.516256
C27   C     C_R   0.426833 0.124943 0.787465 0.547957
C28   C     C_R   0.573178 0.875143 0.212459 0.547527
C29   C     C_R   0.073112 0.624895 0.212569 0.548133
C30   C     C_R   0.925930 0.377154 0.789788 0.544345
C31   C     C_R   0.919375 0.597680 0.806992 0.514004
C32   C     C_R   0.080678 0.402448 0.192942 0.516267
N25   N     N_R   0.554800 0.077270 0.294580 -0.149815
N26   N     N_R   0.445200 0.922730 0.705420 -0.145480
N27   N     N_R   0.445200 0.077270 0.705420 -0.144002
N28   N     N_R   0.554800 0.922730 0.294580 -0.143972
N29   N     N_R   0.054800 0.577270 0.294580 -0.143847
N30   N     N_R   0.945200 0.422730 0.705420 -0.143640
N31   N     N_R   0.945200 0.577270 0.705420 -0.145917
N32   N     N_R   0.054800 0.422730 0.294580 -0.145284
C33   C     C_R   0.358846 0.149765 0.840781 -0.256776
C34   C     C_R   0.641207 0.850463 0.159015 -0.258662
C35   C     C_R   0.647911 0.123574 0.137100 -0.354989
C36   C     C_R   0.351753 0.877161 0.863484 -0.325939
C37   C     C_R   0.851782 0.623132 0.863485 -0.325459
C38   C     C_R   0.148330 0.377128 0.136370 -0.325998
C39   C     C_R   0.141068 0.649672 0.159279 -0.257436
C40   C     C_R   0.857253 0.354153 0.845141 -0.250504
C41   C     C_R   0.683975 0.117405 0.499152 -0.178372
C42   C     C_R   0.316047 0.882381 0.500720 -0.176988
C43   C     C_R   0.358244 0.188081 0.506458 -0.156312
C44   C     C_R   0.641876 0.811945 0.493356 -0.155966
C45   C     C_R   0.141962 0.687816 0.493658 -0.156134
C46   C     C_R   0.857840 0.312410 0.506292 -0.155250
C47   C     C_R   0.816028 0.617763 0.500650 -0.177601
C48   C     C_R   0.183959 0.382210 0.499344 -0.177545
Ni1   Ni    Ni4+2 0.382710 0.000000 0.629850 0.337680
Ni2   Ni    Ni4+2 0.617290 0.000000 0.370150 0.338262
Ni3   Ni    Ni4+2 0.882710 0.500000 0.629850 0.337722
Ni4   Ni    Ni4+2 0.117290 0.500000 0.370150 0.338394
Ni5   Ni    Ni4+2 0.513020 0.000000 0.629850 0.335240
Ni6   Ni    Ni4+2 0.486980 0.000000 0.370150 0.334142
Ni7   Ni    Ni4+2 0.013020 0.500000 0.629850 0.335435
Ni8   Ni    Ni4+2 0.986980 0.500000 0.370150 0.335751
C49   C     C_R   0.263743 0.286510 0.608834 -0.122758
C50   C     C_R   0.736524 0.713643 0.390940 -0.123122
C51   C     C_R   0.810383 0.146513 0.416663 -0.151416
C52   C     C_R   0.189557 0.853264 0.583479 -0.151804
C53   C     C_R   0.689445 0.646313 0.582902 -0.151590
C54   C     C_R   0.310511 0.353408 0.416764 -0.153465
C55   C     C_R   0.236582 0.785922 0.391406 -0.122058
C56   C     C_R   0.762819 0.214883 0.608390 -0.121105
H1    H     H_    0.246026 0.269253 0.687173 0.242285
H2    H     H_    0.754341 0.730790 0.312523 0.242652
H3    H     H_    0.832697 0.113220 0.344624 0.248661
H4    H     H_    0.167355 0.886092 0.655826 0.248735
H5    H     H_    0.667191 0.613157 0.654945 0.248840
H6    H     H_    0.332595 0.386091 0.344422 0.248898
H7    H     H_    0.254415 0.768534 0.313057 0.242762
H8    H     H_    0.744527 0.232916 0.686655 0.244653
C57   C     C_R   0.642512 0.689026 0.579871 0.343049
C58   C     C_R   0.357570 0.310916 0.419731 0.344854
C59   C     C_R   0.286132 0.814560 0.396768 0.334219
C60   C     C_R   0.713495 0.186029 0.602799 0.332808
C61   C     C_R   0.214072 0.314883 0.603466 0.334358
C62   C     C_R   0.786095 0.685368 0.396557 0.334029
C63   C     C_R   0.857160 0.189488 0.419673 0.343259
C64   C     C_R   0.142653 0.810561 0.580489 0.343288
C65   C     C_R   0.670935 0.735054 0.487378 -0.018253
C66   C     C_R   0.329258 0.265005 0.512308 -0.018748
C67   C     C_R   0.262999 0.850507 0.494681 -0.021128
C68   C     C_R   0.736894 0.149534 0.505135 -0.021156
C69   C     C_R   0.237084 0.350580 0.505498 -0.020530
C70   C     C_R   0.762938 0.649418 0.494451 -0.020606
C71   C     C_R   0.828547 0.235847 0.512052 -0.019317
C72   C     C_R   0.171074 0.764549 0.487901 -0.018903
C73   C     C_2   0.700034 0.140651 0.021612 0.528936
C74   C     C_2   0.298925 0.861931 0.979415 0.502592
C75   C     C_2   0.317913 0.209112 0.923009 0.494031
C76   C     C_2   0.682214 0.791222 0.076680 0.494380
C77   C     C_2   0.182006 0.708806 0.076858 0.493565
C78   C     C_2   0.816599 0.294267 0.926913 0.509380
C79   C     C_2   0.798798 0.637835 0.979636 0.500759
C80   C     C_2   0.201282 0.362436 0.020203 0.502202
C81   C     C_2   0.712778 0.215715 0.997310 0.096903
C82   C     C_2   0.284445 0.787690 0.008050 0.109503
C83   C     C_2   0.288591 0.263517 0.901873 0.095827
C84   C     C_2   0.711464 0.736751 0.097870 0.095332
C85   C     C_2   0.211784 0.762961 0.097385 0.097083
C86   C     C_2   0.785084 0.241876 0.907502 0.096648
C87   C     C_2   0.784310 0.711924 0.009298 0.110954
C88   C     C_2   0.215767 0.288347 0.990562 0.109663
Cl1   Cl    Cl    0.250282 0.070224 0.881642 -0.336178
Cl2   Cl    Cl    0.749527 0.930629 0.117785 -0.333391
Cl3   Cl    Cl    0.749524 0.131305 0.157030 -0.386710
Cl4   Cl    Cl    0.250784 0.867443 0.842317 -0.386604
Cl5   Cl    Cl    0.751186 0.634312 0.841765 -0.386324
Cl6   Cl    Cl    0.249293 0.367308 0.157528 -0.385996
Cl7   Cl    Cl    0.249687 0.569981 0.118408 -0.336500
Cl8   Cl    Cl    0.749956 0.432425 0.878576 -0.336222
Cl9   Cl    Cl    0.605837 0.040833 0.692966 -0.396357
Cl10  Cl    Cl    0.394158 0.959248 0.307117 -0.398341
Cl11  Cl    Cl    0.426037 0.156165 0.287507 -0.389300
Cl12  Cl    Cl    0.573741 0.843600 0.712565 -0.399355
Cl13  Cl    Cl    0.073878 0.655997 0.712715 -0.398335
Cl14  Cl    Cl    0.926329 0.344020 0.287049 -0.398458
Cl15  Cl    Cl    0.894295 0.540840 0.306925 -0.398150
Cl16  Cl    Cl    0.105870 0.459404 0.692774 -0.398175
Cl17  Cl    Cl    0.765067 0.046856 0.300732 -0.405586
Cl18  Cl    Cl    0.234897 0.952808 0.699494 -0.407028
Cl19  Cl    Cl    0.243203 0.131441 0.711570 -0.421718
Cl20  Cl    Cl    0.756566 0.868320 0.287507 -0.422759
Cl21  Cl    Cl    0.256871 0.630906 0.288407 -0.421925
Cl22  Cl    Cl    0.742528 0.370415 0.709882 -0.426196
Cl23  Cl    Cl    0.734596 0.548698 0.700313 -0.406376
Cl24  Cl    Cl    0.265103 0.452419 0.300492 -0.407296
Cl25  Cl    Cl    0.554940 0.053953 0.123964 -0.331434
Cl26  Cl    Cl    0.445168 0.946173 0.876001 -0.340448
Cl27  Cl    Cl    0.473633 0.145743 0.832441 -0.321438
Cl28  Cl    Cl    0.526344 0.854312 0.167547 -0.322732
Cl29  Cl    Cl    0.026225 0.645805 0.167737 -0.322124
Cl30  Cl    Cl    0.973743 0.354931 0.832654 -0.320754
Cl31  Cl    Cl    0.945206 0.554021 0.876033 -0.342807
Cl32  Cl    Cl    0.054872 0.446343 0.123996 -0.341013
N33   N     N_R   0.567459 0.680929 0.665330 0.278412
O1    O     O_R   0.524820 0.696561 0.645970 -0.293076
O2    O     O_R   0.541683 0.651303 0.759520 -0.204222
N34   N     N_R   0.432604 0.319113 0.334000 0.281407
O3    O     O_R   0.458009 0.350230 0.240773 -0.198012
O4    O     O_R   0.475546 0.302714 0.352534 -0.306084
N35   N     N_R   0.358314 0.793556 0.309943 0.271281
O5    O     O_R   0.391109 0.751258 0.332411 -0.290510
O6    O     O_R   0.384332 0.798909 0.208595 -0.186469
N36   N     N_R   0.641271 0.207237 0.689112 0.270572
O7    O     O_R   0.614942 0.202361 0.790655 -0.184845
O8    O     O_R   0.608721 0.249217 0.665903 -0.292636
N37   N     N_R   0.141950 0.293885 0.690351 0.271624
O9    O     O_R   0.109196 0.251495 0.667960 -0.289834
O10   O     O_R   0.115964 0.299403 0.791676 -0.185948
N38   N     N_R   0.858209 0.706627 0.310048 0.271518
O11   O     O_R   0.884403 0.701495 0.208585 -0.186314
O12   O     O_R   0.890726 0.748874 0.333005 -0.290902
N39   N     N_R   0.932236 0.181286 0.334356 0.278463
O13   O     O_R   0.974759 0.196741 0.353970 -0.293293
O14   O     O_R   0.958136 0.151619 0.240092 -0.203701
N40   N     N_R   0.067602 0.818701 0.666090 0.278544
O15   O     O_R   0.041863 0.848185 0.760373 -0.203778
O16   O     O_R   0.024928 0.803367 0.646737 -0.292949
N41   N     N_R   0.338573 0.729848 0.946166 0.264350
O17   O     O_R   0.362636 0.696105 0.989291 -0.171124
O18   O     O_R   0.367390 0.714827 0.845112 -0.250823
N42   N     N_R   0.655677 0.270852 0.060706 0.265489
O19   O     O_R   0.665593 0.339206 0.081905 -0.199635
O20   O     O_R   0.593875 0.253988 0.091802 -0.225184
N43   N     N_R   0.675819 0.709994 0.208218 0.252733
O21   O     O_R   0.607530 0.715097 0.282855 -0.331636
O22   O     O_R   0.710131 0.670249 0.229947 -0.312940
N44   N     N_R   0.324124 0.290199 0.791529 0.252600
O23   O     O_R   0.289787 0.330122 0.769999 -0.312554
O24   O     O_R   0.392388 0.284927 0.716700 -0.333321
N45   N     N_R   0.818660 0.216601 0.797188 0.249721
O25   O     O_R   0.886871 0.220360 0.720723 -0.337903
O26   O     O_R   0.782773 0.177828 0.777725 -0.315836
N46   N     N_R   0.176866 0.789555 0.207605 0.252535
O27   O     O_R   0.211775 0.828845 0.228530 -0.312746
O28   O     O_R   0.108618 0.784867 0.282988 -0.332405
N47   N     N_R   0.161483 0.230657 0.050940 0.264593
O29   O     O_R   0.137667 0.198378 0.006645 -0.171501
O30   O     O_R   0.132105 0.214647 0.151952 -0.249268
N48   N     N_R   0.838610 0.769609 0.949063 0.264634
O31   O     O_R   0.868287 0.785470 0.847891 -0.248943
O32   O     O_R   0.861950 0.802272 0.993850 -0.171720
Cl33  Cl    Cl    0.237080 0.936511 0.059492 -0.322851
Cl34  Cl    Cl    0.763710 0.067972 0.939149 -0.320344
Cl35  Cl    Cl    0.714794 0.814199 0.943566 -0.329714
Cl36  Cl    Cl    0.285643 0.186555 0.056072 -0.329634
Cl37  Cl    Cl    0.791913 0.310049 0.056935 -0.333103
Cl38  Cl    Cl    0.213306 0.686522 0.944233 -0.328776
Cl39  Cl    Cl    0.263225 0.436964 0.941064 -0.323296
Cl40  Cl    Cl    0.736789 0.563316 0.058609 -0.323566

loop_
_geom_bond_atom_site_label_1
_geom_bond_atom_site_label_2
_geom_bond_distance
_ccdc_geom_bond_type
C75   Cl36  1.763743 S    
C14   Cl14  1.753065 S    
C6    C38   1.360389 A    
N40   O15   1.301665 A    
C74   Cl33  1.770281 S    
C26   Cl26  1.757344 S    
N16   N24   1.383584 A    
C73   Cl34  1.771299 S    
C56   C71   1.388777 A    
N2    N28   1.389760 A    
C18   N18   1.349802 A    
N6    Ni4   1.884247 S    
C82   N41   1.440448 S    
C62   C70   1.415131 A    
C7    Cl7   1.755545 S    
N36   O7    1.301908 A    
C78   Cl37  1.764061 S    
C61   C69   1.415277 A    
N35   O6    1.301901 A    
N45   O25   1.302101 A    
N38   O11   1.301913 A    
C85   N46   1.447056 S    
C12   C44   1.405058 A    
C41   C68   1.479954 S    
N44   O24   1.301949 A    
C58   C66   1.405454 A    
C57   C65   1.405164 A    
C50   H2    1.065953 S    
C79   C87   1.336826 D    
C57   N33   1.440233 S    
N20   Ni2   1.884578 S    
C80   C88   1.336774 D    
C7    C39   1.361740 A    
C54   C69   1.415146 A    
N48   O32   1.299966 A    
C87   N48   1.440248 S    
C6    N6    1.340464 A    
C42   C67   1.481799 S    
C21   Cl21  1.756059 S    
C47   C70   1.482162 S    
C49   C61   1.374493 A    
C32   C38   1.366077 A    
C25   N25   1.348439 A    
N25   Ni6   1.863442 S    
C76   C84   1.356989 D    
C63   C71   1.405530 A    
C27   C33   1.377638 A    
C50   C65   1.389033 A    
C51   C63   1.402390 A    
C83   N44   1.447058 S    
C49   H1    1.066203 S    
C5    C37   1.360213 A    
C26   C36   1.366018 A    
C16   Cl16  1.763034 S    
C53   C57   1.402422 A    
C48   C69   1.482370 S    
C29   N29   1.354895 A    
C16   C48   1.374013 A    
N35   O5    1.301587 A    
N34   O4    1.301770 A    
N46   O27   1.299683 A    
N41   O18   1.301384 A    
C10   N10   1.332495 A    
C1    C33   1.361613 A    
C32   N32   1.350362 A    
C27   Cl27  1.744133 S    
N23   Ni3   1.884578 S    
C6    Cl6   1.745013 S    
C19   N19   1.330952 A    
C77   C85   1.356789 D    
C5    N5    1.340672 A    
N4    N26   1.389790 A    
C45   C72   1.488807 S    
N45   O26   1.299315 A    
C56   C60   1.372507 A    
C76   Cl35  1.763689 S    
C62   N38   1.435826 S    
N43   O21   1.301944 A    
C8    N8    1.324813 A    
N15   N23   1.383584 A    
C15   N15   1.332525 A    
C9    C41   1.373728 A    
N33   O2    1.301670 A    
N18   Ni1   1.884691 S    
N8    N30   1.389790 A    
C23   C47   1.385990 A    
C30   Cl30  1.744365 S    
C35   C73   1.445939 S    
C80   Cl39  1.770178 S    
N9    Ni5   1.864200 S    
C11   N11   1.349597 A    
C55   H7    1.065751 S    
C27   N27   1.354837 A    
N37   O10   1.301908 A    
N3    Ni2   1.884216 S    
C58   N34   1.440593 S    
C8    C40   1.363935 A    
C22   N22   1.330573 A    
N44   O23   1.299694 A    
N46   O28   1.301989 A    
C1    Cl1   1.755814 S    
C2    Cl2   1.756135 S    
N33   O1    1.301603 A    
C29   Cl29  1.744272 S    
C1    N1    1.325550 A    
C14   C46   1.404132 A    
N42   O20   1.301350 A    
C51   C68   1.415389 A    
N9    N17   1.383577 A    
C64   C72   1.405324 A    
C53   H5    1.068062 S    
N48   O31   1.301282 A    
C52   C64   1.402336 A    
C86   N45   1.447614 S    
C31   N31   1.350397 A    
C30   N30   1.355376 A    
C10   Cl10  1.763024 S    
C77   Cl38  1.763710 S    
N16   Ni7   1.862069 S    
C75   C83   1.356894 D    
N12   N20   1.383584 A    
C84   N43   1.447058 S    
C11   Cl11  1.753161 S    
N24   Ni4   1.884578 S    
C40   C78   1.452236 S    
N1    N27   1.389765 A    
N28   Ni6   1.861311 S    
C26   N26   1.350270 A    
N37   O9    1.301564 A    
N11   Ni6   1.862067 S    
C9    Cl9   1.762977 S    
C16   N16   1.332553 A    
N29   Ni8   1.863442 S    
C4    Cl4   1.745107 S    
C88   N47   1.440271 S    
C10   C42   1.374205 A    
C5    Cl5   1.744789 S    
N47   O29   1.299940 A    
N5    N31   1.389765 A    
C20   Cl20  1.755958 S    
N10   Ni6   1.864201 S    
C37   C79   1.446701 S    
N6    N32   1.389760 A    
C32   Cl32  1.757358 S    
C24   C48   1.386301 A    
C44   C65   1.488743 S    
N7    N29   1.389785 A    
C60   N36   1.435995 S    
C8    Cl8   1.753407 S    
C43   C66   1.488962 S    
C22   Cl22  1.756020 S    
C31   C37   1.365813 A    
C12   N12   1.349746 A    
C55   C59   1.374032 A    
C79   Cl40  1.770305 S    
C18   C42   1.385758 A    
C23   N23   1.350227 A    
C17   C41   1.384465 A    
N47   O30   1.301312 A    
C28   Cl28  1.744215 S    
C83   C88   1.468736 S    
C18   Cl18  1.749833 S    
C13   Cl13  1.753054 S    
C56   H8    1.064011 S    
C38   C80   1.446773 S    
N19   Ni1   1.884578 S    
C33   C75   1.448316 S    
C34   C76   1.448011 S    
C20   N20   1.330551 A    
C82   C85   1.468584 S    
C4    N4    1.340155 A    
C53   C70   1.415587 A    
C50   C62   1.374129 A    
C36   C74   1.446016 S    
N39   O14   1.301661 A    
C2    N2    1.325725 A    
N26   Ni5   1.863441 S    
C31   Cl31  1.757333 S    
C81   N42   1.447876 S    
C28   C34   1.377358 A    
N34   O3    1.301644 A    
C52   H4    1.068254 S    
C4    C36   1.360217 A    
C61   N37   1.435783 S    
C24   N24   1.350017 A    
C15   Cl15  1.762987 S    
C49   C66   1.389143 A    
C54   C58   1.402462 A    
N40   O16   1.301636 A    
N15   Ni8   1.862067 S    
C25   C35   1.365673 A    
N31   Ni7   1.861307 S    
C23   Cl23  1.749062 S    
C24   Cl24  1.749609 S    
C3    C35   1.360425 A    
C19   C43   1.396569 A    
C73   C81   1.338206 D    
N42   O19   1.299183 A    
C2    C34   1.361390 A    
C13   N13   1.349626 A    
N36   O8    1.301617 A    
C15   C47   1.374047 A    
N7    Ni4   1.884216 S    
C55   C72   1.389053 A    
C74   C82   1.337136 D    
C22   C46   1.396418 A    
N30   Ni7   1.863441 S    
N5    Ni3   1.884243 S    
C63   N39   1.440197 S    
N38   O12   1.301573 A    
N14   N22   1.383577 A    
C17   N17   1.349527 A    
C60   C68   1.413943 A    
C11   C43   1.404567 A    
C46   C71   1.488152 S    
C9    N9    1.332015 A    
N39   O13   1.301634 A    
N14   Ni8   1.864201 S    
C14   N14   1.349281 A    
C12   Cl12  1.753081 S    
C59   N35   1.435762 S    
C3    Cl3   1.744273 S    
C84   C87   1.468738 S    
N17   Ni2   1.884689 S    
C7    N7    1.325343 A    
N2    Ni2   1.884247 S    
N4    Ni1   1.884215 S    
C59   C67   1.415005 A    
C17   Cl17  1.749723 S    
N8    Ni3   1.884215 S    
N10   N18   1.383577 A    
C52   C67   1.415403 A    
C81   C86   1.472271 S    
N13   Ni7   1.864200 S    
C3    N3    1.340118 A    
C64   N40   1.440210 S    
N22   Ni3   1.884691 S    
N21   Ni4   1.884689 S    
N11   N19   1.383584 A    
C20   C44   1.396171 A    
C30   C40   1.377879 A    
C78   C86   1.355820 D    
C28   N28   1.354750 A    
N41   O17   1.300231 A    
C25   Cl25  1.757579 S    
C13   C45   1.404754 A    
N12   Ni5   1.862069 S    
N43   O22   1.299704 A    
C39   C77   1.448459 S    
C51   H3    1.068442 S    
N3    N25   1.389785 A    
C21   N21   1.330762 A    
N27   Ni5   1.861307 S    
N32   Ni8   1.861311 S    
N13   N21   1.383577 A    
C19   Cl19  1.756152 S    
C54   H6    1.067956 S    
N1    Ni1   1.884243 S    
C21   C45   1.396338 A    
C29   C39   1.377716 A    
