data_mof_unit_52866.cif
_audit_creation_date              2012-12-10T17:43:42-0500
_audit_creation_method            fapswitch 2.2
_symmetry_space_group_name_H-M    P1
_symmetry_Int_Tables_number       1
_space_group_crystal_system       triclinic
_cell_length_a                    14.884939
_cell_length_b                    10.655012
_cell_length_c                    9.96627
_cell_angle_alpha                 89.483176
_cell_angle_beta                  92.045087
_cell_angle_gamma                 91.255073
_cell_volume                      1579.2030452

loop_
_atom_site_label
_atom_site_type_symbol
_atom_type_description
_atom_site_fract_x
_atom_site_fract_y
_atom_site_fract_z
_atom_type_partial_charge
C1    C     C_R   0.504348 0.260796 0.501152 0.880420
C2    C     C_R   0.186919 0.402665 0.560065 -0.184510
C3    C     C_R   0.231917 0.498823 0.493418 -0.038636
C4    C     C_R   0.327302 0.500737 0.497952 0.902724
C5    C     C_R   0.186411 0.593505 0.424430 -0.237807
C6    C     C_R   0.632712 0.131079 0.683059 -0.151048
C7    C     C_R   0.691289 0.065628 0.769003 -0.059190
C8    C     C_R   0.695382 0.935789 0.761337 -0.079144
C9    C     C_R   0.639081 0.870650 0.670275 -0.175587
C10   C     C_R   0.575056 0.934764 0.588173 0.096463
C11   C     C_R   0.572921 0.066389 0.592509 0.091750
C12   C     C_R   0.906040 0.598665 0.431357 -0.020575
C13   C     C_R   0.511988 0.128284 0.503312 -0.107826
C14   C     C_R   0.456323 0.063002 0.411834 -0.189839
C15   C     C_R   0.456923 0.935214 0.409966 -0.213879
C16   C     C_R   0.504844 0.739151 0.499775 0.861883
C17   C     C_R   0.513911 0.871593 0.499085 -0.093000
C18   C     C_R   0.400708 0.308480 0.129887 0.028434
C19   C     C_R   0.386187 0.195339 0.060899 -0.174496
C20   C     C_R   0.384379 0.198027 0.921926 -0.239816
C21   C     C_R   0.408894 0.308017 0.855869 -0.149480
C22   C     C_R   0.454788 0.405492 0.925457 0.164250
C23   C     C_R   0.954718 0.294843 0.614070 -0.010859
C24   C     C_R   0.453039 0.405717 0.069243 0.043686
C25   C     C_R   0.544434 0.589746 0.072971 -0.084187
C26   C     C_R   0.544055 0.590013 0.930244 -0.098058
C27   C     C_R   0.672818 0.500559 0.501927 0.861120
C28   C     C_R   0.812817 0.597440 0.436275 -0.153586
C29   C     C_R   0.768429 0.502056 0.504731 -0.097811
C30   C     C_R   0.813795 0.403751 0.566475 -0.196923
C31   C     C_R   0.906631 0.397187 0.557852 0.127642
C32   C     C_R   0.953061 0.497720 0.493567 -0.020487
C33   C     C_2   0.321011 0.341807 0.203392 0.466542
C34   C     C_R   0.048233 0.300226 0.618278 -0.279506
C35   C     C_2   0.911310 0.177443 0.662277 0.401018
C36   C     C_R   0.093937 0.399969 0.557810 0.137971
C37   C     C_R   0.046583 0.497342 0.491881 0.062948
C38   C     C_R   0.093308 0.594843 0.425413 0.050586
C39   C     C_R   0.046953 0.692880 0.362738 -0.290151
C40   C     C_R   0.953488 0.697057 0.366030 0.459068
H1    H     H_    0.773145 0.670114 0.388405 0.206514
H2    H     H_    0.388256 0.315681 0.752673 0.204892
H3    H     H_    0.775668 0.332861 0.619573 0.163809
H4    H     H_    0.580334 0.663705 0.878385 0.146033
H5    H     H_    0.085612 0.223649 0.664041 0.149022
H6    H     H_    0.224546 0.329285 0.611490 0.132990
H7    H     H_    0.223759 0.667523 0.373890 0.140035
H8    H     H_    0.084163 0.767132 0.312794 0.198375
H9    H     H_    0.409942 0.111003 0.344384 0.198218
H10   H     H_    0.290585 0.432298 0.184484 0.072885
H11   H     H_    0.940395 0.127532 0.748159 0.075876
H12   H     H_    0.636446 0.232064 0.688101 0.157266
H13   H     H_    0.801873 0.961014 0.352708 0.397744
H14   H     H_    0.735925 0.116324 0.838576 0.141713
H15   H     H_    0.743196 0.885522 0.824807 0.161778
H16   H     H_    0.647458 0.770433 0.663948 0.152309
H17   H     H_    0.410561 0.885598 0.341590 0.160832
H18   H     H_    0.581042 0.663111 0.127420 0.161042
H19   H     H_    0.353761 0.115618 0.108940 0.174425
H20   H     H_    0.355510 0.119485 0.865875 0.168629
N1    N     N_R   0.499150 0.498800 0.142780 -0.126588
N2    N     N_R   0.499120 0.498720 0.857170 -0.120187
O1    O     O_R   0.500000 0.316780 0.614690 -0.657067
O2    O     O_2   0.847006 0.130470 0.600491 -0.543986
O3    O     O_2   0.966299 0.920787 0.236677 -0.283409
O4    O     O_2   0.838195 0.781806 0.175683 -0.335209
O5    O     O_3   0.837048 0.897731 0.404107 -0.533996
O6    O     O_R   0.499990 0.316750 0.385360 -0.600539
O7    O     O_R   0.367850 0.499980 0.614680 -0.635693
O8    O     O_R   0.367840 0.499960 0.385350 -0.635288
O9    O     O_R   0.500010 0.683250 0.614640 -0.624467
O10   O     O_R   0.500000 0.683220 0.385310 -0.624434
O11   O     O_R   0.632160 0.500040 0.614650 -0.632668
O12   O     O_R   0.632150 0.500020 0.385320 -0.599836
O13   O     O_2   0.285447 0.267401 0.280133 -0.605460
S1    S     S_3+6 0.898898 0.827383 0.289674 0.008116
Zn1   Zn    Zn3+2 0.500010 0.500020 0.653130 0.933153
Zn2   Zn    Zn3+2 0.499990 0.499980 0.346870 0.963064

loop_
_geom_bond_atom_site_label_1
_geom_bond_atom_site_label_2
_ccdc_geom_bond_type
C24   N1    A    
O8    Zn2   S    
N2    Zn1   S    
O7    Zn1   S    
C19   C20   A    
C16   O10   A    
C4    O8    A    
C26   H4    S    
C7    C8    A    
C2    H6    S    
C5    H7    S    
C29   C30   A    
O3    S1    D    
C12   C28   A    
C18   C24   A    
C21   C22   A    
C36   C37   A    
C38   C39   A    
C14   H9    S    
C27   C29   S    
C10   C17   A    
C28   H1    S    
C1    O6    A    
C18   C19   A    
O10   Zn2   S    
C33   H10   S    
C33   O13   D    
C8    C9    A    
C35   O2    D    
C20   H20   S    
C27   O12   A    
C9    C10   A    
C13   C14   A    
C12   C32   A    
C15   H17   S    
C16   O9    A    
C1    O1    A    
C8    H15   S    
C4    O7    A    
O6    Zn2   S    
C39   C40   A    
C9    H16   S    
C16   C17   S    
C19   H19   S    
C25   C26   A    
C40   S1    S    
C23   C31   A    
C12   C40   A    
C37   C38   A    
C22   N2    A    
C31   C32   A    
N1    Zn2   S    
C23   C34   A    
O4    S1    D    
C34   H5    S    
C25   N1    A    
C32   C37   A    
C23   C35   S    
C6    C11   A    
C35   H11   S    
C22   C24   A    
C30   H3    S    
C1    C13   S    
C25   H18   S    
C3    C4    S    
O9    Zn1   S    
O1    Zn1   S    
C2    C36   A    
C15   C17   A    
C28   C29   A    
C3    C5    A    
C6    C7    A    
C2    C3    A    
C26   N2    A    
C27   O11   A    
C11   C13   A    
C30   C31   A    
C34   C36   A    
H13   O5    S    
C18   C33   S    
C10   C11   A    
C21   H2    S    
C20   C21   A    
O12   Zn2   S    
O11   Zn1   S    
C14   C15   A    
O5    S1    S    
C7    H14   S    
C6    H12   S    
C5    C38   A    
C39   H8    S    
