data_mof_unit_11870.cif
_audit_creation_date              2012-12-11T14:06:03-0500
_audit_creation_method            fapswitch 2.2
_symmetry_space_group_name_H-M    P1
_symmetry_Int_Tables_number       1
_space_group_crystal_system       triclinic
_cell_length_a                    23.764138
_cell_length_b                    23.776016
_cell_length_c                    23.802175
_cell_angle_alpha                 90.038815
_cell_angle_beta                  90.002111
_cell_angle_gamma                 90.000344
_cell_volume                      13448.619118

loop_
_atom_site_label
_atom_site_type_symbol
_atom_type_description
_atom_site_fract_x
_atom_site_fract_y
_atom_site_fract_z
_atom_type_partial_charge
C1    C     C_R   0.280797 0.718657 0.208940 -0.231022
C2    C     C_R   0.791602 0.719640 0.280523 -0.244343
C3    C     C_1   0.687446 0.831271 0.687005 0.144023
C4    C     C_1   0.831767 0.312246 0.312761 0.143968
C5    C     C_1   0.169417 0.687265 0.687125 0.172862
C6    C     C_1   0.687308 0.830585 0.312899 0.172887
C7    C     C_1   0.312344 0.168633 0.686992 0.144911
C8    C     C_1   0.170390 0.313322 0.686647 0.168360
C9    C     C_1   0.829924 0.686890 0.313390 0.171928
C10   C     C_1   0.313161 0.829819 0.686596 0.171895
C11   C     C_1   0.686419 0.171058 0.313868 0.165800
C12   C     C_1   0.829500 0.686685 0.686657 0.168802
C13   C     C_R   0.209570 0.280873 0.281097 -0.251813
C14   C     C_1   0.170996 0.313464 0.313830 0.166424
C15   C     C_1   0.687004 0.170103 0.686632 0.171602
C16   C     C_1   0.313260 0.829465 0.313396 0.169369
C17   C     C_1   0.313176 0.313197 0.169468 0.141602
C18   C     C_1   0.687463 0.686993 0.831218 0.145396
C19   C     C_1   0.313271 0.686484 0.829530 0.171408
C20   C     C_1   0.686783 0.312919 0.169237 0.142427
C21   C     C_1   0.686878 0.313497 0.829588 0.171703
C22   C     C_1   0.312887 0.687387 0.168847 0.143630
C23   C     C_1   0.686604 0.686826 0.170374 0.171275
C24   C     C_R   0.790877 0.719339 0.719334 -0.256107
C25   C     C_1   0.312425 0.312985 0.831233 0.146077
C26   C     C_R   0.366105 0.431704 0.090848 -0.114984
C27   C     C_R   0.634036 0.568435 0.909454 -0.109189
C28   C     C_R   0.568344 0.366094 0.090737 -0.116852
C29   C     C_R   0.431921 0.633515 0.908397 -0.120138
C30   C     C_R   0.633568 0.568100 0.091587 -0.121452
C31   C     C_R   0.365956 0.431550 0.909460 -0.108360
C32   C     C_R   0.431534 0.634008 0.090578 -0.109156
C33   C     C_R   0.568100 0.366457 0.908388 -0.120247
C34   C     C_R   0.366432 0.568045 0.908421 -0.113273
C35   C     C_R   0.208564 0.718838 0.280877 -0.231015
C36   C     C_R   0.633891 0.431490 0.090775 -0.125302
C37   C     C_R   0.568624 0.633930 0.909389 -0.125798
C38   C     C_R   0.431547 0.366187 0.090857 -0.126202
C39   C     C_R   0.633576 0.431939 0.908435 -0.113030
C40   C     C_R   0.366052 0.568575 0.090678 -0.129697
C41   C     C_R   0.431359 0.366046 0.909372 -0.123854
C42   C     C_R   0.568084 0.633570 0.091556 -0.113790
C43   C     C_R   0.091633 0.366465 0.431949 -0.113735
C44   C     C_R   0.908527 0.633616 0.568170 -0.115413
C45   C     C_R   0.090558 0.568671 0.366082 -0.126251
C46   C     C_R   0.792204 0.280037 0.719880 -0.249384
C47   C     C_R   0.908781 0.431701 0.633660 -0.114269
C48   C     C_R   0.091275 0.633714 0.568241 -0.116310
C49   C     C_R   0.909583 0.365908 0.431486 -0.107973
C50   C     C_R   0.091445 0.431844 0.633568 -0.114611
C51   C     C_R   0.908465 0.568111 0.366475 -0.118806
C52   C     C_R   0.908724 0.366291 0.568195 -0.116348
C53   C     C_R   0.090516 0.634043 0.431581 -0.108652
C54   C     C_R   0.908529 0.568185 0.633558 -0.114580
C55   C     C_R   0.091702 0.431925 0.366552 -0.119181
C56   C     C_R   0.908535 0.633607 0.431891 -0.112799
C57   C     C_R   0.207911 0.719991 0.719905 -0.249431
C58   C     C_R   0.091433 0.366373 0.568156 -0.116356
C59   C     C_R   0.909531 0.431253 0.366034 -0.126533
C60   C     C_R   0.091226 0.568334 0.633665 -0.114506
C61   C     C_R   0.431248 0.090431 0.366048 -0.125898
C62   C     C_R   0.568646 0.909388 0.633879 -0.126363
C63   C     C_R   0.365964 0.090597 0.568390 -0.111340
C64   C     C_R   0.633736 0.908728 0.431782 -0.116004
C65   C     C_R   0.568154 0.091525 0.633542 -0.119157
C66   C     C_R   0.431819 0.908520 0.366438 -0.112170
C67   C     C_R   0.633541 0.091653 0.431988 -0.114911
C68   C     C_R   0.791503 0.281102 0.280748 -0.231824
C69   C     C_R   0.366374 0.908524 0.568105 -0.112905
C70   C     C_R   0.568326 0.908774 0.366328 -0.114142
C71   C     C_R   0.431324 0.090626 0.633900 -0.126110
C72   C     C_R   0.634036 0.909418 0.568408 -0.108010
C73   C     C_R   0.365893 0.090428 0.431544 -0.111522
C74   C     C_R   0.431867 0.908482 0.633510 -0.118367
C75   C     C_R   0.568033 0.091710 0.366578 -0.122093
C76   C     C_R   0.366364 0.908524 0.431856 -0.114614
C77   C     C_R   0.633642 0.091446 0.568139 -0.114110
C78   C     C_3   0.237733 0.597380 0.238149 0.287744
C79   C     C_R   0.718999 0.209586 0.281107 -0.252723
C80   C     C_3   0.211987 0.543322 0.215550 -0.882161
C81   C     C_3   0.829755 0.346206 0.828411 0.274498
C82   C     C_3   0.851168 0.402672 0.849549 -0.879867
C83   C     C_3   0.402841 0.237123 0.238268 0.287062
C84   C     C_3   0.456690 0.209974 0.216812 -0.880171
C85   C     C_3   0.597247 0.761745 0.761825 0.288114
C86   C     C_3   0.543104 0.784418 0.787338 -0.880987
C87   C     C_3   0.762716 0.402645 0.237864 0.288697
C88   C     C_3   0.785850 0.456486 0.212224 -0.882588
C89   C     C_3   0.170409 0.654002 0.828490 0.274454
C90   C     C_R   0.280450 0.791466 0.719460 -0.244202
C91   C     C_3   0.148916 0.597595 0.849626 -0.879989
C92   C     C_3   0.654023 0.829529 0.171418 0.273810
C93   C     C_3   0.597573 0.850965 0.150251 -0.878864
C94   C     C_3   0.402556 0.238055 0.761813 0.287428
C95   C     C_3   0.456694 0.213722 0.785734 -0.879141
C96   C     C_3   0.169634 0.345194 0.827531 0.285556
C97   C     C_3   0.147643 0.401176 0.849347 -0.889717
C98   C     C_3   0.827437 0.650946 0.172309 0.277093
C99   C     C_3   0.847434 0.593632 0.152112 -0.895516
C100  C     C_3   0.349268 0.827188 0.827638 0.276694
C101  C     C_R   0.281101 0.208395 0.280789 -0.231482
C102  C     C_3   0.406625 0.847137 0.847805 -0.893763
C103  C     C_3   0.651756 0.171251 0.174097 0.287942
C104  C     C_3   0.594882 0.150228 0.153649 -0.904327
C105  C     C_3   0.830296 0.655002 0.827552 0.285546
C106  C     C_3   0.852364 0.599080 0.849370 -0.890465
C107  C     C_3   0.171762 0.348246 0.173929 0.287940
C108  C     C_3   0.150992 0.405134 0.153385 -0.901769
C109  C     C_3   0.651033 0.172595 0.827522 0.275934
C110  C     C_3   0.593695 0.152604 0.847672 -0.893098
C111  C     C_3   0.345255 0.829814 0.172370 0.283905
C112  C     C_R   0.719656 0.280610 0.791280 -0.243783
C113  C     C_R   0.718672 0.791169 0.719100 -0.231223
C114  C     C_3   0.401306 0.851598 0.150518 -0.884971
C115  C     C_3   0.169424 0.172082 0.655351 0.286427
C116  C     C_3   0.147264 0.150032 0.599580 -0.892579
C117  C     C_3   0.829413 0.829501 0.345598 0.275940
C118  C     C_3   0.850936 0.850976 0.401841 -0.884373
C119  C     C_3   0.171940 0.830404 0.344721 0.286129
C120  C     C_3   0.149940 0.852551 0.400516 -0.891609
C121  C     C_3   0.829695 0.170662 0.654533 0.275927
C122  C     C_3   0.851202 0.149071 0.598330 -0.884587
C123  C     C_3   0.828152 0.169476 0.344093 0.286966
C124  C     C_R   0.281090 0.208736 0.719103 -0.231184
C125  C     C_3   0.850431 0.147119 0.399666 -0.892707
C126  C     C_3   0.170495 0.829348 0.654624 0.275876
C127  C     C_3   0.148956 0.850902 0.598447 -0.884444
C128  C     C_3   0.830261 0.827853 0.655277 0.286373
C129  C     C_3   0.852352 0.849821 0.599476 -0.892389
C130  C     C_3   0.169188 0.171754 0.343795 0.286796
C131  C     C_3   0.146625 0.149449 0.399272 -0.892363
C132  C     C_R   0.720064 0.792119 0.280112 -0.249276
C133  C     C_R   0.719757 0.208464 0.719491 -0.244557
C134  C     C_R   0.280576 0.790861 0.280721 -0.255119
C135  C     C_R   0.233413 0.693475 0.233677 0.413256
C136  C     C_R   0.768907 0.303844 0.768563 0.413177
C137  C     C_R   0.306666 0.233383 0.233801 0.415172
C138  C     C_R   0.693370 0.766334 0.766311 0.412862
C139  C     C_R   0.766542 0.306508 0.233665 0.413498
C140  C     C_R   0.281863 0.281160 0.209480 -0.229148
C141  C     C_R   0.231224 0.696200 0.768554 0.413316
C142  C     C_R   0.696284 0.768838 0.231409 0.413344
C143  C     C_R   0.306423 0.233595 0.766314 0.414205
C144  C     C_R   0.231993 0.304184 0.768248 0.410401
C145  C     C_R   0.768131 0.695675 0.232033 0.407874
C146  C     C_R   0.304468 0.767966 0.767884 0.408052
C147  C     C_R   0.695109 0.232876 0.232541 0.405456
C148  C     C_R   0.767892 0.695844 0.768250 0.410712
C149  C     C_R   0.233018 0.304795 0.232636 0.405330
C150  C     C_R   0.695768 0.231971 0.767951 0.407971
C151  C     C_R   0.718688 0.719071 0.791105 -0.231064
C152  C     C_R   0.304114 0.767796 0.231833 0.410842
C153  C     C_R   0.231880 0.231590 0.695922 0.410309
C154  C     C_R   0.768925 0.768930 0.303719 0.413081
C155  C     C_R   0.231474 0.768009 0.304094 0.410173
C156  C     C_R   0.769048 0.231141 0.696304 0.413174
C157  C     C_R   0.768476 0.232064 0.304071 0.410473
C158  C     C_R   0.231105 0.768828 0.696319 0.413158
C159  C     C_R   0.767904 0.768336 0.695919 0.411098
C160  C     C_R   0.231972 0.231393 0.304032 0.409152
C161  C     C_R   0.378659 0.378866 0.110471 0.082152
C162  C     C_R   0.718780 0.281632 0.209314 -0.229383
C163  C     C_R   0.621625 0.621344 0.889966 0.081503
C164  C     C_R   0.621231 0.378595 0.110314 0.082111
C165  C     C_R   0.379296 0.620615 0.888108 0.082488
C166  C     C_R   0.620691 0.620726 0.111855 0.082600
C167  C     C_R   0.378351 0.378625 0.889966 0.081023
C168  C     C_R   0.378615 0.621566 0.110103 0.082072
C169  C     C_R   0.620732 0.379348 0.888118 0.082295
C170  C     C_R   0.111998 0.379335 0.379451 0.081747
C171  C     C_R   0.888313 0.620822 0.620765 0.081931
C172  C     C_R   0.109933 0.621680 0.378664 0.081363
C173  C     C_R   0.280535 0.719380 0.791227 -0.243846
C174  C     C_R   0.888703 0.378979 0.620905 0.082387
C175  C     C_R   0.111293 0.621049 0.620941 0.082361
C176  C     C_R   0.890254 0.378208 0.378538 0.081154
C177  C     C_R   0.111645 0.379188 0.620764 0.081920
C178  C     C_R   0.888278 0.620774 0.379316 0.082074
C179  C     C_R   0.378192 0.109736 0.378591 0.081550
C180  C     C_R   0.621644 0.889957 0.621291 0.081412
C181  C     C_R   0.378321 0.110050 0.621300 0.081722
C182  C     C_R   0.621062 0.888699 0.379071 0.082212
C183  C     C_R   0.620833 0.111702 0.620716 0.082195
C184  C     C_R   0.719511 0.719583 0.208688 -0.244112
C185  C     C_R   0.379164 0.888293 0.379253 0.081447
C186  C     C_R   0.620633 0.112036 0.379503 0.082365
C187  C     C_R   0.379202 0.888274 0.620665 0.082043
C188  C     C_1   0.139656 0.658499 0.342190 -0.065234
C189  C     C_1   0.858808 0.342287 0.657547 -0.052208
C190  C     C_1   0.341323 0.139373 0.342074 -0.065246
C191  C     C_1   0.658400 0.860121 0.657759 -0.065627
C192  C     C_1   0.860593 0.341350 0.342004 -0.065827
C193  C     C_1   0.141212 0.657751 0.657594 -0.052209
C194  C     C_1   0.657778 0.858780 0.342425 -0.052034
C195  C     C_R   0.281163 0.280914 0.791111 -0.230867
C196  C     C_1   0.341483 0.139822 0.657767 -0.065555
C197  C     C_1   0.141946 0.342693 0.657249 -0.053223
C198  C     C_1   0.858164 0.657382 0.342826 -0.053536
C199  C     C_1   0.342618 0.858103 0.657148 -0.053327
C200  C     C_1   0.657075 0.142537 0.343183 -0.056665
C201  C     C_1   0.857975 0.657318 0.657254 -0.052879
C202  C     C_1   0.142472 0.342855 0.343123 -0.054703
C203  C     C_1   0.657475 0.141835 0.657206 -0.053745
C204  C     C_1   0.342649 0.857941 0.342782 -0.050808
C205  C     C_1   0.342108 0.342434 0.140535 -0.066791
C206  C     C_R   0.208973 0.280656 0.719328 -0.255512
C207  C     C_1   0.658382 0.657800 0.860091 -0.065025
C208  C     C_1   0.342739 0.657065 0.857841 -0.053594
C209  C     C_1   0.657638 0.341958 0.140314 -0.068155
C210  C     C_1   0.657342 0.342895 0.857884 -0.053532
C211  C     C_1   0.342115 0.658305 0.139977 -0.065910
C212  C     C_1   0.657177 0.657315 0.142080 -0.053882
C213  C     C_1   0.341553 0.342166 0.860107 -0.062987
C214  C     C_1   0.168449 0.687619 0.312971 0.145468
C215  C     C_1   0.830639 0.312775 0.687079 0.172730
C216  C     C_1   0.312216 0.168163 0.312831 0.146088
H1    H     H_    0.325291 0.451733 0.091402 0.097357
H2    H     H_    0.674765 0.451397 0.091339 0.097242
H3    H     H_    0.325968 0.864143 0.810652 0.076159
H4    H     H_    0.430623 0.865457 0.812189 0.255431
H5    H     H_    0.401321 0.879709 0.880837 0.206677
H6    H     H_    0.430681 0.811237 0.865548 0.255322
H7    H     H_    0.674820 0.135112 0.193039 0.072836
H8    H     H_    0.675692 0.187356 0.137188 0.080521
H9    H     H_    0.571051 0.185251 0.133963 0.256705
H10   H     H_    0.600959 0.116333 0.122113 0.205745
H11   H     H_    0.570244 0.133302 0.189520 0.256861
H12   H     H_    0.813658 0.679493 0.863884 0.078498
H13   H     H_    0.548712 0.674785 0.908896 0.097164
H14   H     H_    0.866061 0.678276 0.808135 0.071033
H15   H     H_    0.869860 0.573905 0.814126 0.255353
H16   H     H_    0.886086 0.606579 0.880790 0.201149
H17   H     H_    0.817753 0.575084 0.869597 0.256191
H18   H     H_    0.135425 0.325240 0.192586 0.076014
H19   H     H_    0.188128 0.324314 0.137109 0.082507
H20   H     H_    0.186236 0.428907 0.133999 0.256081
H21   H     H_    0.117337 0.399129 0.121580 0.207056
H22   H     H_    0.133798 0.429772 0.189152 0.256675
H23   H     H_    0.674339 0.190003 0.864270 0.074321
H24   H     H_    0.451490 0.325349 0.091451 0.099383
H25   H     H_    0.674293 0.135684 0.810338 0.075656
H26   H     H_    0.569631 0.134428 0.812000 0.255816
H27   H     H_    0.599031 0.119911 0.880535 0.205935
H28   H     H_    0.569686 0.188454 0.865625 0.255186
H29   H     H_    0.322017 0.865725 0.191580 0.074837
H30   H     H_    0.320786 0.813039 0.136084 0.079447
H31   H     H_    0.425264 0.816823 0.130505 0.255018
H32   H     H_    0.393954 0.885135 0.118913 0.203378
H33   H     H_    0.426467 0.869228 0.185706 0.255404
H34   H     H_    0.133692 0.191583 0.678624 0.071122
H35   H     H_    0.674434 0.451862 0.907788 0.099651
H36   H     H_    0.186126 0.135802 0.679861 0.078733
H37   H     H_    0.181841 0.129711 0.575597 0.256310
H38   H     H_    0.113570 0.118591 0.607201 0.200554
H39   H     H_    0.129706 0.185219 0.574388 0.255628
H40   H     H_    0.811509 0.865782 0.321949 0.070963
H41   H     H_    0.865709 0.811685 0.321846 0.072235
H42   H     H_    0.869665 0.815812 0.426211 0.255067
H43   H     H_    0.883580 0.883661 0.394913 0.199725
H44   H     H_    0.815756 0.869614 0.426310 0.254937
H45   H     H_    0.135621 0.813674 0.320229 0.078524
H46   H     H_    0.325198 0.548627 0.091225 0.098593
H47   H     H_    0.191393 0.866125 0.321448 0.072844
H48   H     H_    0.185165 0.870133 0.425692 0.255733
H49   H     H_    0.118447 0.886202 0.392928 0.200924
H50   H     H_    0.129668 0.817982 0.424501 0.255960
H51   H     H_    0.811896 0.134411 0.678309 0.072142
H52   H     H_    0.865980 0.188624 0.678193 0.070919
H53   H     H_    0.869816 0.184208 0.573836 0.255016
H54   H     H_    0.883933 0.116487 0.605319 0.199613
H55   H     H_    0.816038 0.130276 0.573957 0.255060
H56   H     H_    0.864362 0.186211 0.319470 0.078758
H57   H     H_    0.451265 0.325187 0.908861 0.098337
H58   H     H_    0.808498 0.133861 0.320775 0.071083
H59   H     H_    0.815319 0.129519 0.424960 0.255646
H60   H     H_    0.881823 0.113439 0.391753 0.200655
H61   H     H_    0.870897 0.181579 0.423690 0.256206
H62   H     H_    0.188375 0.865602 0.678385 0.072357
H63   H     H_    0.134212 0.811467 0.678321 0.070870
H64   H     H_    0.130252 0.815764 0.573972 0.254916
H65   H     H_    0.116288 0.883550 0.605474 0.199627
H66   H     H_    0.184121 0.869606 0.574033 0.255163
H67   H     H_    0.866035 0.808451 0.678543 0.070716
H68   H     H_    0.548167 0.674417 0.092206 0.099760
H69   H     H_    0.813521 0.864159 0.679772 0.078155
H70   H     H_    0.817728 0.870036 0.575495 0.256215
H71   H     H_    0.886000 0.881332 0.607056 0.200386
H72   H     H_    0.869951 0.814610 0.574301 0.255642
H73   H     H_    0.185974 0.135573 0.319149 0.079283
H74   H     H_    0.133647 0.191458 0.320424 0.073147
H75   H     H_    0.181006 0.128932 0.423343 0.256111
H76   H     H_    0.128971 0.184534 0.424584 0.255688
H77   H     H_    0.112921 0.118115 0.391218 0.201099
H78   H     H_    0.092326 0.325631 0.451828 0.098975
H79   H     H_    0.907875 0.674453 0.548293 0.098936
H80   H     H_    0.091008 0.548779 0.325251 0.097270
H81   H     H_    0.674878 0.548469 0.909112 0.099018
H82   H     H_    0.908305 0.451564 0.674501 0.098577
H83   H     H_    0.091846 0.674540 0.548334 0.099291
H84   H     H_    0.909273 0.325111 0.451460 0.098785
H85   H     H_    0.092083 0.451780 0.674370 0.098814
H86   H     H_    0.907752 0.548134 0.325689 0.097654
H87   H     H_    0.908154 0.325458 0.548246 0.099329
H88   H     H_    0.090853 0.674850 0.451589 0.098773
H89   H     H_    0.907875 0.548283 0.674350 0.098826
H90   H     H_    0.092532 0.451883 0.325787 0.097563
H91   H     H_    0.907960 0.674470 0.451771 0.098806
H92   H     H_    0.548315 0.325295 0.091209 0.097789
H93   H     H_    0.092046 0.325514 0.548268 0.098951
H94   H     H_    0.909087 0.451131 0.325222 0.098113
H95   H     H_    0.091716 0.548500 0.674494 0.098639
H96   H     H_    0.451115 0.090820 0.325214 0.096809
H97   H     H_    0.548744 0.908905 0.674695 0.098134
H98   H     H_    0.325160 0.090991 0.548361 0.099368
H99   H     H_    0.674585 0.908169 0.451710 0.099218
H100  H     H_    0.548203 0.092237 0.674332 0.097699
H101  H     H_    0.451731 0.907864 0.325633 0.099282
H102  H     H_    0.674403 0.092363 0.451880 0.099039
H103  H     H_    0.451874 0.674347 0.907664 0.097203
H104  H     H_    0.325499 0.907921 0.548234 0.098883
H105  H     H_    0.548480 0.908289 0.325487 0.098865
H106  H     H_    0.451203 0.091113 0.674730 0.097873
H107  H     H_    0.674858 0.909032 0.548419 0.098685
H108  H     H_    0.325083 0.090770 0.451559 0.099396
H109  H     H_    0.451821 0.907787 0.674298 0.097608
H110  H     H_    0.548037 0.092540 0.325813 0.097363
H111  H     H_    0.325505 0.907882 0.451755 0.099078
H112  H     H_    0.674524 0.091999 0.548285 0.098989
H113  H     H_    0.231568 0.598081 0.284474 0.093148
H114  H     H_    0.674424 0.548165 0.092302 0.097408
H115  H     H_    0.283655 0.596434 0.229250 0.094366
H116  H     H_    0.218440 0.540632 0.169404 0.251922
H117  H     H_    0.232254 0.506415 0.235746 0.232929
H118  H     H_    0.166173 0.542356 0.224760 0.249997
H119  H     H_    0.866010 0.322620 0.810284 0.071210
H120  H     H_    0.812360 0.322476 0.864862 0.074086
H121  H     H_    0.816045 0.426988 0.868505 0.255246
H122  H     H_    0.884204 0.395980 0.881855 0.201240
H123  H     H_    0.869370 0.427125 0.814189 0.253922
H124  H     H_    0.401560 0.231936 0.284705 0.091222
H125  H     H_    0.325116 0.451521 0.909142 0.099147
H126  H     H_    0.404691 0.282795 0.228465 0.093632
H127  H     H_    0.459993 0.215432 0.170584 0.253240
H128  H     H_    0.493757 0.229972 0.237044 0.232431
H129  H     H_    0.456725 0.164369 0.226923 0.249084
H130  H     H_    0.597912 0.715384 0.768065 0.093758
H131  H     H_    0.596434 0.770552 0.715958 0.095410
H132  H     H_    0.540475 0.830603 0.780833 0.251460
H133  H     H_    0.506223 0.764169 0.767015 0.234562
H134  H     H_    0.541995 0.775278 0.833086 0.249715
H135  H     H_    0.771605 0.403504 0.283721 0.094490
H136  H     H_    0.451483 0.674845 0.090915 0.099010
H137  H     H_    0.716321 0.402394 0.231676 0.092361
H138  H     H_    0.776632 0.457564 0.166483 0.250117
H139  H     H_    0.765966 0.493583 0.232499 0.234250
H140  H     H_    0.832092 0.458710 0.218672 0.251442
H141  H     H_    0.134170 0.677655 0.810447 0.071094
H142  H     H_    0.187924 0.677717 0.864928 0.074150
H143  H     H_    0.184025 0.573211 0.868490 0.255340
H144  H     H_    0.115963 0.604375 0.882003 0.201146
H145  H     H_    0.130586 0.573163 0.814282 0.253890
H146  H     H_    0.677731 0.811965 0.135001 0.074058
H147  H     H_    0.548160 0.325618 0.907646 0.097557
H148  H     H_    0.677694 0.865784 0.189428 0.071242
H149  H     H_    0.573146 0.869343 0.185571 0.254027
H150  H     H_    0.604334 0.883847 0.117838 0.201323
H151  H     H_    0.573172 0.815837 0.131421 0.255120
H152  H     H_    0.402748 0.284192 0.769534 0.093848
H153  H     H_    0.402541 0.230660 0.715670 0.093718
H154  H     H_    0.458445 0.167724 0.777713 0.250534
H155  H     H_    0.493594 0.233985 0.765490 0.233698
H156  H     H_    0.458661 0.221419 0.831729 0.251151
H157  H     H_    0.186223 0.320723 0.863867 0.080642
H158  H     H_    0.325572 0.548126 0.907746 0.099709
H159  H     H_    0.133840 0.321949 0.808098 0.071379
H160  H     H_    0.130197 0.426334 0.814098 0.255152
H161  H     H_    0.113898 0.393767 0.880751 0.201627
H162  H     H_    0.182283 0.425144 0.869591 0.256287
H163  H     H_    0.864388 0.674238 0.189382 0.075592
H164  H     H_    0.809923 0.674191 0.135604 0.074127
H165  H     H_    0.811541 0.569584 0.134285 0.255526
H166  H     H_    0.880052 0.598959 0.119141 0.205854
H167  H     H_    0.865736 0.569635 0.187733 0.255737
H168  H     H_    0.326023 0.809656 0.864341 0.074598
N1    N     N_R   0.411340 0.449990 0.062390 -0.044341
N2    N     N_R   0.588660 0.449990 0.062390 -0.043059
N3    N     N_R   0.550010 0.588660 0.937610 -0.042874
N4    N     N_R   0.449990 0.411340 0.062390 -0.043112
N5    N     N_R   0.588660 0.449990 0.937610 -0.045194
N6    N     N_R   0.411340 0.550010 0.062390 -0.043277
N7    N     N_R   0.449990 0.411340 0.937610 -0.042826
N8    N     N_R   0.550010 0.588660 0.062390 -0.045274
N9    N     N_R   0.062390 0.411340 0.449990 -0.044767
N10   N     N_R   0.937610 0.588660 0.550010 -0.044842
N11   N     N_R   0.062390 0.550010 0.411340 -0.042562
N12   N     N_R   0.588660 0.550010 0.937610 -0.045186
N13   N     N_R   0.937610 0.449990 0.588660 -0.044656
N14   N     N_R   0.062390 0.588660 0.550010 -0.045091
N15   N     N_R   0.937610 0.411340 0.449990 -0.045041
N16   N     N_R   0.062390 0.449990 0.588660 -0.044660
N17   N     N_R   0.937610 0.550010 0.411340 -0.043611
N18   N     N_R   0.937610 0.411340 0.550010 -0.045054
N19   N     N_R   0.062390 0.588660 0.449990 -0.045059
N20   N     N_R   0.937610 0.550010 0.588660 -0.044676
N21   N     N_R   0.062390 0.449990 0.411340 -0.043543
N22   N     N_R   0.937610 0.588660 0.449990 -0.044858
N23   N     N_R   0.550010 0.411340 0.062390 -0.044249
N24   N     N_R   0.062390 0.411340 0.550010 -0.044760
N25   N     N_R   0.937610 0.449990 0.411340 -0.042488
N26   N     N_R   0.062390 0.550010 0.588660 -0.044700
N27   N     N_R   0.449990 0.062390 0.411340 -0.042679
N28   N     N_R   0.550010 0.937610 0.588660 -0.042542
N29   N     N_R   0.411340 0.062390 0.550010 -0.045472
N30   N     N_R   0.588660 0.937610 0.449990 -0.045129
N31   N     N_R   0.550010 0.062390 0.588660 -0.043766
N32   N     N_R   0.449990 0.937610 0.411340 -0.044600
N33   N     N_R   0.588660 0.062390 0.449990 -0.044994
N34   N     N_R   0.449990 0.588660 0.937610 -0.043936
N35   N     N_R   0.411340 0.937610 0.550010 -0.044922
N36   N     N_R   0.550010 0.937610 0.411340 -0.044624
N37   N     N_R   0.449990 0.062390 0.588660 -0.042731
N38   N     N_R   0.588660 0.937610 0.550010 -0.045107
N39   N     N_R   0.411340 0.062390 0.449990 -0.045380
N40   N     N_R   0.449990 0.937610 0.588660 -0.043623
N41   N     N_R   0.550010 0.062390 0.411340 -0.043735
N42   N     N_R   0.411340 0.937610 0.449990 -0.044935
N43   N     N_R   0.588660 0.062390 0.550010 -0.045077
N44   N     N_R   0.588660 0.550010 0.062390 -0.044169
N45   N     N_R   0.411340 0.449990 0.937610 -0.045266
N46   N     N_R   0.449990 0.588660 0.062390 -0.045294
N47   N     N_R   0.550010 0.411340 0.937610 -0.043902
N48   N     N_R   0.411340 0.550010 0.937610 -0.045192
Ni1   Ni    Ni4+2 0.412730 0.500000 0.000000 0.210421
Ni2   Ni    Ni4+2 0.500000 0.000000 0.587270 0.211218
Ni3   Ni    Ni4+2 0.412730 0.000000 0.500000 0.209139
Ni4   Ni    Ni4+2 0.587270 0.000000 0.500000 0.208374
Ni5   Ni    Ni4+2 0.587270 0.500000 0.000000 0.209630
Ni6   Ni    Ni4+2 0.500000 0.412730 0.000000 0.211711
Ni7   Ni    Ni4+2 0.500000 0.587270 0.000000 0.209520
Ni8   Ni    Ni4+2 0.000000 0.412730 0.500000 0.208714
Ni9   Ni    Ni4+2 0.000000 0.587270 0.500000 0.208535
Ni10  Ni    Ni4+2 1.000000 0.500000 0.412730 0.211561
Ni11  Ni    Ni4+2 1.000000 0.500000 0.587270 0.207681
Ni12  Ni    Ni4+2 0.500000 0.000000 0.412730 0.209422
O1    O     O_3   0.211519 0.643916 0.211905 -0.611688
O2    O     O_3   0.786095 0.643285 0.214080 -0.602930
O3    O     O_3   0.356898 0.785903 0.785789 -0.602969
O4    O     O_3   0.643137 0.214260 0.213980 -0.605021
O5    O     O_3   0.787531 0.644661 0.787792 -0.598078
O6    O     O_3   0.214469 0.356780 0.214151 -0.605711
O7    O     O_3   0.643358 0.214020 0.785877 -0.602860
O8    O     O_3   0.355413 0.787286 0.212369 -0.598788
O9    O     O_3   0.212145 0.211876 0.644864 -0.598577
O10   O     O_3   0.788058 0.788085 0.355207 -0.596198
O11   O     O_3   0.211802 0.787739 0.355169 -0.598438
O12   O     O_3   0.787893 0.355523 0.787480 -0.596415
O13   O     O_3   0.788229 0.211951 0.644849 -0.596298
O14   O     O_3   0.788430 0.212180 0.354951 -0.598391
O15   O     O_3   0.211890 0.787988 0.644889 -0.596218
O16   O     O_3   0.787591 0.787976 0.644839 -0.597950
O17   O     O_3   0.211920 0.211402 0.354829 -0.599174
O18   O     O_3   0.356101 0.211284 0.211932 -0.610012
O19   O     O_3   0.643743 0.788084 0.788091 -0.612113
O20   O     O_3   0.788596 0.355863 0.211660 -0.611519
O21   O     O_3   0.212174 0.644572 0.787477 -0.596422
O22   O     O_3   0.644618 0.787858 0.212478 -0.596454
O23   O     O_3   0.356030 0.211790 0.788063 -0.610670
O24   O     O_3   0.212427 0.355421 0.787791 -0.598526

loop_
_geom_bond_atom_site_label_1
_geom_bond_atom_site_label_2
_ccdc_geom_bond_type
C123  H56   S    
C142  C184  A    
C126  C127  S    
C106  H17   S    
C67   N33   A    
C83   H124  S    
C168  C211  S    
C148  C151  A    
C53   N19   A    
C57   C158  A    
C8    C197  T    
C65   H100  S    
C115  H34   S    
C116  H38   S    
C126  H62   S    
C145  C184  A    
C30   N44   A    
C66   C185  A    
C26   N1    A    
C93   H151  S    
C117  H40   S    
C146  O3    S    
C118  H44   S    
C63   N29   A    
C56   N22   A    
C41   N7    A    
C131  H77   S    
C54   N20   A    
C105  H12   S    
N4    Ni6   S    
N3    Ni7   S    
C29   N34   A    
C100  H3    S    
C80   H118  S    
C182  C194  S    
C127  H64   S    
N24   Ni8   S    
N11   Ni10  S    
C13   C160  A    
C123  H58   S    
C48   C175  A    
C67   H102  S    
C161  C205  S    
C159  O16   S    
C50   H85   S    
C43   C170  A    
C109  H23   S    
C137  C140  A    
C150  O7    S    
C34   N48   A    
C6    C132  S    
C71   N37   A    
C64   N30   A    
C144  C195  A    
C101  C137  A    
C107  O6    S    
C88   H138  S    
C29   H103  S    
C96   O24   S    
C110  H26   S    
C96   H159  S    
C134  C155  A    
C33   H147  S    
C84   H127  S    
C73   N39   A    
C74   N40   A    
C85   H131  S    
N33   Ni4   S    
C115  O9    S    
C11   C79   S    
C122  H55   S    
N47   Ni6   S    
N48   Ni1   S    
C31   C167  A    
C17   C140  S    
C61   C179  A    
C32   C168  A    
C3    C113  S    
N43   Ni4   S    
N32   Ni12  S    
N29   N37   A    
C45   C172  A    
C6    C194  T    
C21   C112  S    
C41   H57   S    
C102  H6    S    
C74   C187  A    
C125  H59   S    
C86   H134  S    
C139  C162  A    
N16   Ni11  S    
C53   H88   S    
C95   H155  S    
C147  C162  A    
N46   Ni7   S    
C15   C203  T    
C118  H42   S    
C57   C141  A    
C138  C151  A    
C26   C161  A    
C131  H75   S    
N17   Ni10  S    
C105  H14   S    
C25   C213  T    
C130  C131  S    
C94   O23   S    
C39   C169  A    
C111  H30   S    
N40   Ni2   S    
C77   C183  A    
C35   C214  S    
C170  C202  S    
C47   C174  A    
C174  C189  S    
C38   H24   S    
N34   N48   A    
C108  H21   S    
C46   C215  S    
N2    N23   A    
N32   N42   A    
C99   H167  S    
N7    Ni6   S    
C7    C196  T    
C16   C204  T    
C32   N46   A    
C175  C193  S    
C171  C201  S    
C63   C181  A    
C149  O6    S    
C27   H81   S    
C147  O4    S    
C16   C134  S    
C128  C129  S    
C121  H51   S    
N22   Ni9   S    
N9    Ni8   S    
C56   C178  A    
C85   C86   S    
C106  H15   S    
N20   Ni11  S    
C37   H13   S    
N11   N19   A    
C88   H140  S    
N7    N45   A    
C185  C204  S    
C35   C155  A    
N27   Ni12  S    
N29   Ni3   S    
C78   C80   S    
C100  O3    S    
C23   C212  T    
C115  C116  S    
C144  O24   S    
C21   C210  T    
C1    C152  A    
C39   N5    A    
C181  C196  S    
C11   C200  T    
C53   C172  A    
C27   C163  A    
C69   N35   A    
C101  C160  A    
C70   N36   A    
C132  C154  A    
C138  O19   S    
C89   C91   S    
C34   C165  A    
C69   C187  A    
C55   C170  A    
C27   N12   A    
C74   H109  S    
C102  H4    S    
C166  C212  S    
C1    C22   S    
C2    C154  A    
C130  O17   S    
C86   H132  S    
C124  C153  A    
N37   Ni2   S    
C28   H92   S    
C52   H87   S    
C112  C136  A    
C49   N15   A    
C122  H53   S    
C62   N28   A    
C43   N9    A    
C33   N47   A    
C120  H50   S    
C139  O20   S    
C129  H71   S    
C47   H82   S    
C59   C176  A    
C35   C135  A    
C4    C68   S    
C188  C214  T    
C157  O14   S    
C114  H33   S    
C18   C207  T    
C89   H142  S    
C83   C84   S    
N45   Ni1   S    
C91   H144  S    
C65   N31   A    
C20   C162  S    
C66   N32   A    
C59   N25   A    
C99   H165  S    
C113  C159  A    
C105  O5    S    
C70   H105  S    
C98   C99   S    
C19   C208  T    
C112  C150  A    
C43   H78   S    
C64   H99   S    
C153  O9    S    
C51   N17   A    
C51   C178  A    
C52   C174  A    
C45   N11   A    
N23   Ni6   S    
C42   N8    A    
C135  O1    S    
N6    N46   A    
C160  O17   S    
C133  C150  A    
C180  C191  S    
C75   N41   A    
C46   C156  A    
C126  H63   S    
C12   C24   S    
N12   Ni5   S    
C111  O8    S    
N15   Ni8   S    
C17   C205  T    
N34   Ni7   S    
C117  C118  S    
C72   H107  S    
C81   H120  S    
C154  O10   S    
C169  C210  S    
C61   N27   A    
N8    Ni7   S    
C58   N24   A    
C103  O4    S    
N6    Ni1   S    
C98   H163  S    
C75   C186  A    
C66   H101  S    
C72   C180  A    
C143  O23   S    
C1    C135  A    
C2    C9    S    
C140  C149  A    
C116  H39   S    
C76   C185  A    
C87   C88   S    
C108  H20   S    
C97   H162  S    
C36   N2    A    
C133  C156  A    
C4    C192  T    
C54   H89   S    
C77   N43   A    
C82   H121  S    
C33   C169  A    
C24   C159  A    
C48   N14   A    
C104  H9    S    
C2    C145  A    
C76   N42   A    
C80   H116  S    
C127  H66   S    
C92   H146  S    
C32   H136  S    
C128  H69   S    
C65   C183  A    
C123  C125  S    
C142  O22   S    
C141  O21   S    
C78   H115  S    
C31   N45   A    
C29   C165  A    
N30   Ni4   S    
C52   N18   A    
N3    N12   A    
C189  C215  T    
C123  O14   S    
N28   Ni2   S    
C110  H27   S    
C70   C182  A    
C38   C161  A    
C114  H32   S    
C84   H128  S    
N27   N39   A    
C85   H130  S    
C124  C143  A    
N13   Ni11  S    
C95   H156  S    
N17   N22   A    
N33   N41   A    
C97   H160  S    
N21   Ni10  S    
C10   C199  T    
C26   H1    S    
C186  C200  S    
C144  C206  A    
C116  H37   S    
C87   O20   S    
C148  O5    S    
N10   Ni9   S    
C36   H2    S    
C61   H96   S    
C79   C147  A    
C118  H43   S    
C177  C197  S    
C56   H91   S    
N19   Ni9   S    
C187  C199  S    
C87   H137  S    
C34   H158  S    
C19   C173  S    
C103  H8    S    
C92   O22   S    
N28   N38   A    
C164  C209  S    
C98   O2    S    
C134  C152  A    
C22   C211  T    
C50   C177  A    
C80   H117  S    
C20   C209  T    
N14   N26   A    
C8    C206  S    
C130  H73   S    
C121  C122  S    
C107  H18   S    
C108  H22   S    
C83   O18   S    
C45   H80   S    
N31   Ni2   S    
C68   C157  A    
C104  H11   S    
C5    C193  T    
C73   H108  S    
N14   Ni9   S    
C92   H148  S    
N36   Ni12  S    
C79   C157  A    
C59   H94   S    
C42   H68   S    
C119  C120  S    
C105  C106  S    
C93   H150  S    
C78   H113  S    
C5    C57   S    
N42   Ni3   S    
C44   C171  A    
N16   N24   A    
C109  C110  S    
C158  O15   S    
C78   O1    S    
C125  H61   S    
C62   H97   S    
C156  O13   S    
C163  C207  S    
C92   C93   S    
C94   H153  S    
C50   N16   A    
C111  C114  S    
C94   C95   S    
N15   N25   A    
C122  H54   S    
C13   C149  A    
C39   H35   S    
C10   C90   S    
C167  C213  S    
C84   H129  S    
C75   H110  S    
C103  C104  S    
C36   C164  A    
C60   C175  A    
C113  C138  A    
C68   C139  A    
C190  C216  T    
C49   C176  A    
C42   C166  A    
C102  H5    S    
C125  H60   S    
N39   Ni3   S    
C86   H133  S    
C7    C124  S    
C60   H95   S    
C81   C82   S    
N31   N43   A    
C131  H76   S    
C69   H104  S    
C129  H70   S    
C62   C180  A    
C176  C192  S    
N25   Ni10  S    
C101  C216  S    
C146  C173  A    
C14   C202  T    
C155  O11   S    
C85   O19   S    
C44   N10   A    
C89   H141  S    
C100  H168  S    
C40   H46   S    
N44   Ni5   S    
C119  H47   S    
C114  H31   S    
N10   N20   A    
C120  H48   S    
C44   H79   S    
C109  H25   S    
C126  O15   S    
C58   C177  A    
C48   H83   S    
C47   N13   A    
C25   C195  S    
C67   C186  A    
C111  H29   S    
C37   C163  A    
N1    N4    A    
C178  C198  S    
C143  C195  A    
C141  C173  A    
C103  H7    S    
C72   N38   A    
C58   H93   S    
C121  H52   S    
C94   H152  S    
C55   H90   S    
C109  O7    S    
C132  C142  A    
C60   N26   A    
C136  O12   S    
C88   H139  S    
N8    N44   A    
C83   H126  S    
C81   H119  S    
C30   C166  A    
C28   N23   A    
C24   C148  A    
C91   H143  S    
N18   Ni8   S    
C115  H36   S    
N1    Ni1   S    
C117  O10   S    
C93   H149  S    
C46   C136  A    
C90   C158  A    
C49   H84   S    
C31   H125  S    
C3    C191  T    
C145  O2    S    
N9    N21   A    
C117  H41   S    
C91   H145  S    
C71   C181  A    
C107  C108  S    
C96   C97   S    
C130  H74   S    
C81   O12   S    
C100  C102  S    
C12   C201  T    
C98   H164  S    
N5    N47   A    
C119  O11   S    
N13   N18   A    
N5    Ni5   S    
N35   Ni3   S    
C30   H114  S    
N38   Ni4   S    
C95   H154  S    
C9    C198  T    
C28   C164  A    
C128  O16   S    
C107  H19   S    
C71   H106  S    
C97   H161  S    
C120  H49   S    
C54   C171  A    
C129  H72   S    
N41   Ni12  S    
C82   H122  S    
N2    Ni5   S    
C87   H135  S    
C51   H86   S    
C104  H10   S    
C15   C133  S    
N30   N36   A    
N26   Ni11  S    
C63   H98   S    
C183  C203  S    
C127  H65   S    
N35   N40   A    
C64   C182  A    
C23   C184  S    
C90   C146  A    
C119  H45   S    
C179  C190  S    
C172  C188  S    
C41   C167  A    
C77   H112  S    
C106  H16   S    
C55   N21   A    
C99   H166  S    
C137  O18   S    
C37   N3    A    
C165  C208  S    
C40   C168  A    
C152  O8    S    
C121  O13   S    
C153  C206  A    
C73   C179  A    
C110  H28   S    
C96   H157  S    
C82   H123  S    
C89   O21   S    
C128  H67   S    
C13   C14   S    
C40   N6    A    
C18   C151  S    
C76   H111  S    
C38   N4    A    
