data_mof_unit_37498.cif
_audit_creation_date              2012-12-10T17:24:11-0500
_audit_creation_method            fapswitch 2.2
_symmetry_space_group_name_H-M    P1
_symmetry_Int_Tables_number       1
_space_group_crystal_system       triclinic
_cell_length_a                    19.364322
_cell_length_b                    10.834672
_cell_length_c                    9.604619
_cell_angle_alpha                 88.964397
_cell_angle_beta                  89.784525
_cell_angle_gamma                 94.771553
_cell_volume                      2007.76760804

loop_
_atom_site_label
_atom_site_type_symbol
_atom_type_description
_atom_site_fract_x
_atom_site_fract_y
_atom_site_fract_z
_atom_type_partial_charge
C1    C     C_R   0.493630 0.261938 0.501425 0.792148
C2    C     C_R   0.291828 0.502545 0.502329 -0.035199
C3    C     C_R   0.929240 0.491818 0.502868 0.403478
C4    C     C_R   0.069715 0.500745 0.507172 0.406088
C5    C     C_R   0.816092 0.494180 0.627171 -0.146444
C6    C     C_R   0.744277 0.495235 0.626415 -0.135694
C7    C     C_R   0.707989 0.492089 0.500163 -0.045210
C8    C     C_R   0.744734 0.484328 0.374732 -0.211207
C9    C     C_R   0.816719 0.484166 0.375334 -0.168526
C10   C     C_R   0.853094 0.489685 0.501601 0.052202
C11   C     C_R   0.416304 0.110246 0.726070 -0.172083
C12   C     C_R   0.367602 0.500114 0.500413 0.756474
C13   C     C_R   0.385112 0.038441 0.834259 -0.142902
C14   C     C_R   0.383302 0.910337 0.830633 -0.115977
C15   C     C_R   0.412641 0.853312 0.718758 -0.154124
C16   C     C_R   0.448040 0.923987 0.610673 0.091102
C17   C     C_R   0.449866 0.055346 0.614533 0.109257
C18   C     C_R   0.481680 0.126474 0.502315 -0.124704
C19   C     C_R   0.498286 0.067671 0.380189 -0.267050
C20   C     C_R   0.492690 0.940469 0.372183 -0.052487
C21   C     C_R   0.477172 0.867423 0.493886 -0.183808
C22   C     C_R   0.613092 0.641727 0.132135 0.454976
C23   C     C_R   0.491846 0.735710 0.498473 0.814640
C24   C     C_R   0.671751 0.672890 0.045700 -0.459269
C25   C     C_R   0.663555 0.689559 0.903747 0.394193
C26   C     C_R   0.601591 0.645934 0.846374 -0.187483
C27   C     C_R   0.551245 0.571077 0.921933 0.090821
C28   C     C_R   0.553638 0.570246 0.071785 0.135210
C29   C     C_R   0.450312 0.434124 0.075704 -0.059576
C30   C     C_R   0.450512 0.433837 0.928106 -0.048005
C31   C     C_R   0.632264 0.496819 0.499900 0.817285
C32   C     C_R   0.257775 0.529161 0.625966 -0.231759
C33   C     C_R   0.185772 0.531139 0.630231 -0.001504
C34   C     C_R   0.146345 0.504420 0.508687 0.008335
C35   C     C_R   0.181216 0.479608 0.384781 -0.160243
C36   C     C_R   0.253092 0.478930 0.381512 -0.183033
Cu1   Cu    Cu3+1 0.500000 0.499990 0.640660 0.929227
Cu2   Cu    Cu3+1 0.500000 0.500010 0.359340 0.984078
H1    H     H_    0.287404 0.549909 0.719525 0.148060
H2    H     H_    0.410016 0.207816 0.728659 0.149458
H3    H     H_    0.359942 0.082368 0.918760 0.131541
H4    H     H_    0.356687 0.854654 0.912254 0.141801
H5    H     H_    0.403301 0.753892 0.715461 0.163072
H6    H     H_    0.409576 0.379831 0.132132 0.126318
H7    H     H_    0.721970 0.699926 0.088386 0.132543
H8    H     H_    0.596332 0.670874 0.740205 0.220994
H9    H     H_    0.409569 0.380092 0.874825 0.115366
H10   H     H_    0.152799 0.458862 0.289980 0.164882
H11   H     H_    0.278209 0.458322 0.284690 0.148987
H12   H     H_    0.842589 0.498241 0.726271 0.156196
H13   H     H_    0.717320 0.498942 0.724950 0.172412
H14   H     H_    0.718022 0.479952 0.275876 0.154346
H15   H     H_    0.843778 0.479596 0.276933 0.155558
H16   H     H_    0.516297 0.121396 0.288676 0.172759
N1    N     N_R   0.035415 0.513324 0.385316 -0.230337
N2    N     N_R   0.966556 0.509061 0.383185 -0.236188
N3    N     N_R   0.963443 0.478120 0.624411 -0.235794
N4    N     N_R   0.032211 0.482004 0.626345 -0.216145
N5    N     N_R   0.500660 0.501210 0.147910 -0.181547
N6    N     N_R   0.500680 0.501290 0.852040 -0.177799
O1    O     O_R   0.499990 0.319640 0.618810 -0.582700
O2    O     O_R   0.500000 0.319660 0.381240 -0.586546
O3    O     O_R   0.400140 0.499970 0.618820 -0.602720
O4    O     O_R   0.400150 0.500000 0.381250 -0.589976
O5    O     O_R   0.500000 0.680340 0.618760 -0.615448
O6    O     O_R   0.500010 0.680360 0.381190 -0.499691
O7    O     O_R   0.599850 0.500000 0.618750 -0.603610
O8    O     O_R   0.599860 0.500030 0.381180 -0.535296
C37   C     C_1   0.502539 0.890910 0.235357 0.327298
N7    N     N_1   0.509650 0.853273 0.124670 -0.289774
O9    O     O_3   0.609335 0.695467 0.263115 -0.518186
C38   C     C_3   0.668606 0.773414 0.302802 0.037918
H17   H     H_    0.678297 0.852605 0.227807 0.142057
H18   H     H_    0.714771 0.719536 0.310765 0.150392
C39   C     C_3   0.658983 0.826942 0.446098 -0.755493
H19   H     H_    0.641696 0.752944 0.522383 0.248752
H20   H     H_    0.709159 0.872360 0.481485 0.209510
H21   H     H_    0.621255 0.897962 0.442102 0.229454
O10   O     O_3   0.715071 0.743150 0.814792 -0.582220
C40   C     C_3   0.753928 0.844549 0.875363 0.085589
H22   H     H_    0.796256 0.810543 0.939765 0.151001
H23   H     H_    0.721060 0.901302 0.940059 0.139786
C41   C     C_3   0.786822 0.928320 0.760363 -0.781174
H24   H     H_    0.745854 0.969733 0.698897 0.240586
H25   H     H_    0.820891 0.004167 0.806623 0.206070
H26   H     H_    0.818295 0.874417 0.690415 0.257070
C42   C     C_1   0.154900 0.564769 0.759864 0.248588
N8    N     N_1   0.130424 0.591840 0.863926 -0.260948

loop_
_geom_bond_atom_site_label_1
_geom_bond_atom_site_label_2
_ccdc_geom_bond_type
C8    C9    A    
C42   N8    T    
C16   C21   A    
C19   C20   A    
N1    N2    A    
C2    C12   S    
C1    O2    A    
C13   H3    S    
C7    C8    A    
C31   O7    A    
C26   C27   A    
Cu1   Cu2   S    
C24   H7    S    
C23   O6    A    
C34   C35   A    
C27   N6    A    
C38   C39   S    
C5    C6    A    
C12   O4    A    
C15   C16   A    
C2    C32   A    
C18   C19   A    
C32   H1    S    
C29   N5    A    
C16   C17   A    
C30   N6    A    
C6    H13   S    
C9    C10   A    
C8    H14   S    
C14   H4    S    
C22   C28   A    
C13   C14   A    
C11   H2    S    
C40   C41   S    
C35   H10   S    
Cu1   O3    S    
C33   C34   A    
Cu2   O4    S    
C31   O8    A    
C4    C34   S    
C7    C31   S    
Cu2   O6    S    
C30   H9    S    
C24   C25   A    
C40   H23   S    
C12   O3    A    
C38   H17   S    
C25   C26   A    
Cu2   N5    S    
Cu1   O5    S    
C35   C36   A    
C39   H19   S    
C29   C30   A    
C3    N2    A    
C41   H24   S    
C17   C18   A    
C1    C18   S    
C39   H20   S    
C3    N3    A    
C19   H16   S    
C38   H18   S    
C41   H25   S    
Cu2   O8    S    
C21   C23   S    
C29   H6    S    
C22   C24   A    
C5    H12   S    
C9    H15   S    
C22   O9    S    
C28   N5    A    
C2    C36   A    
C11   C17   A    
C25   O10   S    
C40   H22   S    
C1    O1    A    
Cu1   O1    S    
C6    C7    A    
C32   C33   A    
C23   O5    A    
C33   C42   S    
C15   H5    S    
C5    C10   A    
C4    N1    A    
C3    C10   S    
C11   C13   A    
N3    N4    A    
Cu1   O7    S    
C37   N7    T    
C20   C37   S    
C39   H21   S    
Cu1   N6    S    
C26   H8    S    
O10   C40   S    
O9    C38   S    
C41   H26   S    
C20   C21   A    
C4    N4    A    
C27   C28   A    
C14   C15   A    
C36   H11   S    
Cu2   O2    S    
