data_mof_unit_46224.cif
_audit_creation_date              2012-12-10T20:25:43-0500
_audit_creation_method            fapswitch 2.2
_symmetry_space_group_name_H-M    P1
_symmetry_Int_Tables_number       1
_space_group_crystal_system       triclinic
_cell_length_a                    8.593197
_cell_length_b                    10.677052
_cell_length_c                    9.90052
_cell_angle_alpha                 89.690349
_cell_angle_beta                  98.350053
_cell_angle_gamma                 91.337255
_cell_volume                      898.496795176

loop_
_atom_site_label
_atom_site_type_symbol
_atom_type_description
_atom_site_fract_x
_atom_site_fract_y
_atom_site_fract_z
_atom_type_partial_charge
C1    C     C_R   0.501861 0.260227 0.500574 0.872795
C2    C     C_R   0.397541 0.423439 0.916705 0.163354
C3    C     C_3   0.221950 0.431613 0.893706 -0.056716
C4    C     C_R   0.201345 0.500938 0.464214 0.972593
C5    C     C_3   0.224050 0.429499 0.047117 -0.495415
C6    C     C_R   0.503508 0.739619 0.500226 0.893018
C7    C     C_R   0.798466 0.502781 0.535303 0.961599
C8    C     C_2   0.036113 0.500263 0.444343 -0.384877
C9    C     C_2   0.963135 0.510706 0.552954 -0.382315
C10   C     C_R   0.462945 0.061998 0.610398 0.048220
C11   C     C_R   0.515946 0.128561 0.504437 -0.075573
C12   C     C_R   0.589333 0.937280 0.406115 -0.228878
C13   C     C_R   0.588771 0.067020 0.406473 -0.219877
C14   C     C_3   0.880903 0.608932 0.921780 -0.815593
C15   C     C_3   0.138446 0.316924 0.821911 -0.883819
C16   C     C_3   0.023172 0.869110 0.587423 -0.810769
C17   C     C_3   0.435630 0.901985 0.905121 -0.827825
C18   C     C_R   0.517126 0.871452 0.503776 -0.135524
C19   C     C_R   0.463096 0.934124 0.609900 0.067618
C20   C     C_3   0.306025 0.924395 0.660679 0.429482
C21   C     C_3   0.307828 0.067492 0.661780 -0.572735
C22   C     C_R   0.397930 0.423806 0.059489 0.166388
C23   C     C_R   0.607140 0.569340 0.085416 -0.206172
C24   C     C_R   0.608559 0.568942 0.941488 0.256111
H1    H     H_    0.974923 0.488094 0.340888 0.175372
H2    H     H_    0.690816 0.627637 0.150701 0.153953
H3    H     H_    0.706461 0.739195 0.901577 0.211874
H4    H     H_    0.920989 0.626948 0.031898 0.215981
H5    H     H_    0.957259 0.664411 0.861436 0.223330
H6    H     H_    0.892916 0.508066 0.900102 0.265509
H7    H     H_    0.009198 0.326804 0.813685 0.242611
H8    H     H_    0.169500 0.308879 0.717559 0.265028
H9    H     H_    0.170982 0.229822 0.879884 0.236775
H10   H     H_    0.191316 0.897243 0.459573 0.215439
H11   H     H_    0.991535 0.963675 0.619308 0.244892
H12   H     H_    0.183953 0.522673 0.847434 0.176695
H13   H     H_    0.006859 0.799205 0.667601 0.239892
H14   H     H_    0.941362 0.841445 0.494412 0.239647
H15   H     H_    0.206400 0.853058 0.829097 0.228752
H16   H     H_    0.447812 0.827814 0.984740 0.238548
H17   H     H_    0.403403 0.989744 0.952787 0.231518
H18   H     H_    0.551065 0.915916 0.869209 0.242412
H19   H     H_    0.184675 0.518590 0.087244 0.198553
H20   H     H_    0.171958 0.343585 0.088175 0.206263
H21   H     H_    0.023796 0.525886 0.654967 0.182055
H22   H     H_    0.638974 0.118488 0.327963 0.165517
H23   H     H_    0.639869 0.888973 0.327445 0.161512
H24   H     H_    0.215833 0.110498 0.586165 0.182971
H25   H     H_    0.321831 0.109805 0.764557 0.211655
N1    N     N_R   0.498950 0.499140 0.142680 -0.116690
N2    N     N_R   0.498950 0.499180 0.857030 -0.137357
N3    N     N_2   0.719449 0.645313 0.884261 -0.245734
N4    N     N_2   0.183759 0.869172 0.558445 -0.307182
N5    N     N_2   0.313460 0.864019 0.794891 -0.267186
O1    O     O_R   0.500020 0.316790 0.614690 -0.614428
O2    O     O_R   0.500000 0.316760 0.385350 -0.622493
O3    O     O_R   0.271760 0.500010 0.587850 -0.614145
O4    O     O_R   0.271740 0.499970 0.358500 -0.629025
O5    O     O_R   0.500000 0.683240 0.614650 -0.588408
O6    O     O_R   0.499980 0.683210 0.385310 -0.629103
O7    O     O_R   0.728260 0.500030 0.641500 -0.600430
O8    O     O_R   0.728240 0.499990 0.412150 -0.620866
Zn1   Zn    Zn3+2 0.500010 0.500020 0.653130 0.968162
Zn2   Zn    Zn3+2 0.499990 0.499980 0.346870 0.933046

loop_
_geom_bond_atom_site_label_1
_geom_bond_atom_site_label_2
_ccdc_geom_bond_type
C4    O3    A    
C24   N3    S    
C23   C24   A    
O2    Zn2   S    
C7    O8    A    
C9    H21   S    
N1    Zn2   S    
C10   C19   A    
O5    Zn1   S    
C19   C20   S    
C1    C11   S    
C22   N1    A    
C16   H13   S    
C4    C8    S    
C21   H24   S    
C14   H4    S    
C24   N2    A    
C21   H25   S    
C2    C3    S    
C5    H19   S    
N2    Zn1   S    
C15   H8    S    
C16   H11   S    
C2    C22   A    
H3    N3    S    
C15   H7    S    
C8    H1    S    
C11   C13   A    
C20   N4    S    
C3    H12   S    
C14   H6    S    
C12   H23   S    
C6    O5    A    
C1    O2    A    
C15   H9    S    
O6    Zn2   S    
O3    Zn1   S    
C7    C9    S    
C10   C21   S    
C1    O1    A    
C13   H22   S    
C6    C18   S    
C17   H17   S    
H15   N5    S    
C10   C11   A    
C14   H5    S    
C4    O4    A    
C6    O6    A    
C3    C15   S    
C20   C21   S    
H10   N4    S    
C20   N5    S    
C18   C19   A    
C2    N2    A    
C23   H2    S    
C12   C18   A    
O7    Zn1   S    
C17   H18   S    
C7    O7    A    
C23   N1    A    
O8    Zn2   S    
O4    Zn2   S    
C12   C13   A    
C16   N4    S    
C17   N5    S    
C5    H20   S    
C14   N3    S    
C5    C22   S    
C16   H14   S    
C8    C9    D    
C3    C5    S    
C17   H16   S    
O1    Zn1   S    
