data_mof_unit_41563.cif
_audit_creation_date              2012-12-10T16:48:42-0500
_audit_creation_method            fapswitch 2.2
_symmetry_space_group_name_H-M    P1
_symmetry_Int_Tables_number       1
_space_group_crystal_system       triclinic
_cell_length_a                    7.823916
_cell_length_b                    8.571584
_cell_length_c                    10.722816
_cell_angle_alpha                 89.257309
_cell_angle_beta                  98.693165
_cell_angle_gamma                 92.973904
_cell_volume                      709.879959377

loop_
_atom_site_label
_atom_site_type_symbol
_atom_type_description
_atom_site_fract_x
_atom_site_fract_y
_atom_site_fract_z
_atom_type_partial_charge
C1    C     C_R   0.544174 0.794477 0.496681 0.938591
C2    C     C_2   0.431915 0.042707 0.500489 -0.382097
C3    C     C_3   0.934384 0.337860 0.281796 0.184239
C4    C     C_3   0.818871 0.190512 0.246863 -0.360278
C5    C     C_3   0.768662 0.174751 0.104299 -0.984999
C6    C     C_3   0.096263 0.763145 0.641897 0.172659
C7    C     C_3   0.016028 0.863292 0.732490 -0.412468
C8    C     C_3   0.107999 0.024854 0.748768 -0.921995
C9    C     C_R   0.455731 0.205693 0.502173 0.950966
C10   C     C_R   0.572943 0.500430 0.735892 0.926751
C11   C     C_R   0.429013 0.512335 0.264202 0.911246
C12   C     C_2   0.617060 0.523007 0.870322 -0.377862
C13   C     C_2   0.391663 0.538391 0.129983 -0.363132
C14   C     C_2   0.495158 0.572426 0.932834 -0.158955
C15   C     C_2   0.523817 0.573485 0.067741 -0.161306
C16   C     C_2   0.568316 0.957750 0.495732 -0.398222
H1    H     H_    0.656510 0.587263 0.115389 0.174363
H2    H     H_    0.698979 0.194187 0.289566 0.250189
H3    H     H_    0.688394 0.065038 0.082567 0.273982
H4    H     H_    0.885993 0.170844 0.057814 0.262795
H5    H     H_    0.691949 0.274484 0.065972 0.279430
H6    H     H_    0.092100 0.826820 0.550600 0.133268
H7    H     H_    0.230876 0.742278 0.685478 0.167635
H8    H     H_    0.877018 0.876986 0.695720 0.238434
H9    H     H_    0.024884 0.803995 0.825923 0.221711
H10   H     H_    0.247792 0.014464 0.784694 0.259300
H11   H     H_    0.049659 0.093091 0.817443 0.269014
H12   H     H_    0.366198 0.597067 0.885622 0.190090
H13   H     H_    0.093704 0.088780 0.657279 0.287332
H14   H     H_    0.259057 0.525287 0.081836 0.140568
H15   H     H_    0.745475 0.497859 0.918104 0.152003
H16   H     H_    0.698375 0.007556 0.492540 0.185789
H17   H     H_    0.302127 0.993399 0.502328 0.170788
H18   H     H_    0.046759 0.335268 0.229941 0.136695
H19   H     H_    0.866883 0.445080 0.248706 0.116195
H20   H     H_    0.888616 0.085915 0.284066 0.218804
N1    N     N_2   0.940600 0.458860 0.467170 0.175062
N2    N     N_2   0.059400 0.541140 0.532830 0.157025
O1    O     O_R   0.391630 0.738350 0.508060 -0.661303
O2    O     O_3   0.998924 0.621576 0.622689 -0.550837
O3    O     O_R   0.608370 0.261650 0.491940 -0.619014
O4    O     O_R   0.674540 0.711990 0.487010 -0.607712
O5    O     O_R   0.325460 0.288010 0.512990 -0.574096
O6    O     O_R   0.411370 0.508250 0.688780 -0.632666
O7    O     O_R   0.588630 0.491750 0.311220 -0.642696
O8    O     O_R   0.694270 0.481880 0.667740 -0.561303
O9    O     O_R   0.305730 0.518120 0.332260 -0.623599
O10   O     O_3   0.999892 0.336607 0.411827 -0.553866
Zn1   Zn    Zn3+2 0.311100 0.517600 0.514050 0.990023
Zn2   Zn    Zn3+2 0.688900 0.482400 0.485950 1.013458

loop_
_geom_bond_atom_site_label_1
_geom_bond_atom_site_label_2
_ccdc_geom_bond_type
O6    Zn1   S    
C10   O8    A    
C1    O4    A    
C4    H20   S    
C6    C7    S    
C5    H3    S    
C16   H16   S    
C2    C16   D    
O8    Zn2   S    
C11   O9    A    
C7    H9    S    
C3    H19   S    
C4    H2    S    
C5    H5    S    
C7    C8    S    
O9    Zn1   S    
N2    Zn1   S    
N1    O10   S    
N2    O2    S    
N1    Zn2   S    
C11   C13   S    
N1    N2    D    
C10   C12   S    
O7    Zn2   S    
O4    Zn2   S    
C8    H13   S    
C2    H17   S    
O1    Zn1   S    
C12   C14   D    
C13   C15   D    
C12   H15   S    
C6    O2    S    
C11   O7    A    
C9    O5    A    
C1    O1    A    
C10   O6    A    
C3    C4    S    
C6    H6    S    
C3    O10   S    
C8    H10   S    
C13   H14   S    
C15   H1    S    
C1    C16   S    
C5    H4    S    
O3    Zn2   S    
C14   C15   S    
C8    H11   S    
C3    H18   S    
C14   H12   S    
C6    H7    S    
C2    C9    S    
C9    O3    A    
O5    Zn1   S    
C7    H8    S    
C4    C5    S    
