data_mof_unit_45712.cif
_audit_creation_date              2012-12-11T16:51:08-0500
_audit_creation_method            fapswitch 2.2
_symmetry_space_group_name_H-M    P1
_symmetry_Int_Tables_number       1
_space_group_crystal_system       triclinic
_cell_length_a                    6.919844
_cell_length_b                    28.863841
_cell_length_c                    32.104745
_cell_angle_alpha                 100.77661
_cell_angle_beta                  89.72997
_cell_angle_gamma                 90.479828
_cell_volume                      6299.04171271

loop_
_atom_site_label
_atom_site_type_symbol
_atom_type_description
_atom_site_fract_x
_atom_site_fract_y
_atom_site_fract_z
_atom_type_partial_charge
O1    O     O_R   0.494350 0.453170 0.452520 -0.539115
O2    O     O_R   0.820980 0.455850 0.538220 -0.541591
O3    O     O_R   0.994300 0.546830 0.547480 -0.538867
C1    C     C_R   0.651512 0.445647 0.551775 0.708157
O4    O     O_R   0.823860 0.447590 0.452270 -0.542559
O5    O     O_R   0.997200 0.538510 0.460920 -0.537668
C2    C     C_R   0.654780 0.434698 0.436591 0.693089
O6    O     O_R   0.491440 0.461490 0.539080 -0.538262
O7    O     O_3   0.661790 0.529840 0.502940 -0.366449
V1    V     V_3+5 0.935470 0.494460 0.499450 1.404715
O8    O     O_R   0.327090 0.544150 0.461780 -0.540718
C3    C     C_R   0.158838 0.554228 0.448239 0.707859
O9    O     O_R   0.324210 0.552410 0.547730 -0.542751
C4    C     C_R   0.155360 0.565245 0.563444 0.693919
V2    V     V_3+5 0.435840 0.505540 0.500550 1.405904
O10   O     O_3   0.159650 0.470160 0.497060 -0.368173
C5    C     C_R   0.222244 0.885377 0.877606 -0.211103
H1    H     H_    0.350016 0.906187 0.887895 0.188483
C6    C     C_R   0.236548 0.849619 0.841762 -0.146321
H2    H     H_    0.374518 0.843966 0.825628 0.132671
C7    C     C_R   0.073985 0.822515 0.826188 0.026860
C8    C     C_R   0.897198 0.831633 0.847793 -0.206293
H3    H     H_    0.769736 0.811115 0.836571 0.111668
C9    C     C_R   0.882409 0.866528 0.884541 0.426555
C10   C     C_R   0.045669 0.894843 0.899394 -0.165933
C11   C     C_R   0.938429 0.778430 0.757237 -0.145907
H4    H     H_    0.812495 0.800862 0.761494 0.114469
C12   C     C_R   0.950934 0.743324 0.720816 -0.152234
H5    H     H_    0.834220 0.739843 0.698080 0.109769
C13   C     C_R   0.113137 0.713753 0.713479 0.082984
C14   C     C_R   0.263174 0.720594 0.743539 -0.148532
H6    H     H_    0.388879 0.698101 0.739415 0.111579
C15   C     C_R   0.250923 0.755852 0.779919 -0.150415
H7    H     H_    0.367645 0.759593 0.802687 0.106433
C16   C     C_R   0.088048 0.785139 0.787319 0.107534
C17   C     C_R   0.302116 0.664196 0.653993 -0.135871
H8    H     H_    0.433190 0.683133 0.665200 0.099853
C18   C     C_R   0.312365 0.628464 0.617911 -0.156981
H9    H     H_    0.451381 0.620564 0.602726 0.121141
C19   C     C_R   0.145271 0.603545 0.601554 -0.055071
C20   C     C_R   0.967905 0.615251 0.622328 -0.153285
H10   H     H_    0.836332 0.596648 0.610916 0.121754
C21   C     C_R   0.957874 0.650742 0.658498 -0.137596
H11   H     H_    0.819282 0.657980 0.674034 0.102076
C22   C     C_R   0.124686 0.675814 0.674853 0.095630
C23   C     C_R   0.266394 0.674881 0.295198 0.575852
N1    N     N_R   0.122371 0.676303 0.325078 -0.554754
C24   C     C_R   0.967981 0.706093 0.325428 0.581879
C25   C     C_R   0.952811 0.735099 0.294836 -0.025431
C26   C     C_R   0.100283 0.734169 0.264354 -0.021340
C27   C     C_R   0.259168 0.704083 0.264615 -0.030750
C28   C     C_R   0.794155 0.765086 0.294119 -0.145198
C29   C     C_R   0.782875 0.793907 0.263736 -0.150492
C30   C     C_R   0.929944 0.793487 0.233280 -0.031041
C31   C     C_R   0.088854 0.763406 0.233541 -0.021302
C32   C     C_R   0.236449 0.762522 0.203090 -0.025021
C33   C     C_R   0.395004 0.732499 0.203781 -0.145316
C34   C     C_R   0.406175 0.703640 0.234139 -0.150108
C35   C     C_R   0.922878 0.822754 0.202752 0.576482
N2    N     N_R   0.067264 0.821465 0.172977 -0.554967
C36   C     C_R   0.221611 0.791664 0.172597 0.580263
O11   O     O_2   0.415078 0.644811 0.294557 -0.527608
O12   O     O_2   0.830202 0.708170 0.355586 -0.530258
H12   H     H_    0.677769 0.766329 0.316971 0.168587
H13   H     H_    0.658251 0.816453 0.264180 0.170584
O13   O     O_2   0.774062 0.852781 0.203362 -0.527240
O14   O     O_2   0.359738 0.789750 0.142531 -0.531329
H14   H     H_    0.511436 0.731275 0.180942 0.168470
H15   H     H_    0.530773 0.681085 0.233689 0.170717
C37   C     C_R   0.212205 0.883270 0.138048 -0.090575
H16   H     H_    0.338214 0.884522 0.158114 0.156910
C38   C     C_R   0.204425 0.913022 0.108320 -0.207755
H17   H     H_    0.325537 0.936439 0.106020 0.134119
C39   C     C_R   0.040743 0.913260 0.082533 -0.056355
C40   C     C_R   0.886078 0.882510 0.086794 -0.214921
H18   H     H_    0.758585 0.881572 0.067196 0.131973
C41   C     C_R   0.895643 0.852051 0.115977 -0.086727
H19   H     H_    0.776061 0.828183 0.118187 0.162922
C42   C     C_R   0.058349 0.852296 0.142144 0.355462
C43   C     C_R   0.977800 0.615141 0.360888 -0.089142
H20   H     H_    0.851175 0.613752 0.340987 0.156395
C44   C     C_R   0.985764 0.585968 0.391096 -0.205331
H21   H     H_    0.864206 0.562847 0.393890 0.133461
C45   C     C_R   0.150045 0.585943 0.416757 -0.058745
C46   C     C_R   0.305444 0.616187 0.411730 -0.207041
H22   H     H_    0.433709 0.617167 0.431086 0.139222
C47   C     C_R   0.295631 0.646124 0.382101 -0.086152
H23   H     H_    0.415647 0.669709 0.379404 0.164514
C48   C     C_R   0.132048 0.645779 0.356170 0.354699
C49   C     C_R   0.529442 0.222901 0.837256 0.610137
N3    N     N_R   0.577081 0.176198 0.825710 -0.538851
C50   C     C_R   0.629254 0.157636 0.784747 0.603985
C51   C     C_R   0.634322 0.186201 0.753588 -0.094725
C52   C     C_R   0.586418 0.234162 0.764932 -0.017917
C53   C     C_R   0.533690 0.252805 0.807172 -0.017799
C54   C     C_R   0.684340 0.167727 0.711395 -0.221521
C55   C     C_R   0.682947 0.195917 0.680256 0.435932
C56   C     C_R   0.644313 0.244930 0.691716 -0.133683
C57   C     C_R   0.592264 0.263610 0.734118 -0.066802
C58   C     C_R   0.545835 0.311763 0.745897 -0.002544
C59   C     C_R   0.492406 0.329868 0.788087 -0.140507
C60   C     C_R   0.486281 0.300774 0.818311 -0.143632
C61   C     C_R   0.655589 0.275950 0.662322 0.584746
N4    N     N_R   0.609589 0.322721 0.674371 -0.560522
C62   C     C_R   0.554542 0.340792 0.715215 0.571695
O15   O     O_2   0.477340 0.240362 0.877643 -0.530760
O16   O     O_2   0.676650 0.111678 0.774171 -0.525917
H24   H     H_    0.721565 0.130859 0.702020 0.178252
O17   O     O_2   0.712404 0.259696 0.622050 -0.508191
O18   O     O_2   0.510727 0.386928 0.726305 -0.523085
H25   H     H_    0.455519 0.366688 0.797968 0.169223
H26   H     H_    0.444778 0.316073 0.850482 0.168892
C63   C     C_R   0.798695 0.364065 0.626601 -0.083729
H27   H     H_    0.930163 0.349388 0.636684 0.120669
C64   C     C_R   0.809001 0.393808 0.596785 -0.199405
H28   H     H_    0.949354 0.401340 0.584459 0.129481
C65   C     C_R   0.640386 0.413554 0.583163 -0.059174
C66   C     C_R   0.461329 0.402666 0.600252 -0.196670
H29   H     H_    0.328550 0.417197 0.590665 0.129528
C67   C     C_R   0.451430 0.372984 0.630139 -0.092460
H30   H     H_    0.312283 0.365048 0.642803 0.118472
C68   C     C_R   0.619956 0.353441 0.643566 0.375495
C69   C     C_R   0.423056 0.111756 0.854715 -0.200005
H31   H     H_    0.315061 0.108509 0.830018 0.149402
C70   C     C_R   0.412149 0.082269 0.884583 -0.208785
H32   H     H_    0.296381 0.056431 0.882278 0.139234
C71   C     C_R   0.550185 0.085740 0.916857 -0.092624
C72   C     C_R   0.698490 0.119632 0.919040 -0.319311
H33   H     H_    0.799965 0.123023 0.944950 0.132657
C73   C     C_R   0.711341 0.149813 0.888879 0.467179
C74   C     C_R   0.570046 0.145888 0.856860 0.308628
C75   C     C_R   0.727190 0.122768 0.116509 -0.157505
H34   H     H_    0.859981 0.109798 0.100700 0.121062
C76   C     C_R   0.738649 0.158582 0.152450 -0.139915
H35   H     H_    0.879638 0.172466 0.162935 0.100104
C77   C     C_R   0.570482 0.176682 0.174180 0.094964
C78   C     C_R   0.390288 0.158185 0.158690 -0.137645
H36   H     H_    0.257890 0.170728 0.174900 0.099649
C79   C     C_R   0.378732 0.122460 0.122615 -0.158385
H37   H     H_    0.237656 0.108854 0.111872 0.118190
C80   C     C_R   0.547133 0.104123 0.101127 -0.054205
C81   C     C_R   0.445423 0.250665 0.220774 -0.148130
H38   H     H_    0.329550 0.252123 0.198526 0.112320
C82   C     C_R   0.457583 0.286075 0.257043 -0.147820
H39   H     H_    0.350666 0.313751 0.261636 0.111823
C83   C     C_R   0.607893 0.286326 0.286481 0.080269
C84   C     C_R   0.745771 0.250156 0.278571 -0.147630
H40   H     H_    0.861612 0.248685 0.300824 0.113045
C85   C     C_R   0.733613 0.214749 0.242304 -0.148064
H41   H     H_    0.840498 0.187066 0.237720 0.112014
C86   C     C_R   0.583272 0.214487 0.212872 0.080158
C87   C     C_R   0.800634 0.342517 0.340801 -0.136282
H42   H     H_    0.933084 0.330055 0.324569 0.099439
C88   C     C_R   0.812076 0.378062 0.377013 -0.156465
H43   H     H_    0.953118 0.391627 0.387823 0.117846
C89   C     C_R   0.643623 0.396255 0.398571 -0.055199
C90   C     C_R   0.463603 0.377715 0.383058 -0.154612
H44   H     H_    0.330761 0.390615 0.398884 0.121458
C91   C     C_R   0.452257 0.342078 0.346977 -0.138596
H45   H     H_    0.311301 0.328240 0.336417 0.100310
C92   C     C_R   0.620502 0.324063 0.325229 0.094574
O19   O     O_R   0.699170 0.038480 0.960880 -0.533655
O20   O     O_R   0.366800 0.052460 0.047690 -0.543157
O21   O     O_R   0.193520 0.961530 0.039110 -0.539218
C93   C     C_R   0.535908 0.065459 0.063290 0.687640
O22   O     O_R   0.369630 0.044100 0.961740 -0.543885
O23   O     O_R   0.196370 0.953120 0.952550 -0.540785
C94   C     C_R   0.539045 0.054121 0.948245 0.732741
O24   O     O_R   0.696320 0.046890 0.047450 -0.540314
O25   O     O_3   0.528890 0.970170 0.997080 -0.368479
V3    V     V_3+5 0.255190 0.005530 0.000540 1.397211
O26   O     O_R   0.866460 0.947530 0.952310 -0.519173
C95   C     C_R   0.035238 0.934191 0.936900 0.715931
O27   O     O_R   0.863630 0.955880 0.038270 -0.545325
C96   C     C_R   0.031945 0.945567 0.051583 0.694454
V4    V     V_3+5 0.754830 0.994440 0.999470 1.419519
O28   O     O_3   0.031000 0.029830 0.002920 -0.369609
O29   O     O_3   0.726200 0.174910 0.638941 -0.551072
C97   C     C_3   0.552585 0.162387 0.616165 0.150886
H46   H     H_    0.581892 0.164104 0.582430 0.168613
H47   H     H_    0.431625 0.187368 0.626490 0.113137
C98   C     C_3   0.490206 0.111902 0.618697 -0.374859
H48   H     H_    0.612061 0.087462 0.608610 0.215297
H49   H     H_    0.450632 0.109822 0.651853 0.200997
C99   C     C_3   0.315956 0.096303 0.590420 -0.781622
H50   H     H_    0.191491 0.119915 0.600412 0.250253
H51   H     H_    0.273726 0.059766 0.593071 0.237929
H52   H     H_    0.351955 0.096953 0.556778 0.230847
O30   O     O_3   0.847169 0.186136 0.891287 -0.560698
C100  C     C_3   0.031999 0.174236 0.904587 0.086397
H53   H     H_    0.140215 0.186092 0.883105 0.173288
H54   H     H_    0.055053 0.135612 0.901754 0.103795
C101  C     C_3   0.071523 0.200875 0.949692 -0.284113
H55   H     H_    0.076256 0.239377 0.949678 0.221697
H56   H     H_    0.953283 0.194194 0.971355 0.186054
C102  C     C_3   0.262765 0.186095 0.966493 -0.796724
H57   H     H_    0.258501 0.148003 0.968121 0.225903
H58   H     H_    0.288471 0.206595 0.998876 0.228545
H59   H     H_    0.383907 0.193034 0.945666 0.266132
O31   O     O_3   0.703750 0.874325 0.903960 -0.579082
C103  C     C_3   0.689718 0.849867 0.938227 0.103916
H60   H     H_    0.603685 0.872059 0.963590 0.155122
H61   H     H_    0.831984 0.844104 0.952724 0.081347
C104  C     C_3   0.583557 0.802781 0.924432 -0.354227
H62   H     H_    0.443694 0.808885 0.909551 0.212146
H63   H     H_    0.672200 0.779030 0.900717 0.191781
C105  C     C_3   0.544560 0.778724 0.962137 -0.800162
H64   H     H_    0.682664 0.771802 0.977302 0.235079
H65   H     H_    0.468812 0.744598 0.951126 0.238449
H66   H     H_    0.451747 0.801275 0.985892 0.230276

loop_
_geom_bond_atom_site_label_1
_geom_bond_atom_site_label_2
_ccdc_geom_bond_type
C35   N2    A    
C47   H23   S    
N2    C42   S    
C19   C20   A    
C90   H44   S    
N1    C48   S    
C103  H60   S    
C13   C22   S    
C60   H26   S    
C84   H40   S    
C1    O6    A    
C72   H33   S    
O29   C97   S    
C103  H61   S    
C49   C53   A    
O25   V4    S    
C29   C30   A    
C28   C29   A    
C78   C79   A    
C58   C62   A    
C51   C52   A    
C23   O11   S    
C12   H5    S    
O20   C93   A    
C62   O18   S    
C83   C84   A    
C85   C86   A    
C35   O13   S    
O5    C3    A    
C18   H9    S    
C43   H20   S    
N3    C74   S    
C69   C70   A    
O19   V4    S    
O25   V3    S    
C56   C61   A    
C102  H57   S    
C32   C33   A    
C3    C45   S    
O21   C96   A    
C20   H10   S    
C43   C48   A    
C66   H29   S    
C50   C51   A    
C100  C101  S    
C5    C6    A    
O27   C96   A    
O8    V2    S    
C2    C89   S    
N1    C24   A    
O31   C103  S    
C101  H56   S    
C105  H66   S    
C14   C15   A    
C37   H16   S    
O1    V2    S    
O9    C4    A    
O20   V3    S    
O7    V1    S    
C88   C89   A    
C87   C92   A    
C101  H55   S    
C73   O30   S    
O23   C95   A    
C97   C98   S    
C69   C74   A    
C25   C28   A    
C41   C42   A    
C54   H24   S    
C67   H30   S    
O22   V3    S    
C90   C91   A    
O1    C2    A    
C7    C8    A    
C97   H47   S    
O22   C94   A    
C20   C21   A    
C52   C53   A    
C102  H59   S    
C8    H3    S    
N4    C62   A    
C67   C68   A    
C55   C56   A    
C66   C67   A    
C30   C35   A    
C46   C47   A    
C93   O24   A    
C83   C92   S    
C84   C85   A    
C39   C40   A    
C63   C68   A    
O26   V4    S    
C105  H64   S    
C59   C60   A    
C69   H31   S    
C45   C46   A    
C49   O15   S    
C82   C83   A    
C28   H12   S    
N3    C50   A    
O4    C2    A    
C75   H34   S    
C24   O12   S    
C76   C77   A    
C64   C65   A    
C41   H19   S    
C43   C44   A    
C23   C27   A    
C44   H21   S    
N2    C36   A    
C98   C99   S    
C89   C90   A    
C81   C86   A    
O2    C1    A    
C40   H18   S    
C100  H53   S    
C21   C22   A    
C36   O14   S    
C50   O16   S    
C91   H45   S    
C104  C105  S    
C79   H37   S    
C101  C102  S    
C54   C55   A    
C31   C32   A    
C91   C92   A    
C5    H1    S    
C11   H4    S    
C17   C22   A    
C26   C27   A    
C27   C34   A    
C23   N1    A    
C9    C10   A    
C40   C41   A    
C88   H43   S    
C46   H22   S    
O3    C4    A    
C55   O29   S    
O19   C94   A    
C38   C39   A    
V4    O28   S    
C104  H63   S    
C25   C26   A    
C51   C54   A    
C44   C45   A    
O9    V2    S    
C21   H11   S    
C70   H32   S    
C103  C104  S    
C8    C9    A    
C1    C65   S    
C59   H25   S    
C33   H14   S    
C49   N3    A    
C71   C72   A    
O2    V1    S    
C77   C86   S    
C29   H13   S    
O26   C95   A    
C105  H65   S    
C63   H27   S    
C71   C94   S    
C75   C80   A    
C30   C31   A    
C17   H8    S    
C100  H54   S    
C98   H49   S    
C6    C7    A    
C37   C42   A    
C32   C36   A    
C11   C12   A    
C14   H6    S    
V3    O28   S    
C87   C88   A    
C38   H17   S    
C99   H52   S    
C72   C73   A    
O5    V1    S    
O23   V3    S    
O8    C3    A    
C53   C60   A    
C34   H15   S    
C76   H35   S    
C7    C16   S    
O6    V2    S    
C78   H36   S    
C80   C93   S    
C26   C31   A    
C57   C58   A    
C61   O17   S    
C82   H39   S    
C5    C10   A    
C6    H2    S    
C12   C13   A    
C73   C74   A    
O7    V2    S    
C39   C96   S    
O3    V1    S    
V1    O10   S    
C85   H41   S    
C18   C19   A    
C79   C80   A    
C99   H50   S    
C13   C14   A    
C52   C57   A    
C24   C25   A    
V2    O10   S    
C17   C18   A    
C58   C59   A    
C15   C16   A    
O24   V4    S    
C15   H7    S    
C81   C82   A    
O30   C100  S    
O27   V4    S    
C102  H58   S    
C99   H51   S    
C4    C19   S    
C97   H46   S    
C10   C95   S    
C11   C16   A    
O4    V1    S    
N4    C68   S    
C104  H62   S    
C9    O31   S    
C75   C76   A    
C56   C57   A    
C61   N4    A    
C70   C71   A    
C47   C48   A    
C81   H38   S    
C77   C78   A    
O21   V3    S    
C37   C38   A    
C87   H42   S    
C64   H28   S    
C33   C34   A    
C65   C66   A    
C98   H48   S    
C63   C64   A    
