data_mof_unit_6652.cif
_audit_creation_date              2012-12-10T20:57:48-0500
_audit_creation_method            fapswitch 2.2
_symmetry_space_group_name_H-M    P1
_symmetry_Int_Tables_number       1
_space_group_crystal_system       triclinic
_cell_length_a                    18.212191
_cell_length_b                    18.289121
_cell_length_c                    18.466843
_cell_angle_alpha                 120.149809
_cell_angle_beta                  89.987087
_cell_angle_gamma                 119.86302
_cell_volume                      4349.05281381

loop_
_atom_site_label
_atom_site_type_symbol
_atom_type_description
_atom_site_fract_x
_atom_site_fract_y
_atom_site_fract_z
_atom_type_partial_charge
C1    C     C_R   0.360402 0.220107 0.361239 0.516993
C2    C     C_3   0.748423 0.943490 0.647660 -0.065694
C3    C     C_2   0.322737 0.852208 0.048794 0.255284
C4    C     C_2   0.154512 0.785617 0.786125 0.576000
C5    C     C_2   0.987507 0.766611 0.558213 0.224816
C6    C     C_2   0.183931 0.307396 0.232648 0.247212
C7    C     C_2   0.505078 0.120526 0.763102 0.583827
C8    C     C_2   0.384844 0.540845 0.947880 0.631580
C9    C     C_2   0.067449 0.121920 0.775360 0.613743
C10   C     C_2   0.086437 0.240871 0.702117 0.606282
C11   C     C_2   0.270802 0.703275 0.325533 0.289303
C12   C     C_3   0.698174 0.897575 0.698584 0.027562
C13   C     C_R   0.640770 0.780975 0.639989 0.501095
C14   C     C_3   0.798730 0.102524 0.803800 0.013946
C15   C     C_3   0.822180 0.059147 0.846634 -0.242445
C16   C     C_3   0.814643 0.062992 0.713034 -0.222845
C17   C     C_3   0.645088 0.382954 0.208958 -0.054805
C18   C     C_3   0.710297 0.379573 0.154767 -0.115522
C19   C     C_3   0.719825 0.576405 0.284023 -0.190061
C20   C     C_3   0.786490 0.519415 0.346414 -0.120665
C21   C     C_3   0.308488 0.604157 0.355924 -0.242063
C22   C     C_3   0.696098 0.493224 0.300381 -0.019603
C23   C     C_3   0.797093 0.493112 0.197808 -0.034641
C24   C     C_3   0.774952 0.573208 0.219944 -0.098561
C25   C     C_R   0.359282 0.500645 0.640583 0.512974
C26   C     C_3   0.848654 0.528044 0.288826 -0.233979
C27   C     C_R   0.407237 0.191243 0.583538 -0.088654
C28   C     C_R   0.386070 0.145629 0.492327 -0.058168
C29   C     C_R   0.298871 0.097054 0.440443 0.046913
C30   C     C_R   0.231989 0.089725 0.479961 -0.101010
C31   C     C_R   0.252644 0.133083 0.570827 -0.081683
C32   C     C_3   0.304706 0.502847 0.300053 -0.040747
C33   C     C_R   0.340689 0.185531 0.623383 0.081475
C34   C     C_R   0.221776 0.943535 0.287627 -0.131539
C35   C     C_R   0.198172 0.892114 0.195607 0.053546
C36   C     C_R   0.231936 0.949241 0.158665 0.024586
C37   C     C_R   0.640238 0.497612 0.359337 0.475775
C38   C     C_R   0.285158 0.056141 0.214977 -0.114676
C39   C     C_R   0.307062 0.107640 0.306938 0.023626
C40   C     C_R   0.276521 0.050354 0.344023 -0.022593
C41   C     C_R   0.255252 0.858143 0.011291 0.046273
C42   C     C_R   0.234091 0.818171 0.920642 -0.134090
C43   C     C_3   0.203725 0.507495 0.201460 -0.043934
C44   C     C_R   0.172973 0.823384 0.880516 0.077580
C45   C     C_R   0.131247 0.867419 0.931489 -0.107426
C46   C     C_R   0.150467 0.906154 0.021158 -0.135963
C47   C     C_R   0.212146 0.902350 0.062109 0.066249
C48   C     C_R   0.918976 0.615908 0.566910 -0.150771
C49   C     C_R   0.642104 0.500453 0.640129 0.501297
C50   C     C_R   0.870924 0.563420 0.603396 -0.098039
C51   C     C_R   0.842267 0.608236 0.673057 0.049467
C52   C     C_R   0.864679 0.707532 0.707717 -0.068465
C53   C     C_R   0.911079 0.759005 0.669986 -0.016431
C54   C     C_3   0.149637 0.403896 0.193159 -0.276266
C55   C     C_R   0.938129 0.713289 0.598860 0.032911
C56   C     C_R   0.841300 0.549620 0.766401 -0.144744
C57   C     C_R   0.799663 0.499399 0.806579 0.022367
C58   C     C_R   0.706686 0.451242 0.792485 -0.034627
C59   C     C_R   0.658031 0.454625 0.738444 -0.145777
C60   C     C_R   0.699200 0.503623 0.697566 0.018177
C61   C     C_R   0.359440 0.501216 0.359310 0.497842
C62   C     C_R   0.792543 0.553125 0.712437 -0.030814
C63   C     C_R   0.614734 0.290519 0.786202 -0.072315
C64   C     C_R   0.551563 0.233924 0.813372 0.085920
C65   C     C_3   0.237022 0.597522 0.302922 -0.101611
C66   C     C_R   0.530008 0.285725 0.886946 -0.094017
C67   C     C_R   0.571452 0.392027 0.933042 -0.102572
C68   C     C_R   0.634131 0.447708 0.905854 -0.058272
C69   C     C_R   0.655767 0.397211 0.832052 0.034289
C70   C     C_R   0.363494 0.773690 0.686543 -0.070634
C71   C     C_R   0.349519 0.719056 0.723329 -0.038526
C72   C     C_R   0.274749 0.615962 0.678686 0.076289
C73   C     C_3   0.340926 0.500345 0.220159 -0.011150
C74   C     C_R   0.213342 0.568706 0.597826 -0.029951
C75   C     C_R   0.226943 0.624117 0.561836 -0.072034
C76   C     C_3   0.639189 0.938886 0.730826 -0.253376
C77   C     C_R   0.302136 0.726419 0.605999 -0.069706
C78   C     C_R   0.209513 0.553421 0.768356 -0.146012
C79   C     C_R   0.196839 0.500300 0.806582 0.050650
C80   C     C_R   0.240020 0.449789 0.791078 0.032402
C81   C     C_R   0.292221 0.451418 0.736608 -0.082967
C82   C     C_R   0.304022 0.503424 0.697870 0.025543
C83   C     C_R   0.263140 0.556493 0.714973 -0.038841
C84   C     C_R   0.300182 0.435023 0.902425 0.071437
C85   C     C_3   0.286177 0.517173 0.169721 -0.038600
C86   C     C_R   0.289136 0.376231 0.934294 -0.131795
C87   C     C_3   0.697387 0.058237 0.787259 -0.229037
C88   C     C_R   0.211845 0.276738 0.894023 -0.126357
C89   C     C_R   0.144874 0.230604 0.818024 0.053789
C90   C     C_R   0.155059 0.287473 0.783371 0.057478
C91   C     C_R   0.231056 0.391146 0.827771 -0.021894
C92   C     C_R   0.856731 0.496923 0.142242 0.483638
C93   C     C_R   0.139276 0.500192 0.862142 0.537597
C94   C     C_R   0.856702 0.219004 0.862738 0.510707
C95   C     C_R   0.139089 0.779811 0.141011 0.524575
C96   C     C_R   0.855835 0.500147 0.862502 0.506964
C97   C     C_3   0.202977 0.411245 0.264580 -0.103290
C98   C     C_3   0.766259 0.939548 0.783388 -0.231546
C99   C     C_R   0.141627 0.502271 0.142980 0.498799
C100  C     C_2   0.329702 0.397576 0.156377 0.218340
C101  C     C_2   0.794665 0.895884 0.595070 0.608625
C102  C     C_2   0.442155 0.581974 0.255120 0.258447
C103  C     C_2   0.554783 0.345694 0.155744 0.583410
C104  C     C_2   0.662911 0.313127 0.055449 0.278441
C105  C     C_2   0.340763 0.614499 0.171505 0.569477
C106  C     C_2   0.731628 0.559253 0.140136 0.245066
C107  C     C_2   0.769920 0.443618 0.368086 0.183322
C108  C     C_2   0.362886 0.233562 0.719514 0.562111
H1    H     H_    0.178160 0.575562 0.326360 0.133178
H2    H     H_    0.696977 0.926780 0.598137 0.124829
H3    H     H_    0.806057 0.099595 0.683563 0.120200
H4    H     H_    0.885119 0.086729 0.724430 0.214225
H5    H     H_    0.811930 0.914704 0.765682 0.163455
H6    H     H_    0.894871 0.091297 0.861961 0.172481
H7    H     H_    0.628516 0.326253 0.224729 0.137883
H8    H     H_    0.734064 0.337890 0.163454 0.175919
H9    H     H_    0.658386 0.568170 0.260256 0.227786
H10   H     H_    0.822174 0.596671 0.411145 0.128642
H11   H     H_    0.876616 0.482805 0.277793 0.182944
H12   H     H_    0.177071 0.432066 0.321421 0.149949
H13   H     H_    0.908072 0.610015 0.325869 0.126321
H14   H     H_    0.760764 0.654098 0.348444 0.115314
H15   H     H_    0.839972 0.651095 0.255903 0.133490
H16   H     H_    0.475125 0.229453 0.622705 0.125188
H17   H     H_    0.437892 0.149911 0.462331 0.126779
H18   H     H_    0.257261 0.453471 0.097914 0.174843
H19   H     H_    0.164035 0.050889 0.440422 0.141641
H20   H     H_    0.200352 0.127380 0.600373 0.193278
H21   H     H_    0.197699 0.900482 0.316577 0.157384
H22   H     H_    0.309393 0.099158 0.186000 0.169349
H23   H     H_    0.083810 0.386537 0.202281 0.117948
H24   H     H_    0.267392 0.785354 0.881649 0.113933
H25   H     H_    0.083631 0.872004 0.902040 0.160022
H26   H     H_    0.117507 0.940153 0.059276 0.126479
H27   H     H_    0.940720 0.580158 0.513246 0.125772
H28   H     H_    0.855826 0.487769 0.577241 0.130929
H29   H     H_    0.844673 0.744070 0.762799 0.106015
H30   H     H_    0.925991 0.834461 0.696538 0.173166
H31   H     H_    0.912666 0.586690 0.776758 0.153937
H32   H     H_    0.586914 0.418706 0.728810 0.178617
H33   H     H_    0.629516 0.251377 0.727426 0.140034
H34   H     H_    0.604501 0.912329 0.770954 0.137511
H35   H     H_    0.480812 0.244185 0.908786 0.170634
H36   H     H_    0.553534 0.430982 0.988875 0.192549
H37   H     H_    0.134246 0.338875 0.125142 0.177160
H38   H     H_    0.663214 0.529332 0.940146 0.152623
H39   H     H_    0.312969 0.768922 0.577698 0.146526
H40   H     H_    0.422198 0.852386 0.720276 0.108605
H41   H     H_    0.397680 0.756116 0.785490 0.099683
H42   H     H_    0.155622 0.489091 0.562600 0.118079
H43   H     H_    0.179523 0.587559 0.499453 0.098580
H44   H     H_    0.177086 0.592511 0.779481 0.159497
H45   H     H_    0.586097 0.907984 0.673173 0.155886
H46   H     H_    0.323924 0.411361 0.724724 0.151754
H47   H     H_    0.340745 0.407561 0.991116 0.191027
H48   H     H_    0.294860 0.616646 0.418335 0.142809
H49   H     H_    0.206251 0.233315 0.919893 0.216983
H50   H     H_    0.376936 0.672627 0.376435 0.175544
H51   H     H_    0.378756 0.386128 0.172397 0.179068
H52   H     H_    0.807443 0.821753 0.475834 0.350724
H53   H     H_    0.479065 0.636818 0.325850 0.114542
H54   H     H_    0.486190 0.364881 0.089046 0.339522
H55   H     H_    0.635981 0.337350 0.027125 0.136251
H56   H     H_    0.677334 0.083633 0.752221 0.176182
H57   H     H_    0.438778 0.767326 0.240162 0.365022
H58   H     H_    0.725443 0.504700 0.073984 0.120476
H59   H     H_    0.737269 0.441866 0.416901 0.134868
H60   H     H_    0.325209 0.223826 0.818444 0.342294
H61   H     H_    0.347891 0.810437 0.004735 0.116885
H62   H     H_    0.110462 0.790000 0.689434 0.346819
H63   H     H_    0.008283 0.730082 0.503712 0.091127
H64   H     H_    0.187189 0.259696 0.168969 0.174057
H65   H     H_    0.409085 0.987708 0.746408 0.341951
H66   H     H_    0.448787 0.684923 0.978093 0.347934
H67   H     H_    0.684646 0.088345 0.851603 0.184397
H68   H     H_    0.985480 0.010208 0.791585 0.342598
H69   H     H_    0.960746 0.187695 0.644811 0.339195
H70   H     H_    0.273425 0.716926 0.274565 0.166795
H71   H     H_    0.729461 0.906638 0.818974 0.114158
H72   H     H_    0.808458 0.083171 0.910595 0.130034
O1    O     O_3   0.500000 0.500000 0.500000 -0.449246
O2    O     O_R   0.113800 0.731630 0.056520 -0.539420
O3    O     O_R   0.819390 0.439310 0.886160 -0.546198
O4    O     O_R   0.383400 0.268380 0.323710 -0.525288
O5    O     O_R   0.115110 0.560720 0.179280 -0.557234
O6    O     O_R   0.941380 0.560750 0.885620 -0.553210
O7    O     O_R   0.115110 0.439270 0.057830 -0.528379
O8    O     O_R   0.942690 0.268390 0.886930 -0.524980
O9    O     O_R   0.114340 0.731630 0.178520 -0.550496
O10   O     O_R   0.820160 0.439310 0.057830 -0.547222
O11   O     O_R   0.113800 0.560730 0.885620 -0.556303
O12   O     O_R   0.383400 0.560740 0.616060 -0.541826
O13   O     O_R   0.555060 0.731630 0.615290 -0.557395
O14   O     O_R   0.383950 0.439280 0.616600 -0.537406
O15   O     O_R   0.677590 0.560710 0.444390 -0.551988
O16   O     O_R   0.556370 0.439260 0.616600 -0.555177
O17   O     O_R   0.382640 0.439290 0.322940 -0.548851
O18   O     O_R   0.678360 0.560700 0.616060 -0.548372
O19   O     O_R   0.382640 0.560750 0.444390 -0.543861
O20   O     O_2   0.267405 0.326763 0.086513 -0.590911
O21   O     O_2   0.852131 0.897977 0.631805 -0.481380
O22   O     O_R   0.771023 0.849157 0.503608 -0.682518
O23   O     O_R   0.555060 0.439270 0.322940 -0.518545
O24   O     O_2   0.483730 0.586944 0.203853 -0.431286
O25   O     O_2   0.486151 0.266743 0.139006 -0.487737
O26   O     O_R   0.549762 0.399099 0.124454 -0.724170
O27   O     O_2   0.654740 0.231508 0.006350 -0.498769
O28   O     O_2   0.322713 0.609663 0.104814 -0.495561
O29   O     O_R   0.409099 0.709603 0.248595 -0.687585
O30   O     O_2   0.707992 0.614561 0.149902 -0.461554
O31   O     O_2   0.791808 0.384088 0.332090 -0.520924
O32   O     O_2   0.436675 0.313609 0.770386 -0.543349
O33   O     O_R   0.299713 0.187252 0.752251 -0.676791
O34   O     O_R   0.383950 0.268380 0.445700 -0.539910
O35   O     O_2   0.351968 0.893965 0.128235 -0.489949
O36   O     O_2   0.174695 0.728242 0.736647 -0.546296
O37   O     O_R   0.115052 0.816716 0.753578 -0.685696
O38   O     O_2   0.005460 0.851573 0.584757 -0.424682
O39   O     O_2   0.162718 0.274804 0.278313 -0.501991
O40   O     O_2   0.524639 0.075260 0.699937 -0.541165
O41   O     O_R   0.437786 0.064722 0.787313 -0.672041
O42   O     O_2   0.452477 0.562809 0.990926 -0.464852
O43   O     O_R   0.387488 0.616402 0.943803 -0.692938
O44   O     O_2   0.029460 0.064140 0.695054 -0.417394
O45   O     O_R   0.677590 0.731610 0.615290 -0.518570
O46   O     O_R   0.039596 0.084755 0.827388 -0.709979
O47   O     O_2   0.105194 0.224546 0.634430 -0.516372
O48   O     O_R   0.001434 0.218325 0.703937 -0.700005
O49   O     O_2   0.293992 0.774927 0.402400 -0.499036
O50   O     O_3   0.997750 0.500010 0.002220 -0.449418
O51   O     O_R   0.942690 0.560750 0.179280 -0.547389
O52   O     O_R   0.114340 0.439270 0.886160 -0.514047
O53   O     O_R   0.820160 0.268410 0.886930 -0.529842
Zn1   Zn    Zn3+2 0.456040 0.586770 0.543190 0.944334
Zn2   Zn    Zn3+2 0.456820 0.413240 0.543960 0.952212
Zn3   Zn    Zn3+2 0.631110 0.586750 0.543190 0.943451
Zn4   Zn    Zn3+2 0.456040 0.413240 0.369660 0.985601
Zn5   Zn    Zn3+2 0.041710 0.413240 0.959030 0.991240
Zn6   Zn    Zn3+2 0.866640 0.413270 0.959030 0.952446
Zn7   Zn    Zn3+2 0.040930 0.586780 0.958260 0.952672
Zn8   Zn    Zn3+2 0.041710 0.586770 0.132560 0.947059

loop_
_geom_bond_atom_site_label_1
_geom_bond_atom_site_label_2
_ccdc_geom_bond_type
C48   C55   A    
C10   O48   S    
C79   C80   A    
C19   H14   S    
C4    O36   D    
C73   C100  S    
C21   H50   S    
O13   Zn1   S    
C48   H27   S    
O50   Zn7   S    
C35   C36   A    
C100  H51   S    
C103  O26   S    
O14   Zn2   S    
C2    C12   S    
C61   O19   A    
C104  H55   S    
C20   H10   S    
C81   C82   A    
C85   H18   S    
O2    Zn7   S    
C6    H64   S    
C45   C46   A    
C27   C33   A    
C54   H23   S    
C51   C62   S    
C16   H4    S    
C49   C60   S    
C105  O28   D    
C34   C40   A    
C37   O15   A    
C28   C29   A    
O51   Zn8   S    
C32   C73   S    
C43   C99   S    
C14   C87   S    
C79   C93   S    
C101  O22   S    
C102  H53   S    
H52   O22   S    
C38   C39   A    
C7    O41   S    
C86   C88   A    
C23   C26   S    
C107  O31   D    
C3    O35   D    
C106  O30   D    
C76   H45   S    
C105  O29   S    
C32   C97   S    
C36   C47   S    
C60   C62   A    
C34   C35   A    
C41   C42   A    
C104  O27   D    
C87   H67   S    
C102  O24   D    
O3    Zn6   S    
C30   H19   S    
O17   Zn4   S    
O1    Zn1   S    
C3    C41   S    
C63   C69   A    
C34   H21   S    
C75   H43   S    
C68   C69   A    
C57   C96   S    
C17   C18   S    
C23   C24   S    
C31   C33   A    
C54   C97   S    
O1    Zn3   S    
C70   C71   A    
C26   H13   S    
C2    C16   S    
C77   H39   S    
C12   C98   S    
C108  O33   S    
C23   C92   S    
C76   H34   S    
C71   H41   S    
C20   C107  S    
C49   O16   A    
C48   C50   A    
C87   H56   S    
H65   O41   S    
C59   C60   A    
C11   O49   D    
C13   O13   A    
C15   H72   S    
H54   O26   S    
C70   C77   A    
O52   Zn5   S    
O50   Zn6   S    
C33   C108  S    
C42   C44   A    
C31   H20   S    
C85   C105  S    
C67   H36   S    
C78   C83   A    
C99   O7    A    
C108  O32   D    
C1    O4    A    
C92   O10   A    
C52   H29   S    
C57   C58   A    
C49   O18   A    
C93   O11   A    
C5    H63   S    
C21   C32   S    
C107  H59   S    
C63   H33   S    
C44   C45   A    
C74   C75   A    
O10   Zn6   S    
C78   H44   S    
C67   C68   A    
C43   C85   S    
C6    C97   S    
C96   O6    A    
C41   C47   A    
C19   C22   S    
C26   H11   S    
C72   C74   A    
O19   Zn1   S    
C61   O17   A    
C39   C40   A    
C56   H31   S    
C95   O9    A    
C78   C79   A    
C3    H61   S    
C98   H5    S    
O5    Zn8   S    
C66   H35   S    
C4    C44   S    
C2    C101  S    
C58   C59   A    
C22   C37   S    
C24   H15   S    
C81   H46   S    
C51   C52   A    
C64   C66   A    
H60   O33   S    
C86   H47   S    
C29   C30   A    
C94   O8    A    
C46   H26   S    
O1    Zn2   S    
C43   C54   S    
C5    O38   D    
C43   C65   S    
C73   C85   S    
C50   C51   A    
C37   O23   A    
C15   H6    S    
C95   O2    A    
C11   H70   S    
C18   C104  S    
C88   H49   S    
C88   C89   A    
O12   Zn1   S    
C75   C77   A    
C76   C87   S    
C65   H1    S    
C9    O46   S    
C8    O43   S    
C54   H37   S    
O6    Zn7   S    
C7    O40   D    
C100  O20   D    
C93   O52   A    
C73   C102  S    
C84   C91   A    
C20   C22   S    
C4    O37   S    
C53   H30   S    
C12   C76   S    
O9    Zn8   S    
C25   C82   S    
C56   C62   A    
O15   Zn3   S    
O50   Zn5   S    
C70   H40   S    
C56   C57   A    
C15   C98   S    
C18   H8    S    
C50   H28   S    
C106  H58   S    
O4    Zn4   S    
C99   O5    A    
O7    Zn5   S    
C8    O42   D    
C28   H17   S    
C17   H7    S    
O34   Zn2   S    
O1    Zn4   S    
O11   Zn7   S    
C46   C47   A    
C2    H2    S    
C21   C65   S    
C8    C84   S    
O45   Zn3   S    
C53   C55   A    
C5    C55   S    
H66   O43   S    
C103  O25   D    
C84   C86   A    
C80   C81   A    
C25   O12   A    
C32   C61   S    
C27   H16   S    
C9    C89   S    
C94   O53   A    
C68   H38   S    
O16   Zn2   S    
C35   C95   S    
H68   O46   S    
C10   O47   D    
C45   H25   S    
C17   C22   S    
C38   H22   S    
C58   C69   S    
H62   O37   S    
C97   H12   S    
C36   C38   A    
C19   C24   S    
C17   C103  S    
C71   C72   A    
O50   Zn8   S    
C101  O21   D    
H69   O48   S    
C13   O45   A    
C9    O44   D    
H57   O29   S    
C90   C91   A    
C30   C31   A    
C20   C26   S    
C59   H32   S    
C80   C91   S    
C18   C23   S    
C29   C40   S    
C21   H48   S    
C66   C67   A    
C14   C16   S    
O53   Zn6   S    
C7    C64   S    
O23   Zn4   S    
C72   C83   S    
O8    Zn5   S    
C1    C39   S    
C63   C64   A    
C10   C90   S    
C24   C106  S    
C6    O39   D    
C19   H9    S    
C82   C83   A    
C1    O34   A    
C14   C15   S    
C74   H42   S    
C42   H24   S    
C96   O3    A    
C12   C13   S    
C89   C90   A    
C14   C94   S    
O18   Zn3   S    
C92   O51   A    
C25   O14   A    
C11   C65   S    
C16   H3    S    
C52   C53   A    
C27   C28   A    
C98   H71   S    
