data_mof_unit_31674.cif
_audit_creation_date              2012-12-10T19:14:54-0500
_audit_creation_method            fapswitch 2.2
_symmetry_space_group_name_H-M    P1
_symmetry_Int_Tables_number       1
_space_group_crystal_system       triclinic
_cell_length_a                    15.99461
_cell_length_b                    14.696345
_cell_length_c                    10.978055
_cell_angle_alpha                 90.607617
_cell_angle_beta                  90.001355
_cell_angle_gamma                 89.998872
_cell_volume                      2580.381823

loop_
_atom_site_label
_atom_site_type_symbol
_atom_type_description
_atom_site_fract_x
_atom_site_fract_y
_atom_site_fract_z
_atom_type_partial_charge
C1    C     C_1   0.252163 0.500005 0.499984 -0.197985
C2    C     C_1   0.747841 0.500000 0.499986 -0.200154
C3    C     C_R   0.491335 0.501503 0.872305 -0.184011
C4    C     C_R   0.491322 0.498498 0.127694 -0.184014
C5    C     C_R   0.499840 0.902896 0.499936 0.063401
C6    C     C_R   0.499839 0.097103 0.500047 0.063373
C7    C     C_R   0.575312 0.951996 0.499566 -0.179532
C8    C     C_R   0.424336 0.048010 0.499663 -0.168013
C9    C     C_R   0.424336 0.951991 0.500223 -0.168008
C10   C     C_R   0.575313 0.048001 0.500506 -0.179499
C11   C     C_R   0.955757 0.584105 0.497842 0.044824
C12   C     C_R   0.044248 0.415892 0.497164 0.044432
C13   C     C_R   0.044243 0.584133 0.502537 0.044489
C14   C     C_R   0.955768 0.415916 0.501924 0.044782
C15   C     C_R   0.340907 0.500001 0.500020 0.830911
C16   C     C_R   0.659092 0.500000 0.499986 0.841021
C17   C     C_R   0.497474 0.499407 0.261472 0.806113
C18   C     C_R   0.497495 0.500593 0.738528 0.806112
C19   C     C_R   0.912661 0.500006 0.499929 0.035128
C20   C     C_R   0.087348 0.500012 0.499886 0.034889
C21   C     C_1   0.499920 0.802863 0.500020 0.073525
C22   C     C_1   0.499920 0.197136 0.499972 0.073605
C23   C     C_1   0.822713 0.500003 0.499974 -0.059212
C24   C     C_1   0.177294 0.500008 0.499941 -0.059579
C25   C     C_R   0.450277 0.663207 0.121362 -0.196822
C26   C     C_R   0.450290 0.336797 0.878625 -0.196840
C27   C     C_R   0.520589 0.669879 0.892095 -0.206488
C28   C     C_R   0.520579 0.330120 0.107910 -0.206509
C29   C     C_R   0.464131 0.748406 0.068972 0.111047
C30   C     C_R   0.464145 0.251595 0.931013 0.111045
C31   C     C_R   0.504239 0.751842 0.954524 0.115210
C32   C     C_R   0.504238 0.248158 0.045474 0.115205
C33   C     C_R   0.497813 0.584316 0.940839 0.040434
C34   C     C_R   0.497807 0.415684 0.059161 0.040437
C35   C     C_R   0.478467 0.581749 0.064858 0.042895
C36   C     C_R   0.478474 0.418252 0.935138 0.042896
Cu1   Cu    Cu3+1 0.500000 0.589220 0.500000 0.954473
Cu2   Cu    Cu3+1 0.500000 0.410780 0.500000 0.954559
H1    H     H_    0.634445 0.083937 0.500907 0.129414
H2    H     H_    0.365222 0.916037 0.500603 0.123897
H3    H     H_    0.365222 0.083965 0.499211 0.123836
H4    H     H_    0.634446 0.916058 0.499236 0.129525
N1    N     N_1   0.500000 0.276710 0.500000 -0.161127
N2    N     N_1   0.500000 0.723290 0.500000 -0.161179
O1    O     O_R   0.380310 0.575320 0.500020 -0.575316
O2    O     O_R   0.619690 0.424680 0.499980 -0.570864
O3    O     O_R   0.619690 0.575320 0.499980 -0.570911
O4    O     O_R   0.380310 0.424680 0.500020 -0.575283
O5    O     O_R   0.499990 0.575350 0.319650 -0.582781
O6    O     O_R   0.500010 0.424650 0.680350 -0.582786
O7    O     O_R   0.500010 0.575350 0.680350 -0.588616
O8    O     O_R   0.499990 0.424650 0.319650 -0.588622
C37   C     C_3   0.093823 0.672821 0.511442 -0.390187
C38   C     C_3   0.123943 0.703214 0.385465 -0.331438
C39   C     C_3   0.177633 0.788879 0.394821 -0.870087
H5    H     H_    0.141341 0.845536 0.436735 0.250821
H6    H     H_    0.234243 0.775754 0.450613 0.257853
H7    H     H_    0.197787 0.809491 0.302347 0.244038
H8    H     H_    0.161568 0.648400 0.341617 0.225674
H9    H     H_    0.069279 0.717132 0.326066 0.207597
H10   H     H_    0.057210 0.727957 0.555754 0.190422
H11   H     H_    0.148372 0.664049 0.572926 0.203052
C40   C     C_3   0.906194 0.327321 0.510316 -0.390636
C41   C     C_3   0.875751 0.295501 0.384248 -0.333569
C42   C     C_3   0.822702 0.209468 0.393115 -0.864244
H12   H     H_    0.859813 0.153338 0.433177 0.249843
H13   H     H_    0.766606 0.222446 0.450421 0.258565
H14   H     H_    0.801681 0.188165 0.300710 0.242847
H15   H     H_    0.837547 0.349604 0.341424 0.226078
H16   H     H_    0.930250 0.281491 0.324168 0.207742
H17   H     H_    0.942899 0.272667 0.553981 0.190897
H18   H     H_    0.851798 0.336807 0.572154 0.202827
C43   C     C_3   0.906166 0.672674 0.489321 -0.390549
C44   C     C_3   0.875819 0.704677 0.615359 -0.333513
C45   C     C_3   0.821983 0.790115 0.606201 -0.864200
H19   H     H_    0.858365 0.846375 0.565092 0.249896
H20   H     H_    0.765682 0.776222 0.549700 0.258714
H21   H     H_    0.801288 0.811758 0.698628 0.242814
H22   H     H_    0.838225 0.650370 0.658840 0.226072
H23   H     H_    0.930378 0.719494 0.674982 0.207584
H24   H     H_    0.942810 0.727285 0.445460 0.190492
H25   H     H_    0.851728 0.663087 0.427588 0.203065
C46   C     C_3   0.093818 0.327207 0.487982 -0.390271
C47   C     C_3   0.123975 0.296593 0.613841 -0.331464
C48   C     C_3   0.177096 0.210516 0.604263 -0.870103
H26   H     H_    0.140268 0.154070 0.562842 0.250765
H27   H     H_    0.233551 0.223113 0.547923 0.257732
H28   H     H_    0.197497 0.189898 0.696625 0.244067
H29   H     H_    0.162036 0.351130 0.657499 0.225691
H30   H     H_    0.069347 0.283093 0.673483 0.207699
H31   H     H_    0.057176 0.272166 0.443503 0.190764
H32   H     H_    0.148359 0.336059 0.426508 0.202868
C49   C     C_3   0.529049 0.159937 0.106142 -0.431974
C50   C     C_3   0.623683 0.144787 0.097028 -0.348522
C51   C     C_3   0.649534 0.056921 0.159447 -0.853849
H33   H     H_    0.636366 0.061698 0.258488 0.262579
H34   H     H_    0.614935 0.998120 0.120168 0.256209
H35   H     H_    0.717574 0.045443 0.146466 0.239672
H36   H     H_    0.642366 0.141194 0.999592 0.218328
H37   H     H_    0.657620 0.202483 0.140793 0.216635
H38   H     H_    0.510056 0.162857 0.203609 0.204317
H39   H     H_    0.496365 0.100315 0.066174 0.200130
C52   C     C_3   0.529063 0.840061 0.893865 -0.431984
C53   C     C_3   0.623696 0.855198 0.903004 -0.348506
C54   C     C_3   0.649560 0.943064 0.840600 -0.853924
H40   H     H_    0.717597 0.954540 0.853617 0.239674
H41   H     H_    0.636414 0.938288 0.741552 0.262560
H42   H     H_    0.614953 0.001866 0.879860 0.256219
H43   H     H_    0.642370 0.858785 0.000446 0.218338
H44   H     H_    0.657634 0.797501 0.859244 0.216638
H45   H     H_    0.510078 0.837146 0.796393 0.204323
H46   H     H_    0.496382 0.899688 0.933829 0.200132
C55   C     C_3   0.440565 0.167299 0.858113 -0.411728
C56   C     C_3   0.355994 0.129522 0.899306 -0.353443
C57   C     C_3   0.331301 0.046068 0.823644 -0.854512
H47   H     H_    0.321417 0.065286 0.727188 0.256163
H48   H     H_    0.380822 0.993243 0.827958 0.252743
H49   H     H_    0.272186 0.017188 0.859505 0.238858
H50   H     H_    0.358645 0.110560 0.996766 0.219830
H51   H     H_    0.307032 0.182592 0.888914 0.216940
H52   H     H_    0.436215 0.184006 0.759708 0.204312
H53   H     H_    0.490315 0.114859 0.864363 0.196856
C58   C     C_3   0.440530 0.832705 0.141853 -0.411715
C59   C     C_3   0.355979 0.870495 0.100584 -0.353436
C60   C     C_3   0.331259 0.953946 0.176235 -0.854547
H54   H     H_    0.272159 0.982834 0.140325 0.238876
H55   H     H_    0.321336 0.934722 0.272680 0.256193
H56   H     H_    0.380783 0.006767 0.171972 0.252740
H57   H     H_    0.358670 0.889467 0.003130 0.219828
H58   H     H_    0.307010 0.817429 0.110917 0.216907
H59   H     H_    0.436139 0.815999 0.240254 0.204293
H60   H     H_    0.490288 0.885137 0.135646 0.196859
H61   H     H_    0.415344 0.661652 0.205510 0.166248
H62   H     H_    0.415360 0.338351 0.794472 0.166241
H63   H     H_    0.554960 0.675459 0.808252 0.177474
H64   H     H_    0.554942 0.324536 0.191762 0.177478

loop_
_geom_bond_atom_site_label_1
_geom_bond_atom_site_label_2
_ccdc_geom_bond_type
C7    C10   A    
C53   H44   S    
C39   H5    S    
C49   C50   S    
C58   H60   S    
C43   C44   S    
C51   H33   S    
C56   C57   S    
C51   H35   S    
C58   C59   S    
C38   H9    S    
C48   H26   S    
C27   C33   A    
C46   H32   S    
C54   H41   S    
C11   C19   A    
C3    C36   A    
C53   H43   S    
Cu1   O7    S    
Cu2   O8    S    
C3    C33   A    
C57   H47   S    
C6    C22   S    
C16   O3    A    
C3    C18   S    
C52   H45   S    
C7    H4    S    
C37   H10   S    
C55   H53   S    
C20   C24   S    
C8    C9    A    
C42   H13   S    
C60   H56   S    
C1    C15   S    
C41   H16   S    
Cu1   O3    S    
C25   H61   S    
Cu2   O4    S    
C56   H50   S    
C42   H14   S    
C32   C49   S    
C4    C35   A    
C28   C34   A    
C44   H23   S    
C47   H30   S    
C15   O4    A    
C17   O8    A    
C43   H24   S    
C53   C54   S    
C18   O7    A    
C13   C37   S    
C38   H8    S    
C48   H27   S    
C25   C29   A    
C54   H42   S    
C4    C34   A    
C44   C45   S    
C27   C31   A    
C28   C32   A    
C8    H3    S    
C11   C43   S    
C17   O5    A    
C5    C7    A    
C6    C8    A    
C57   H48   S    
C37   C38   S    
C9    H2    S    
C12   C46   S    
C10   H1    S    
C5    C21   S    
C31   C52   S    
C19   C23   S    
C45   H19   S    
C5    C9    A    
Cu1   Cu2   S    
C26   H62   S    
C21   N2    T    
Cu1   O5    S    
C37   H11   S    
C46   C47   S    
C50   H37   S    
C57   H49   S    
C12   C20   A    
C59   H58   S    
C41   H15   S    
C47   C48   S    
C45   H20   S    
C25   C35   A    
C4    C17   S    
C26   C36   A    
C12   C14   A    
C26   C30   A    
C44   H22   S    
C39   H6    S    
C16   O2    A    
C60   H54   S    
C47   H29   S    
C15   O1    A    
C49   H38   S    
C43   H25   S    
C52   C53   S    
C2    C16   S    
C18   O6    A    
C55   C56   S    
C48   H28   S    
C38   C39   S    
C13   C20   A    
C58   H59   S    
C28   H64   S    
C14   C19   A    
C40   H17   S    
C49   H39   S    
C6    C10   A    
C51   H34   S    
Cu2   O6    S    
C46   H31   S    
C54   H40   S    
C27   H63   S    
C41   C42   S    
Cu1   N2    S    
Cu2   N1    S    
C29   C31   A    
C30   C32   A    
C11   C13   A    
C50   H36   S    
C14   C40   S    
C29   C58   S    
C33   C35   A    
C59   H57   S    
C34   C36   A    
C50   C51   S    
C45   H21   S    
Cu2   O2    S    
C40   C41   S    
C55   H52   S    
C40   H18   S    
C1    C24   T    
C42   H12   S    
C39   H7    S    
C2    C23   T    
C60   H55   S    
C52   H46   S    
Cu1   O1    S    
C22   N1    T    
C56   H51   S    
C59   C60   S    
C30   C55   S    
