data_mof_unit_10662.cif
_audit_creation_date              2013-03-05T15:50:33-0500
_audit_creation_method            fapswitch 2.2
_symmetry_space_group_name_H-M    P1
_symmetry_Int_Tables_number       1
_space_group_crystal_system       triclinic
_cell_length_a                    9.634241
_cell_length_b                    10.766235
_cell_length_c                    13.504825
_cell_angle_alpha                 92.510663
_cell_angle_beta                  73.77956
_cell_angle_gamma                 89.854439
_cell_volume                      1343.5713516

loop_
_atom_site_label
_atom_site_type_symbol
_atom_site_description
_atom_site_fract_x
_atom_site_fract_y
_atom_site_fract_z
_atom_type_partial_charge
O1    O     O_R   0.381190 0.680360 0.500010 -0.583291
O2    O     O_R   0.618760 0.680340 0.500000 -0.568800
C1    C     C_R   0.498313 0.737304 0.503910 0.797705
O3    O     O_R   0.323240 0.499990 0.650990 -0.610504
O4    O     O_R   0.560820 0.499960 0.650980 -0.516966
C2    C     C_R   0.423296 0.512887 0.699464 0.793058
Cu1   Cu    Cu3+1 0.359340 0.500010 0.500010 0.915766
Cu2   Cu    Cu3+1 0.640660 0.499990 0.499990 0.957039
O5    O     O_R   0.381240 0.319660 0.500000 -0.600808
O6    O     O_R   0.618810 0.319640 0.499990 -0.591375
O7    O     O_R   0.439180 0.500040 0.349020 -0.601804
O8    O     O_R   0.676760 0.500010 0.349010 -0.598942
C3    C     C_R   0.498643 0.263061 0.503609 0.768129
C4    C     C_R   0.576522 0.496287 0.300899 0.772175
C5    C     C_R   0.794176 0.464417 0.022776 -0.154685
H1    H     H_    0.840979 0.438831 0.166440 0.151993
H2    H     H_    0.904095 0.442576 0.978840 0.163245
C6    C     C_R   0.616783 0.490362 0.188257 -0.042075
C7    C     C_R   0.231673 0.545248 0.866336 -0.209889
C8    C     C_R   0.186514 0.550260 0.973611 -0.146253
C9    C     C_R   0.286088 0.537103 0.029669 -0.130058
C10   C     C_R   0.436020 0.533216 0.979395 0.014347
C11   C     C_R   0.481336 0.548361 0.871670 -0.060808
C12   C     C_R   0.543332 0.515060 0.031592 0.008481
C13   C     C_R   0.690495 0.499698 0.973638 0.052746
C14   C     C_R   0.732649 0.531336 0.870031 0.137011
C15   C     C_R   0.627837 0.576737 0.826862 0.442904
C16   C     C_R   0.509712 0.512350 0.139094 -0.211093
C17   C     C_R   0.758108 0.461425 0.129707 -0.229412
C18   C     C_R   0.379258 0.537727 0.813397 -0.092863
H3    H     H_    0.401682 0.532888 0.186528 0.152335
H4    H     H_    0.150918 0.547091 0.824835 0.179974
H5    H     H_    0.241692 0.530416 0.111775 0.122470
H6    H     H_    0.073297 0.560355 0.014210 0.139595
H7    H     H_    0.687083 0.880096 0.382047 0.151293
C19   C     C_R   0.284461 0.879995 0.666391 -0.204803
H8    H     H_    0.283599 0.780179 0.672168 0.137642
C20   C     C_R   0.181098 0.949319 0.741513 -0.141478
H9    H     H_    0.102208 0.902597 0.801037 0.134723
C21   C     C_R   0.180687 0.078494 0.741216 -0.134041
H10   H     H_    0.101458 0.132081 0.800512 0.132317
C22   C     C_R   0.283803 0.139140 0.665906 -0.174718
H11   H     H_    0.282162 0.239571 0.671307 0.154959
C23   C     C_R   0.388066 0.070741 0.587625 0.097369
C24   C     C_R   0.388157 0.939352 0.587784 0.091935
C25   C     C_R   0.495438 0.871546 0.511207 -0.106266
C26   C     C_R   0.603901 0.932314 0.439743 -0.204615
H12   H     H_    0.687182 0.105627 0.381863 0.138301
C27   C     C_R   0.604032 0.060353 0.439684 -0.209902
C28   C     C_R   0.495723 0.129615 0.511108 -0.089091
H13   H     H_    0.839856 0.669386 0.585323 0.194084
C29   C     C_R   0.907571 0.326082 0.370708 -0.224252
H14   H     H_    0.803359 0.325287 0.358634 0.204769
C30   C     C_R   0.003287 0.238335 0.309608 -0.235707
H15   H     H_    0.965949 0.173769 0.259144 0.153932
C31   C     C_R   0.147118 0.237034 0.309476 0.271952
C32   C     C_R   0.194639 0.326336 0.370092 -0.225022
H16   H     H_    0.307897 0.325945 0.359157 0.198351
C33   C     C_R   0.099073 0.412678 0.438006 0.173485
C34   C     C_R   0.949621 0.412342 0.438463 0.202616
N1    N     N_R   0.852480 0.498790 0.499000 -0.196070
C35   C     C_R   0.907262 0.590979 0.549466 -0.023720
H17   H     H_    0.091473 0.662553 0.594665 0.136550
C36   C     C_R   0.053649 0.589280 0.551801 -0.086537
N2    N     N_R   0.148360 0.498710 0.498970 -0.191096
N3    N     N_2   0.246347 0.149898 0.243840 -0.427142
H18   H     H_    0.353386 0.175002 0.227714 0.241951
C37   C     C_3   0.224774 0.022180 0.273156 -0.665813
H19   H     H_    0.303537 0.960810 0.216031 0.223668
H20   H     H_    0.114130 0.991909 0.274565 0.229205
H21   H     H_    0.241841 0.011870 0.350522 0.232113
N4    N     N_2   0.880722 0.526648 0.812073 -0.447010
H22   H     H_    0.912991 0.600930 0.765948 0.273105
C38   C     C_3   0.925338 0.407991 0.757580 -0.694251
H23   H     H_    0.905470 0.331738 0.812427 0.221695
H24   H     H_    0.042681 0.408674 0.717358 0.241448
H25   H     H_    0.865148 0.389547 0.699367 0.249661
O9    O     O_3   0.669926 0.654814 0.745636 -0.588659
C39   C     C_3   0.610188 0.774838 0.776994 -0.363779
H26   H     H_    0.658366 0.839055 0.714943 0.191502
H27   H     H_    0.635856 0.810725 0.848379 0.161529
H28   H     H_    0.491457 0.776367 0.788139 0.174469

loop_
_geom_bond_atom_site_label_1
_geom_bond_atom_site_label_2
_geom_bond_distance
_ccdc_geom_bond_type
N3    C37   1.447016 S    
C14   N4    1.422197 S    
C4    C6    1.459579 S    
C7    C8    1.389933 A    
C15   O9    1.381417 S    
H7    C26   1.084389 S    
Cu1   Cu2   2.710228 S    
C26   C27   1.378528 A    
C24   C25   1.415466 A    
C29   H14   1.061164 S    
Cu1   O7    1.968089 S    
C14   C15   1.396363 A    
C38   H24   1.109279 S    
C19   H8    1.080758 S    
C20   H9    1.083014 S    
Cu2   O6    1.953600 S    
O7    C4    1.300693 A    
C32   C33   1.414993 A    
C9    H5    1.076949 S    
C31   C32   1.395265 A    
C5    H2    1.079020 S    
O5    C3    1.297286 A    
C35   C36   1.419552 A    
C29   C34   1.413656 A    
C25   C26   1.395276 A    
C37   H19   1.110528 S    
C38   H25   1.111459 S    
C11   C15   1.411688 A    
Cu2   N1    2.037035 S    
C8    H6    1.078082 S    
C21   C22   1.394502 A    
N3    H18   1.032004 S    
C33   C34   1.438150 A    
C9    C10   1.413694 A    
H13   C35   1.074494 S    
C22   C23   1.415516 A    
O3    Cu1   1.970326 S    
C7    H4    1.079036 S    
C29   C30   1.387758 A    
C5    C17   1.389581 A    
C30   C31   1.385236 A    
C38   H23   1.110898 S    
C11   C18   1.422893 A    
C6    C16   1.398607 A    
C12   C13   1.420423 A    
O3    C2    1.312368 A    
C39   H27   1.113934 S    
O9    C39   1.411561 S    
H1    C17   1.083318 S    
H17   C36   1.081434 S    
C34   N1    1.382730 A    
O1    C1    1.298380 A    
Cu1   N2    2.036680 S    
Cu2   O8    1.970326 S    
C19   C24   1.415482 A    
C6    C17   1.396752 A    
N4    C38   1.447915 S    
C21   H10   1.082842 S    
C2    C18   1.489181 S    
O8    C4    1.305684 A    
C10   C12   1.422039 A    
O4    Cu2   1.968089 S    
C22   H11   1.080308 S    
C23   C24   1.414665 A    
C23   C28   1.416790 A    
Cu1   O5    1.952577 S    
C30   H15   1.083417 S    
H12   C27   1.083950 S    
O1    Cu1   1.953601 S    
C16   H3    1.075371 S    
O2    Cu2   1.952578 S    
C12   C16   1.398039 A    
N4    H22   1.030027 S    
O6    C3    1.299356 A    
C39   H28   1.111255 S    
C1    C25   1.443989 S    
C36   N2    1.365023 A    
C19   C20   1.394064 A    
O2    C1    1.297995 A    
C13   C14   1.401319 A    
C33   N2    1.383864 A    
C20   C21   1.390916 A    
C32   H16   1.059412 S    
O4    C2    1.307656 A    
C37   H21   1.112212 S    
C31   N3    1.424396 S    
C3    C28   1.444497 S    
N1    C35   1.368393 A    
C5    C13   1.404609 A    
C39   H26   1.109388 S    
C8    C9    1.388502 A    
C37   H20   1.110790 S    
C27   C28   1.394991 A    
C10   C11   1.414203 A    
C7    C18   1.402083 A    
