data_mof_unit_11822.cif
_audit_creation_date              2012-10-26T19:52:45-0400
_audit_creation_method            fapswitch 2.2
_symmetry_space_group_name_H-M    P1
_symmetry_Int_Tables_number       1
_space_group_crystal_system       triclinic
_cell_length_a                    14.984202
_cell_length_b                    10.888045
_cell_length_c                    9.575723
_cell_angle_alpha                 91.276536
_cell_angle_beta                  89.749918
_cell_angle_gamma                 90.609171
_cell_volume                      1561.77711053

loop_
_atom_site_label
_atom_site_type_symbol
_atom_type_description
_atom_site_fract_x
_atom_site_fract_y
_atom_site_fract_z
_atom_type_partial_charge
C1    C     C_R   0.497659 0.262201 0.497565 0.594419
C2    C     C_R   0.188216 0.380410 0.476049 0.092704
C3    C     C_R   0.232742 0.492437 0.501241 0.036776
C4    C     C_R   0.329170 0.498275 0.500242 0.577101
C5    C     C_R   0.187039 0.599121 0.534031 -0.142345
C6    C     C_R   0.471706 0.064004 0.609888 -0.062698
C7    C     C_R   0.494306 0.128170 0.490118 -0.002319
C8    C     C_R   0.516584 0.059714 0.366358 0.121201
C9    C     C_R   0.532827 0.933031 0.375856 0.095797
C10   C     C_R   0.508805 0.870618 0.499200 -0.010034
C11   C     C_R   0.475086 0.937458 0.613127 0.010842
C12   C     C_R   0.907767 0.598584 0.536006 -0.005616
C13   C     C_3   0.505883 0.943431 0.763023 0.204478
C14   C     C_3   0.501069 0.083054 0.757736 -0.175515
C15   C     C_R   0.570276 0.452712 0.071232 0.189036
C16   C     C_R   0.505437 0.737265 0.500722 0.561855
C17   C     C_R   0.427919 0.540106 0.075697 0.013397
C18   C     C_R   0.427728 0.539356 0.927323 -0.014943
C19   C     C_R   0.570258 0.455132 0.923942 0.180860
C20   C     C_3   0.663946 0.501092 0.916068 -0.039108
C21   C     C_3   0.666677 0.493815 0.074867 -0.037416
C22   C     C_R   0.671020 0.498702 0.500690 0.581306
C23   C     C_R   0.953564 0.263353 0.511854 0.149221
C24   C     C_R   0.815426 0.600478 0.524821 -0.138371
C25   C     C_R   0.767503 0.491223 0.506377 0.031382
C26   C     C_R   0.810094 0.376495 0.512325 0.118093
C27   C     C_R   0.904712 0.373439 0.517096 0.014213
C28   C     C_R   0.953114 0.486037 0.521147 0.005805
C29   C     C_R   0.042507 0.265626 0.467204 0.110866
C30   C     C_R   0.093373 0.375855 0.482397 0.009945
C31   C     C_R   0.047157 0.486467 0.515470 -0.001912
C32   C     C_R   0.094374 0.598317 0.541002 0.023968
C33   C     C_R   0.047782 0.706937 0.573555 0.114662
C34   C     C_R   0.955128 0.707537 0.564497 -0.070321
Cu1   Cu    Cu3+1 0.500000 0.499980 0.640670 0.986807
Cu2   Cu    Cu3+1 0.500000 0.500020 0.359330 1.032401
H1    H     H_    0.780286 0.687117 0.531517 0.127682
H2    H     H_    0.377098 0.917614 0.836572 0.235438
H3    H     H_    0.442896 0.794542 0.847841 0.261991
H4    H     H_    0.617781 0.925041 0.882442 0.283235
H5    H     H_    0.640153 0.936837 0.711211 0.236336
H6    H     H_    0.788372 0.437175 0.860218 0.265382
H7    H     H_    0.708244 0.324225 0.863806 0.277237
H8    H     H_    0.240259 0.242355 0.355274 0.272114
H9    H     H_    0.221279 0.205765 0.528510 0.271628
H10   H     H_    0.447483 0.124048 0.823909 0.170709
H11   H     H_    0.566916 0.130785 0.766153 0.157129
H12   H     H_    0.370382 0.574770 0.131748 0.139386
H13   H     H_    0.369921 0.573137 0.873730 0.128818
H14   H     H_    0.669229 0.596487 0.877222 0.171306
H15   H     H_    0.675555 0.585357 0.126462 0.158082
H16   H     H_    0.225334 0.682675 0.552290 0.142555
H17   H     H_    0.919924 0.792723 0.583807 0.170494
I1    I     I_    0.612496 0.845093 0.215096 -0.295904
I2    I     I_    0.756181 0.357730 0.151695 -0.281958
I3    I     I_    0.727050 0.214725 0.495521 -0.256765
I4    I     I_    0.921086 0.111132 0.640675 -0.234300
I5    I     I_    0.081097 0.106323 0.347741 -0.258177
I6    I     I_    0.112342 0.871243 0.645651 -0.313525
I7    I     I_    0.526235 0.137282 0.161534 -0.264520
N1    N     N_R   0.500570 0.500930 0.147930 -0.239881
N2    N     N_R   0.500570 0.500890 0.852020 -0.251771
N3    N     N_3   0.441756 0.889977 0.861110 -0.552638
N4    N     N_3   0.596358 0.896792 0.782942 -0.572351
N5    N     N_3   0.721684 0.415533 0.838307 -0.582039
N6    N     N_3   0.242235 0.273121 0.459190 -0.615900
O1    O     O_R   0.500000 0.319640 0.618810 -0.496800
O2    O     O_R   0.500010 0.319680 0.381230 -0.453771
O3    O     O_R   0.370250 0.499950 0.618800 -0.511908
O4    O     O_R   0.370260 0.499990 0.381220 -0.504736
O5    O     O_R   0.499990 0.680320 0.618770 -0.500555
O6    O     O_R   0.500000 0.680360 0.381190 -0.485002
O7    O     O_R   0.629740 0.500010 0.618780 -0.474227
O8    O     O_R   0.629750 0.500050 0.381200 -0.479330

loop_
_geom_bond_atom_site_label_1
_geom_bond_atom_site_label_2
_ccdc_geom_bond_type
H8    N6    S    
C19   C20   S    
C16   O6    A    
C17   H12   S    
C4    O4    A    
C7    C8    A    
C14   H10   S    
C15   C19   A    
C26   C27   A    
C12   C28   A    
C23   C29   A    
C30   C31   A    
C19   N2    A    
C1    O2    A    
C20   H14   S    
C17   N1    A    
Cu1   Cu2   S    
C8    C9    A    
C22   C25   S    
H6    N5    S    
C5    H16   S    
C23   C27   A    
C9    C10   A    
H5    N4    S    
C5    C32   A    
Cu1   O5    S    
C33   I6    S    
C13   C14   S    
C16   O5    A    
C4    O3    A    
Cu2   O4    S    
C24   H1    S    
C20   N5    S    
C24   C25   A    
C6    C11   A    
C21   I2    S    
C18   N2    A    
C3    C5    A    
C25   C26   A    
H9    N6    S    
C29   C30   A    
C6    C14   S    
C31   C32   A    
C13   N3    S    
Cu1   O1    S    
H7    N5    S    
C17   C18   A    
C15   N1    A    
C29   I5    S    
C6    C7    A    
Cu2   O8    S    
C22   O8    A    
C12   C34   A    
Cu2   N1    S    
C21   H15   S    
H2    N3    S    
C23   I4    S    
Cu1   O7    S    
C1    C7    S    
C28   C31   A    
C2    N6    S    
C26   I3    S    
Cu2   O2    S    
C14   H11   S    
H3    N3    S    
C12   C24   A    
H4    N4    S    
C2    C30   A    
C32   C33   A    
C2    C3    A    
C10   C16   S    
C8    I7    S    
C11   C13   S    
C13   N4    S    
C1    O1    A    
C33   C34   A    
Cu1   N2    S    
C10   C11   A    
Cu2   O6    S    
C15   C21   S    
C20   C21   S    
Cu1   O3    S    
C34   H17   S    
C27   C28   A    
C9    I1    S    
C22   O7    A    
C3    C4    S    
C18   H13   S    
