data_mof_unit_12007.cif
_audit_creation_date              2013-03-05T15:45:43-0500
_audit_creation_method            fapswitch 2.2
_symmetry_space_group_name_H-M    P1
_symmetry_Int_Tables_number       1
_space_group_crystal_system       triclinic
_cell_length_a                    6.948708
_cell_length_b                    16.672725
_cell_length_c                    16.983564
_cell_angle_alpha                 101.020372
_cell_angle_beta                  89.658804
_cell_angle_gamma                 90.83644
_cell_volume                      1931.11205999

loop_
_atom_site_label
_atom_site_type_symbol
_atom_site_description
_atom_site_fract_x
_atom_site_fract_y
_atom_site_fract_z
_atom_type_partial_charge
O1    O     O_R   0.506340 0.439070 0.579550 -0.537871
O2    O     O_R   0.170010 0.404890 0.412100 -0.610068
O3    O     O_R   0.005010 0.560930 0.420450 -0.598261
C1    C     C_R   0.339809 0.381663 0.383628 0.949533
O4    O     O_R   0.176280 0.429360 0.578400 -0.588280
O5    O     O_R   0.011320 0.585570 0.587940 -0.608914
C2    C     C_R   0.343417 0.412721 0.604336 1.046148
O6    O     O_R   0.500030 0.414430 0.412060 -0.605586
O7    O     O_3   0.340950 0.551220 0.502940 -0.285724
V1    V     V_3+5 0.064020 0.490500 0.499460 1.193427
O8    O     O_R   0.681910 0.595110 0.587900 -0.576114
C3    C     C_R   0.851291 0.617770 0.616905 1.006461
O9    O     O_R   0.675640 0.570640 0.421600 -0.601847
C4    C     C_R   0.844871 0.585111 0.394223 0.911760
V2    V     V_3+5 0.564670 0.509500 0.500540 1.211511
O10   O     O_3   0.837610 0.448780 0.497060 -0.251172
C5    C     C_R   0.909841 0.863710 0.168497 -0.293998
C6    C     C_R   0.855687 0.634820 0.330352 -0.192735
C7    C     C_R   0.855137 0.643747 0.187935 0.010220
C8    C     C_R   0.844117 0.596607 0.248778 -0.040828
C9    C     C_R   0.874648 0.720725 0.350761 -0.041580
C10   C     C_R   0.884784 0.768162 0.289957 0.100951
C11   C     C_R   0.876098 0.729706 0.208151 0.151268
C12   C     C_R   0.888007 0.778224 0.148200 -0.269851
C13   C     C_R   0.918643 0.901638 0.250198 0.367692
C14   C     C_R   0.904116 0.853812 0.309690 -0.259891
H1    H     H_    0.880872 0.749933 0.085275 0.150589
H2    H     H_    0.912186 0.884271 0.371918 0.183374
C15   C     C_3   0.707024 0.780556 0.773665 -0.248864
C16   C     C_3   0.807455 0.776281 0.691340 0.008096
H3    H     H_    0.565794 0.808564 0.791553 0.136483
C17   C     C_3   0.864822 0.686656 0.688383 -0.282498
C18   C     C_3   0.770461 0.691459 0.771794 0.409045
C19   C     C_3   0.961020 0.721167 0.815452 -0.266338
C20   C     C_3   0.053960 0.718140 0.731736 0.006092
C21   C     C_3   0.996995 0.806771 0.732869 0.054412
C22   C     C_3   0.900995 0.810701 0.815187 -0.154836
H4    H     H_    0.024781 0.697540 0.866152 0.158116
C23   C     C_3   0.549743 0.268937 0.284884 0.067733
C24   C     C_3   0.453014 0.183410 0.274472 -0.072506
H5    H     H_    0.512254 0.130015 0.295991 0.165170
C25   C     C_3   0.409144 0.189220 0.185888 -0.166574
C26   C     C_3   0.511269 0.274183 0.196298 -0.234788
C27   C     C_3   0.317536 0.315001 0.224836 0.027791
C28   C     C_3   0.216375 0.231287 0.213199 0.058077
C29   C     C_3   0.260122 0.226748 0.300804 0.032517
C30   C     C_3   0.358231 0.311689 0.313317 -0.215883
H6    H     H_    0.614679 0.295312 0.154319 0.123613
C31   C     C_R   0.426125 0.137300 0.832056 -0.120312
C32   C     C_R   0.342641 0.358683 0.664825 -0.290344
C33   C     C_R   0.174452 0.313467 0.775598 -0.177642
C34   C     C_R   0.191589 0.366156 0.721152 -0.071454
C35   C     C_R   0.481000 0.297061 0.664497 0.281109
C36   C     C_R   0.464278 0.243544 0.720283 0.030428
C37   C     C_R   0.308550 0.251688 0.775616 0.167912
C38   C     C_R   0.289221 0.198082 0.830406 -0.239563
C39   C     C_R   0.578937 0.129169 0.776640 -0.180108
C40   C     C_R   0.596812 0.180692 0.721057 -0.122163
H7    H     H_    0.171685 0.205364 0.873356 0.127784
H8    H     H_    0.686069 0.082533 0.776411 0.132449
H9    H     H_    0.054943 0.320828 0.817544 0.135724
H10   H     H_    0.716093 0.171018 0.679261 0.174843
H11   H     H_    0.084365 0.412976 0.722639 0.165081
O11   O     O_R   0.266070 0.085680 0.087850 -0.571085
O12   O     O_R   0.590090 0.070660 0.921580 -0.601806
O13   O     O_R   0.754780 0.914400 0.912080 -0.599039
C41   C     C_R   0.423306 0.086218 0.894748 0.916416
O14   O     O_R   0.596110 0.095130 0.087880 -0.601138
O15   O     O_R   0.760850 0.939050 0.079570 -0.591800
C42   C     C_R   0.426476 0.118940 0.115855 0.972931
O16   O     O_R   0.260010 0.061030 0.920360 -0.596849
O17   O     O_3   0.425070 0.948840 0.997010 -0.269126
V3    V     V_3+5 0.702100 0.009490 0.000550 1.175094
O18   O     O_R   0.090200 0.929250 0.078500 -0.566658
C43   C     C_R   0.920494 0.912741 0.104202 1.037230
O19   O     O_R   0.084180 0.904770 0.912200 -0.607078
C44   C     C_R   0.914713 0.881301 0.884279 0.950756
V4    V     V_3+5 0.201420 0.990350 0.999580 1.195502
O20   O     O_3   0.928580 0.051150 0.002990 -0.281224
N1    N     N_3   0.243615 0.685395 0.709472 -0.184128
H12   H     H_    0.336712 0.713161 0.754599 0.131291
H13   H     H_    0.239176 0.623531 0.713085 0.163417
N2    N     N_3   0.122571 0.869740 0.710911 -0.218747
H14   H     H_    0.175067 0.847315 0.653239 0.110146
H15   H     H_    0.241011 0.876342 0.749353 0.105267
N3    N     N_3   0.736073 0.287553 0.323241 -0.227219
H16   H     H_    0.773755 0.347671 0.319720 0.117881
H17   H     H_    0.720223 0.284641 0.383801 0.184415
N4    N     N_3   0.240185 0.385466 0.197364 -0.226501
H18   H     H_    0.233474 0.370876 0.134800 0.112179
H19   H     H_    0.340542 0.433219 0.211872 0.095551
N5    N     N_3   0.033635 0.213979 0.171222 -0.198333
H20   H     H_    0.941820 0.262164 0.192795 0.094151
H21   H     H_    0.972975 0.161349 0.186417 0.175465
N6    N     N_3   0.128512 0.199030 0.357603 -0.158025
H22   H     H_    0.008295 0.172272 0.326114 0.187237
H23   H     H_    0.079282 0.250085 0.397659 0.130719
N7    N     N_R   0.943983 0.988525 0.274027 0.213942
O21   O     O_R   0.864220 0.027061 0.339718 -0.424846
O22   O     O_R   0.067500 0.027378 0.236764 -0.461098
N8    N     N_R   0.630133 0.285731 0.604826 0.231836
O23   O     O_R   0.586217 0.264762 0.529262 -0.430399
O24   O     O_R   0.809301 0.299070 0.625652 -0.410850
N9    N     N_3   0.844586 0.604177 0.105237 -0.205030
H24   H     H_    0.956442 0.562247 0.093497 0.124319
H25   H     H_    0.713979 0.571861 0.096187 0.134126
N10   N     N_3   0.819894 0.509597 0.226476 -0.223661
H26   H     H_    0.691834 0.492778 0.252018 0.098033
H27   H     H_    0.933650 0.481964 0.250604 0.107664
N11   N     N_3   0.880769 0.760397 0.433416 -0.219116
H28   H     H_    0.997068 0.737637 0.460757 0.103852
H29   H     H_    0.753730 0.745280 0.460801 0.109812
N12   N     N_3   0.723573 0.808142 0.625495 -0.214599
H30   H     H_    0.661258 0.864101 0.649969 0.115897
H31   H     H_    0.837261 0.821559 0.589538 0.104008
N13   N     N_R   0.646465 0.629382 0.796377 0.215929
O25   O     O_R   0.571567 0.642550 0.867956 -0.423642
O26   O     O_R   0.615809 0.559641 0.748589 -0.441886

loop_
_geom_bond_atom_site_label_1
_geom_bond_atom_site_label_2
_geom_bond_distance
_ccdc_geom_bond_type
C40   H10   1.081682 S    
C37   C38   1.412695 A    
N8    O23   1.300907 A    
C6    C9    1.412140 A    
C4    C6    1.486658 S    
O2    C1    1.308000 A    
C7    C8    1.413912 A    
C33   H9    1.083836 S    
C12   H1    1.083636 S    
C1    O6    1.287994 A    
N9    H25   1.045601 S    
C9    N11   1.433467 S    
O12   V3    2.000820 S    
C35   C36   1.423435 A    
C24   C29   1.554422 S    
C21   C22   1.535895 S    
O19   V4    2.018126 S    
O5    C3    1.294871 A    
N3    H17   1.044001 S    
C41   O16   1.305048 A    
C21   N2    1.456641 S    
V2    O10   2.158065 S    
C19   C22   1.556626 S    
C15   C18   1.550134 S    
C20   N1    1.453936 S    
C25   C42   1.507244 S    
C31   C39   1.405411 A    
N13   O25   1.300260 A    
C19   C20   1.550386 S    
C28   N5    1.457863 S    
N11   H28   1.045690 S    
O17   V4    1.707364 S    
C36   C37   1.419828 A    
O8    V2    2.018199 S    
C29   N6    1.458780 S    
C20   C21   1.531936 S    
C35   N8    1.434087 S    
O12   C41   1.295506 A    
C32   C34   1.406640 A    
N10   H26   1.045590 S    
O15   V3    1.992514 S    
O1    V2    1.981371 S    
O11   C42   1.289779 A    
N4    H19   1.044862 S    
O7    V1    2.157066 S    
C33   C37   1.399047 A    
C27   C30   1.542219 S    
C8    N10   1.435227 S    
C24   C25   1.558126 S    
N8    O24   1.300628 A    
O1    C2    1.304749 A    
O9    C4    1.298199 A    
C3    C17   1.505584 S    
N10   H27   1.044832 S    
N9    H24   1.045622 S    
C32   C35   1.416522 A    
O18   C43   1.298939 A    
C33   C34   1.395402 A    
C5    C12   1.407036 A    
C17   C20   1.545496 S    
O19   C44   1.298813 A    
N1    H13   1.044913 S    
C23   C24   1.547087 S    
O4    C2    1.296929 A    
V4    O20   2.158167 S    
N1    H12   1.040055 S    
C39   H8    1.083741 S    
C23   C26   1.548681 S    
O14   V3    1.997257 S    
C28   C29   1.536535 S    
O13   V3    2.001200 S    
C22   C44   1.497187 S    
C25   C28   1.548219 S    
C7    C11   1.414024 A    
C26   C27   1.550214 S    
C15   C16   1.548777 S    
C7    N9    1.434856 S    
N2    H14   1.044968 S    
C11   C12   1.417684 A    
N5    H21   1.043413 S    
C18   C19   1.549383 S    
V3    O20   1.708417 S    
O3    C4    1.298780 A    
C24   H5    1.110151 S    
N2    H15   1.044979 S    
O6    V2    2.012202 S    
N7    O22   1.300320 A    
O9    V2    1.979488 S    
C10   C14   1.407677 A    
C36   C40   1.407129 A    
C25   C26   1.554961 S    
O2    V1    1.997276 S    
C27   C28   1.532585 S    
N3    H16   1.044926 S    
C23   C30   1.549394 S    
N12   H30   1.045045 S    
C26   H6    1.109636 S    
O13   C44   1.294051 A    
C29   C30   1.540772 S    
C18   N13   1.456976 S    
C31   C41   1.485045 S    
C19   H4    1.110071 S    
O11   V4    2.012876 S    
C2    C32   1.490224 S    
O17   V3    2.157098 S    
C34   H11   1.083679 S    
O5    V1    2.001109 S    
O8    C3    1.301332 A    
N6    H23   1.043426 S    
C31   C38   1.404305 A    
C14   H2    1.082883 S    
C38   H7    1.084350 S    
C16   C21   1.531329 S    
C5    C13   1.411875 A    
C17   C18   1.546033 S    
C13   C14   1.404059 A    
O4    V1    2.000800 S    
C15   H3    1.108612 S    
O3    V1    1.992655 S    
V1    O10   1.708395 S    
C16   C17   1.543635 S    
C39   C40   1.396420 A    
N5    H20   1.042274 S    
N13   O26   1.300071 A    
O15   C43   1.299188 A    
C6    C8    1.412140 A    
O7    V2    1.709430 S    
N11   H29   1.045246 S    
C13   N7    1.436179 S    
O14   C42   1.306763 A    
N7    O21   1.301417 A    
O18   V4    1.979456 S    
C15   C22   1.556483 S    
N6    H22   1.042149 S    
C5    C43   1.484816 S    
C10   C11   1.415753 A    
C23   N3    1.455374 S    
N4    H18   1.044913 S    
C9    C10   1.416575 A    
C1    C30   1.507765 S    
O16   V4    1.987531 S    
C27   N4    1.455269 S    
N12   H31   1.043244 S    
C16   N12   1.454774 S    
