data_mof_unit_25267.cif
_audit_creation_date              2013-03-05T15:42:24-0500
_audit_creation_method            fapswitch 2.2
_symmetry_space_group_name_H-M    P1
_symmetry_Int_Tables_number       1
_space_group_crystal_system       triclinic
_cell_length_a                    10.957507
_cell_length_b                    11.016568
_cell_length_c                    18.86002
_cell_angle_alpha                 89.792963
_cell_angle_beta                  89.575066
_cell_angle_gamma                 60.187479
_cell_volume                      1975.31457429

loop_
_atom_site_label
_atom_site_type_symbol
_atom_site_description
_atom_site_fract_x
_atom_site_fract_y
_atom_site_fract_z
_atom_type_partial_charge
O1    O     O_R   0.507340 0.255690 0.581430 -0.503398
O2    O     O_R   0.280360 0.527380 0.578910 -0.528437
C1    C     C_R   0.237775 0.644675 0.610334 0.561010
O3    O     O_R   0.260600 0.739610 0.584580 -0.426208
O4    O     O_R   0.532370 0.695050 0.573830 -0.504977
C2    C     C_R   0.652287 0.618429 0.602529 0.562539
O5    O     O_R   0.744850 0.503430 0.576380 -0.442784
O6    O     O_R   0.699080 0.276500 0.571950 -0.526102
C3    C     C_R   0.631297 0.223695 0.601201 0.539207
O7    O     O_R   0.498860 0.256520 0.419860 -0.465225
O8    O     O_R   0.272490 0.528150 0.429140 -0.488431
C4    C     C_R   0.282772 0.624291 0.392343 0.531451
O9    O     O_R   0.252110 0.740440 0.423010 -0.516459
O10   O     O_R   0.524510 0.695820 0.424050 -0.511323
C5    C     C_R   0.646030 0.620042 0.391820 0.559930
O11   O     O_R   0.736370 0.504260 0.414810 -0.427252
O12   O     O_R   0.691220 0.277270 0.422180 -0.507387
C6    C     C_R   0.619422 0.220799 0.398155 0.559603
Cr1   Cr    Cr6+3 0.392940 0.397950 0.502230 1.089510
Cr2   Cr    Cr6+3 0.398400 0.708500 0.501260 1.096270
Cr3   Cr    Cr6+3 0.708640 0.393530 0.496460 1.098951
O13   O     O_3   0.499990 0.499990 0.499980 -0.313950
C7    C     C_3   0.545418 0.701678 0.800052 0.501187
C8    C     C_3   0.529321 0.685253 0.719389 -0.204087
H1    H     H_    0.493329 0.608825 0.708924 0.123438
H2    H     H_    0.446911 0.787320 0.698059 0.223326
H3    H     H_    0.657120 0.878199 0.784892 0.174218
H4    H     H_    0.628265 0.855428 0.666863 0.130059
C9    C     C_3   0.729820 0.769376 0.768640 -0.258407
C10   C     C_3   0.804289 0.517715 0.789682 -0.221615
C11   C     C_3   0.698849 0.668799 0.813876 0.018528
H5    H     H_    0.914520 0.494040 0.798287 0.193036
H6    H     H_    0.790126 0.440744 0.821543 0.141364
C12   C     C_3   0.669635 0.640710 0.678553 -0.013414
C13   C     C_3   0.711115 0.753946 0.688782 -0.246457
C14   C     C_3   0.785467 0.500622 0.711459 0.230211
H7    H     H_    0.753789 0.419886 0.705544 0.157543
H8    H     H_    0.838785 0.748518 0.778349 0.119440
H9    H     H_    0.810861 0.724939 0.659898 0.182438
H10   H     H_    0.495109 0.135990 0.684090 0.149792
C15   C     C_R   0.694524 0.139840 0.819430 0.043084
C16   C     C_R   0.801627 0.148186 0.780916 0.023429
C17   C     C_R   0.797891 0.148178 0.705373 -0.005146
C18   C     C_R   0.581514 0.139689 0.709413 -0.154727
C19   C     C_R   0.585905 0.136965 0.781604 -0.132782
C20   C     C_R   0.911249 0.157622 0.814441 -0.128221
C21   C     C_R   0.018335 0.158112 0.774676 -0.103427
C22   C     C_R   0.018505 0.149638 0.701188 0.030213
C23   C     C_R   0.912259 0.140145 0.666913 -0.035171
C24   C     C_R   0.679310 0.156992 0.670591 -0.004307
H11   H     H_    0.913894 0.170415 0.870914 0.147718
H12   H     H_    0.506319 0.121992 0.807301 0.166404
H13   H     H_    0.102798 0.161822 0.801412 0.128818
H14   H     H_    0.104142 0.143367 0.669898 0.171341
H15   H     H_    0.923585 0.122248 0.610355 0.155922
C25   C     C_R   0.182057 0.669450 0.835279 0.001211
C26   C     C_R   0.205758 0.546277 0.800815 0.028398
C27   C     C_R   0.199599 0.544022 0.725593 -0.036809
C28   C     C_R   0.186268 0.771644 0.723237 0.317629
C29   C     C_R   0.179380 0.777568 0.795779 -0.049234
C30   C     C_R   0.235205 0.425506 0.839929 -0.049038
C31   C     C_R   0.243773 0.309834 0.806662 -0.149952
C32   C     C_R   0.226669 0.310825 0.733890 -0.092335
C33   C     C_R   0.200907 0.427326 0.693765 -0.019125
C34   C     C_R   0.195197 0.657096 0.685962 -0.016311
H16   H     H_    0.256258 0.417728 0.896203 0.144498
H17   H     H_    0.167451 0.871044 0.820967 0.201873
H18   H     H_    0.267624 0.217715 0.837478 0.125853
H19   H     H_    0.239112 0.218591 0.707957 0.121397
H20   H     H_    0.178881 0.423882 0.638502 0.188048
H21   H     H_    0.567683 0.863247 0.321508 0.180365
C35   C     C_R   0.660714 0.674411 0.170189 0.012422
C36   C     C_R   0.719072 0.539225 0.199138 -0.028112
C37   C     C_R   0.754034 0.521621 0.271527 0.036774
C38   C     C_R   0.617201 0.772666 0.288461 -0.167214
C39   C     C_R   0.619943 0.788946 0.215599 -0.153960
C40   C     C_R   0.763806 0.420612 0.155453 -0.127657
C41   C     C_R   0.868300 0.290505 0.178304 -0.160546
C42   C     C_R   0.925095 0.276425 0.245407 -0.096169
C43   C     C_R   0.869952 0.390020 0.291964 0.384956
C44   C     C_R   0.677647 0.639945 0.317702 0.022311
H22   H     H_    0.727084 0.430513 0.101421 0.149139
H23   H     H_    0.583661 0.892608 0.194478 0.136067
H24   H     H_    0.911407 0.202753 0.142162 0.197758
H25   H     H_    0.014171 0.177426 0.260991 0.164836
H26   H     H_    0.871673 0.073993 0.330657 0.161525
C45   C     C_R   0.674722 0.102679 0.186297 -0.002351
C46   C     C_R   0.540987 0.161867 0.219250 -0.077234
C47   C     C_R   0.536255 0.146647 0.292883 -0.004697
C48   C     C_R   0.781482 0.088977 0.300451 -0.112300
C49   C     C_R   0.795546 0.058035 0.228760 0.326510
C50   C     C_R   0.412736 0.233183 0.181964 -0.104011
C51   C     C_R   0.286834 0.263225 0.214282 -0.191225
C52   C     C_R   0.285209 0.226781 0.284462 -0.133993
C53   C     C_R   0.410252 0.157865 0.323169 0.232075
C54   C     C_R   0.650811 0.140001 0.332525 -0.021545
H27   H     H_    0.406540 0.271062 0.128507 0.164320
H28   H     H_    0.190530 0.311181 0.184050 0.128631
H29   H     H_    0.187745 0.242690 0.306942 0.208265
H30   H     H_    0.139627 0.515498 0.328880 0.186759
C55   C     C_R   0.176602 0.651380 0.175017 0.020518
C56   C     C_R   0.260940 0.706210 0.197156 0.047396
C57   C     C_R   0.272470 0.722255 0.270204 0.028607
C58   C     C_R   0.172378 0.571277 0.293172 -0.123260
C59   C     C_R   0.132202 0.584557 0.223074 -0.137016
C60   C     C_R   0.310766 0.768692 0.147942 -0.070238
C61   C     C_R   0.325236 0.880650 0.168922 -0.090676
C62   C     C_R   0.315435 0.912638 0.240301 -0.120494
C63   C     C_R   0.302106 0.828006 0.290965 -0.082497
C64   C     C_R   0.241541 0.640697 0.318038 0.001176
H31   H     H_    0.320384 0.743470 0.091953 0.134384
H32   H     H_    0.060073 0.549274 0.207352 0.143595
H33   H     H_    0.347901 0.940016 0.130420 0.129130
H34   H     H_    0.334599 0.993264 0.256927 0.124618
H35   H     H_    0.308935 0.854757 0.344784 0.193850
O14   O     O_R   0.089570 0.825450 0.930590 -0.517605
O15   O     O_R   0.818700 0.054260 0.929860 -0.520151
C65   C     C_R   0.703974 0.098822 0.894726 0.549185
O16   O     O_R   0.606310 0.077010 0.915520 -0.523572
O17   O     O_R   0.646730 0.806540 0.917560 -0.439081
C66   C     C_R   0.723128 0.686877 0.888950 0.604824
O18   O     O_R   0.837290 0.593240 0.915240 -0.547422
O19   O     O_R   0.065320 0.635310 0.931580 -0.525522
C67   C     C_R   0.119700 0.705754 0.906361 0.552492
O20   O     O_R   0.068470 0.828620 0.091850 -0.454050
O21   O     O_R   0.799150 0.057200 0.079350 -0.457299
C68   C     C_R   0.694425 0.058620 0.112004 0.579427
O22   O     O_R   0.585220 0.080180 0.076770 -0.550816
O23   O     O_R   0.627170 0.809480 0.067050 -0.515777
C69   C     C_R   0.695581 0.690249 0.097348 0.546859
O24   O     O_R   0.816200 0.596410 0.076500 -0.514193
O25   O     O_R   0.045770 0.638240 0.081070 -0.523233
C70   C     C_R   0.097173 0.706047 0.110648 0.569806
Cr4   Cr    Cr6+3 0.937880 0.938320 0.007620 1.045524
Cr5   Cr    Cr6+3 0.625560 0.937220 0.994510 1.047118
Cr6   Cr    Cr6+3 0.938080 0.625010 0.001190 1.002608
O26   O     O_3   0.833840 0.833520 0.001110 -0.280647
F1    F     F_    0.452236 0.839918 0.818422 -0.635874
F2    F     F_    0.913525 0.454526 0.677081 -0.657020
F3    F     F_    0.191998 0.877278 0.689952 -0.658244
N1    N     N_R   0.510982 0.610710 0.843032 0.078909
O27   O     O_R   0.541401 0.486714 0.821200 -0.429148
O28   O     O_R   0.459425 0.649669 0.906618 -0.314037
F4    F     F_    0.947044 0.375461 0.350580 -0.625353
F5    F     F_    0.927133 0.989796 0.200927 -0.637325
N2    N     N_R   0.409018 0.092269 0.389853 0.073424
O29   O     O_R   0.525485 0.006632 0.422027 -0.355548
O30   O     O_R   0.290694 0.114739 0.417959 -0.335438

loop_
_geom_bond_atom_site_label_1
_geom_bond_atom_site_label_2
_geom_bond_distance
_ccdc_geom_bond_type
O20   Cr4   2.081354 S    
H21   C38   1.067603 S    
C45   C46   1.413560 A    
C51   C52   1.384313 A    
C45   C49   1.414742 A    
H3    C9    1.102373 S    
C6    C54   1.462850 S    
C15   C16   1.416880 A    
C7    F1    1.390789 S    
C49   F5    1.354072 S    
C35   C39   1.402416 A    
Cr4   O26   1.989847 S    
C45   C68   1.463449 S    
C26   C27   1.421684 A    
O19   C67   1.279249 A    
C5    C44   1.479277 S    
O4    Cr2   1.965256 S    
C40   C41   1.386428 A    
C25   C26   1.408794 A    
C22   H14   1.077588 S    
O8    Cr1   1.957004 S    
O21   C68   1.291542 A    
C57   C64   1.424219 A    
C25   C67   1.463764 S    
C14   H7    1.110083 S    
C8    H2    1.110898 S    
N2    O29   1.302736 A    
N1    O28   1.301573 A    
C16   C20   1.410430 A    
C10   C11   1.548857 S    
O14   Cr4   2.083662 S    
C60   C61   1.379085 A    
O20   C70   1.274332 A    
C5    O11   1.241675 A    
H30   C58   1.082884 S    
C62   C63   1.389438 A    
C29   H17   1.082585 S    
C12   C13   1.538435 S    
C36   C37   1.407233 A    
C62   H34   1.058208 S    
C65   O16   1.267103 A    
C61   H33   1.082636 S    
O23   Cr5   1.952984 S    
C30   H16   1.081800 S    
C46   C50   1.414044 A    
H4    C13   1.112651 S    
O25   C70   1.269837 A    
C43   F4    1.356203 S    
C9    H8    1.114473 S    
C61   C62   1.382615 A    
C56   C60   1.412428 A    
C33   H20   1.076623 S    
C15   C65   1.477342 S    
C10   H5    1.114731 S    
C10   H6    1.109050 S    
C21   H13   1.075728 S    
C28   C29   1.369660 A    
C37   C43   1.426879 A    
Cr3   O13   1.984724 S    
C55   C59   1.394587 A    
C1    C34   1.482875 S    
C53   N2    1.451552 S    
O15   Cr4   1.960595 S    
C39   H23   1.080967 S    
C4    C64   1.458441 S    
C58   C59   1.380653 A    
C50   H27   1.079361 S    
O6    Cr3   1.954239 S    
N2    O30   1.301885 A    
C60   H31   1.083842 S    
C27   C33   1.414362 A    
C17   C23   1.407542 A    
O1    Cr1   2.077533 S    
C56   C57   1.404197 A    
C55   C56   1.398502 A    
O10   Cr2   1.956827 S    
Cr1   O13   1.987824 S    
O1    C3    1.280109 A    
C8    H1    1.111743 S    
C11   C66   1.474973 S    
O24   Cr6   2.070567 S    
H26   C48   1.083475 S    
O22   Cr5   2.097136 S    
C41   C42   1.388265 A    
O6    C3    1.271076 A    
C19   H12   1.076466 S    
C23   H15   1.080408 S    
C20   H11   1.077363 S    
C8    C12   1.559748 S    
C2    C12   1.485000 S    
C7    C11   1.557560 S    
C47   C53   1.437691 A    
C13   H9    1.112922 S    
C38   C39   1.387229 A    
C31   C32   1.385875 A    
C27   C34   1.430655 A    
C21   C22   1.389385 A    
O7    Cr1   2.093006 S    
O25   Cr6   1.970356 S    
C48   C54   1.386123 A    
O12   C6    1.305852 A    
C52   C53   1.401126 A    
C17   C24   1.419434 A    
C15   C19   1.405973 A    
C4    O9    1.288282 A    
C26   C30   1.409984 A    
O18   Cr6   2.094018 S    
C66   O18   1.263803 A    
C22   C23   1.384513 A    
C59   H32   1.083256 S    
Cr2   O13   1.993418 S    
C42   C43   1.396556 A    
C16   C17   1.425630 A    
C37   C44   1.438984 A    
C1    O3    1.283325 A    
C42   H25   1.082584 S    
C18   C19   1.362420 A    
O23   C69   1.278931 A    
C18   C24   1.382472 A    
Cr5   O26   1.984919 S    
C20   C21   1.390162 A    
C28   F3    1.348724 S    
O14   C67   1.275087 A    
O9    Cr2   2.083700 S    
O2    Cr1   1.971242 S    
O10   C5    1.313709 A    
C38   C44   1.384666 A    
C3    C24   1.465709 S    
C35   C36   1.406175 A    
O8    C4    1.314649 A    
O11   Cr3   2.073593 S    
C35   C69   1.456176 S    
C2    O5    1.263486 A    
C55   C70   1.443318 S    
C9    C13   1.542841 S    
C10   C14   1.516437 S    
O19   Cr6   1.951769 S    
C57   C63   1.413291 A    
O17   Cr5   1.977535 S    
C52   H29   1.076442 S    
C47   C54   1.436023 A    
C69   O24   1.267603 A    
C32   H19   1.074766 S    
C9    C11   1.559961 S    
O5    Cr3   2.096405 S    
O15   C65   1.287164 A    
C28   C34   1.406724 A    
C58   C64   1.401188 A    
C48   C49   1.384241 A    
O4    C2    1.279231 A    
C40   H22   1.083470 S    
O7    C6    1.242523 A    
C50   C51   1.385370 A    
O2    C1    1.280868 A    
C12   C14   1.560427 S    
C31   H18   1.081785 S    
C30   C31   1.382843 A    
C14   F2    1.388378 S    
O16   Cr5   2.073780 S    
C63   H35   1.071426 S    
C7    C8    1.554322 S    
C32   C33   1.391222 A    
O3    Cr2   2.078673 S    
C41   H24   1.080865 S    
H10   C18   1.082294 S    
C25   C29   1.390578 A    
C46   C47   1.401859 A    
O21   Cr4   1.964405 S    
C7    N1    1.472879 S    
C36   C40   1.411188 A    
O17   C66   1.277072 A    
Cr6   O26   1.993064 S    
N1    O27   1.302269 A    
C51   H28   1.081757 S    
C68   O22   1.287611 A    
O12   Cr3   1.974703 S    
