data_mof_unit_25436.cif
_audit_creation_date              2012-12-10T17:06:39-0500
_audit_creation_method            fapswitch 2.2
_symmetry_space_group_name_H-M    P1
_symmetry_Int_Tables_number       1
_space_group_crystal_system       triclinic
_cell_length_a                    15.838643
_cell_length_b                    11.025037
_cell_length_c                    9.855305
_cell_angle_alpha                 111.760968
_cell_angle_beta                  97.072949
_cell_angle_gamma                 90.882543
_cell_volume                      1582.66552004

loop_
_atom_site_label
_atom_site_type_symbol
_atom_type_description
_atom_site_fract_x
_atom_site_fract_y
_atom_site_fract_z
_atom_type_partial_charge
C1    C     C_R   0.494009 0.253904 0.440196 0.860221
C2    C     C_R   0.506200 0.746105 0.559812 0.860480
C3    C     C_2   0.502567 0.069821 0.516173 -0.144979
C4    C     C_2   0.499499 0.930383 0.484048 -0.143935
C5    C     C_2   0.516419 0.482241 0.066849 0.430404
C6    C     C_2   0.484725 0.512414 0.931100 0.405026
C7    C     C_R   0.340118 0.500686 0.502478 0.827079
C8    C     C_R   0.659864 0.499793 0.497637 0.820386
C9    C     C_3   0.975081 0.422836 0.567746 -0.317552
C10   C     C_3   0.025345 0.583329 0.437047 -0.232299
C11   C     C_3   0.022162 0.383710 0.431323 0.545592
C12   C     C_3   0.977764 0.622167 0.572941 0.542396
C13   C     C_1   0.250880 0.502907 0.507754 -0.175569
C14   C     C_1   0.749093 0.499205 0.492800 -0.181727
C15   C     C_3   0.037614 0.546943 0.644880 -0.323827
C16   C     C_3   0.963228 0.459464 0.359086 -0.307882
C17   C     C_3   0.083595 0.505223 0.507164 0.082027
C18   C     C_3   0.916524 0.500576 0.496275 0.039503
C19   C     C_1   0.175409 0.504419 0.509048 0.008006
C20   C     C_1   0.824612 0.499339 0.492387 -0.029493
C21   C     C_2   0.490892 0.113876 0.406565 -0.350245
C22   C     C_2   0.509829 0.886171 0.593581 -0.356707
Cu1   Cu    Cu3+1 0.514700 0.521810 0.644910 0.951138
Cu2   Cu    Cu3+1 0.485300 0.478190 0.355090 0.962563
H1    H     H_    0.953261 0.356380 0.619682 0.152674
H2    H     H_    0.047167 0.650987 0.386592 0.155335
H3    H     H_    0.932123 0.422887 0.242715 0.147956
H4    H     H_    0.069529 0.583362 0.760746 0.145766
H5    H     H_    0.488566 0.863459 0.369297 0.183194
H6    H     H_    0.514405 0.136868 0.630924 0.180058
H7    H     H_    0.520849 0.953409 0.708199 0.148986
H8    H     H_    0.479049 0.046528 0.292034 0.146523
H9    H     H_    0.599689 0.573551 0.909645 0.184056
H10   H     H_    0.400114 0.429854 0.091525 0.199262
N1    N     N_2   0.463210 0.445420 0.137360 -0.324343
N2    N     N_2   0.536790 0.554580 0.862640 -0.337599
O1    O     O_R   0.507840 0.332340 0.577400 -0.567917
O2    O     O_R   0.492160 0.667660 0.422600 -0.573771
O3    O     O_R   0.483020 0.295500 0.332650 -0.584861
O4    O     O_R   0.516980 0.704500 0.667350 -0.585089
O5    O     O_R   0.391490 0.518400 0.622350 -0.543794
O6    O     O_R   0.608510 0.481600 0.377650 -0.521374
O7    O     O_R   0.366660 0.481570 0.377600 -0.581921
O8    O     O_R   0.633340 0.518430 0.622400 -0.590148
O9    O     O_3   0.052130 0.259630 0.357836 -0.571544
C23   C     C_3   0.982703 0.165132 0.300501 0.072852
H11   H     H_    0.936586 0.188531 0.220264 0.136227
H12   H     H_    0.949348 0.158217 0.390673 0.143979
C24   C     C_3   0.015642 0.032066 0.220264 -0.775775
H13   H     H_    0.062785 0.006372 0.296845 0.256240
H14   H     H_    0.961884 0.956067 0.178252 0.193023
H15   H     H_    0.046518 0.033934 0.125722 0.248912
O10   O     O_3   0.952266 0.750670 0.639443 -0.575180
C25   C     C_3   0.927916 0.769096 0.778383 0.069266
H16   H     H_    0.985289 0.777483 0.859528 0.140524
H17   H     H_    0.883417 0.687651 0.772876 0.144771
C26   C     C_3   0.882583 0.895455 0.832707 -0.782095
H18   H     H_    0.825567 0.890590 0.752539 0.255804
H19   H     H_    0.861737 0.910084 0.940886 0.194897
H20   H     H_    0.926287 0.979990 0.845754 0.249914
O11   O     O_3   0.398011 0.494884 0.881188 -0.603542
C27   C     C_3   0.362296 0.618775 0.921580 0.095050
H21   H     H_    0.301573 0.606574 0.846775 0.175307
H22   H     H_    0.403370 0.694198 0.905497 0.153811
C28   C     C_3   0.341473 0.668038 0.080410 -0.438015
H23   H     H_    0.298258 0.593982 0.093549 0.234687
H24   H     H_    0.400971 0.683754 0.158722 0.221357
C29   C     C_3   0.298455 0.797202 0.119101 -0.893291
H25   H     H_    0.341070 0.873544 0.109079 0.252652
H26   H     H_    0.284604 0.830393 0.234625 0.266456
H27   H     H_    0.237524 0.784600 0.044712 0.254118
O12   O     O_3   0.602730 0.497795 0.119541 -0.591896
C30   C     C_3   0.645349 0.393310 0.026203 0.019320
H28   H     H_    0.712020 0.430193 0.032858 0.161308
H29   H     H_    0.617653 0.358725 0.907422 0.117745
C31   C     C_3   0.647759 0.277224 0.076547 -0.294719
H30   H     H_    0.684653 0.307669 0.188465 0.225874
H31   H     H_    0.581870 0.243969 0.080615 0.226389
C32   C     C_3   0.689843 0.162733 0.971846 -0.966010
H32   H     H_    0.653492 0.127994 0.858998 0.259629
H33   H     H_    0.690980 0.080603 0.011446 0.259621
H34   H     H_    0.756488 0.192736 0.967777 0.258736

loop_
_geom_bond_atom_site_label_1
_geom_bond_atom_site_label_2
_ccdc_geom_bond_type
C1    C21   S    
Cu2   O6    S    
C30   H28   S    
C31   C32   S    
H9    N2    S    
C15   H4    S    
C9    H1    S    
O9    C23   S    
C23   C24   S    
C6    O11   S    
C8    O6    A    
C5    O12   S    
C5    C6    S    
C26   H19   S    
C10   C17   S    
Cu1   O4    S    
Cu2   O3    S    
H10   N1    S    
C27   H22   S    
C25   H16   S    
C29   H25   S    
C28   H24   S    
C2    C22   S    
Cu2   O2    S    
Cu1   Cu2   S    
C7    O7    A    
C4    H5    S    
C1    O1    A    
C10   H2    S    
C16   H3    S    
C30   H29   S    
C23   H12   S    
C21   H8    S    
C25   H17   S    
Cu2   N1    S    
C22   H7    S    
C13   C19   T    
C14   C20   T    
C31   H30   S    
C32   H33   S    
C26   H20   S    
C24   H14   S    
O10   C25   S    
Cu1   O8    S    
C3    H6    S    
C27   H21   S    
Cu1   O1    S    
C4    C22   D    
C11   C16   S    
C2    O2    A    
C12   C15   S    
C28   C29   S    
C9    C11   S    
C8    O8    A    
C10   C12   S    
C29   H26   S    
Cu1   N2    S    
C30   C31   S    
C11   O9    S    
C3    C4    S    
C15   C17   S    
C23   H11   S    
C11   C17   S    
C8    C14   S    
C27   C28   S    
C12   O10   S    
C24   H15   S    
C31   H31   S    
O12   C30   S    
C32   H34   S    
Cu1   O5    S    
C9    C15   S    
C28   H23   S    
C10   C16   S    
C26   H18   S    
C29   H27   S    
C5    N1    D    
C17   C19   S    
C6    N2    D    
C18   C20   S    
C7    O5    A    
O11   C27   S    
C3    C21   D    
C1    O3    A    
C32   H32   S    
C2    O4    A    
C9    C18   S    
C7    C13   S    
C16   C18   S    
C24   H13   S    
C12   C18   S    
Cu2   O7    S    
C25   C26   S    
