data_mof_unit_22130.cif
_audit_creation_date              2012-10-26T20:03:43-0400
_audit_creation_method            fapswitch 2.2
_symmetry_space_group_name_H-M    P1
_symmetry_Int_Tables_number       1
_space_group_crystal_system       triclinic
_cell_length_a                    12.323218
_cell_length_b                    13.155189
_cell_length_c                    15.852443
_cell_angle_alpha                 77.583281
_cell_angle_beta                  101.157547
_cell_angle_gamma                 116.289623
_cell_volume                      2235.98168706

loop_
_atom_site_label
_atom_site_type_symbol
_atom_type_description
_atom_site_fract_x
_atom_site_fract_y
_atom_site_fract_z
_atom_type_partial_charge
C1    C     C_R   0.854984 0.286445 0.504008 0.529192
C2    C     C_R   0.226887 0.836853 0.482000 -0.016036
C3    C     C_R   0.817276 0.077244 0.528550 -0.022610
C4    C     C_R   0.999481 0.499684 0.659955 0.541163
C5    C     C_R   0.736473 0.962363 0.541020 -0.147046
C6    C     C_R   0.611994 0.929988 0.525902 -0.133536
C7    C     C_R   0.563478 0.011351 0.489986 0.038405
C8    C     C_R   0.645271 0.128015 0.471157 0.013336
C9    C     C_R   0.435783 0.980888 0.475118 -0.002678
C10   C     C_R   0.391632 0.067086 0.448829 0.026438
C11   C     C_R   0.473063 0.178156 0.419208 -0.142867
C12   C     C_3   0.997464 0.497826 0.916858 0.061190
C13   C     C_R   0.596211 0.205502 0.424692 -0.123229
C14   C     C_R   0.350890 0.866814 0.484430 -0.183591
C15   C     C_R   0.184986 0.923432 0.471181 0.155427
C16   C     C_R   0.144860 0.713831 0.489874 0.552756
C17   C     C_R   0.772666 0.163126 0.498945 -0.022712
C18   C     C_R   0.347241 0.328831 0.638507 -0.138768
C19   C     C_R   0.760267 0.646884 0.384048 0.056151
C20   C     C_R   0.664020 0.679167 0.358684 -0.163705
C21   C     C_R   0.559988 0.623305 0.401914 -0.141043
C22   C     C_R   0.551167 0.534192 0.471792 -0.008411
C23   C     C_3   0.115924 0.552579 0.036186 -0.040867
C24   C     C_R   0.652747 0.504654 0.495880 0.174418
C25   C     C_R   0.446556 0.474348 0.519249 -0.019615
C26   C     C_R   0.446508 0.387341 0.589769 0.024843
C27   C     C_R   0.546045 0.359938 0.612090 -0.174686
C28   C     C_R   0.000446 0.500212 0.340050 0.543618
C29   C     C_R   0.646938 0.417625 0.566595 -0.096897
C30   C     C_R   0.341387 0.496931 0.500513 0.037188
C31   C     C_R   0.247978 0.356520 0.617662 0.074827
C32   C     C_3   0.948560 0.389265 0.041134 -0.108847
C33   C     C_3   0.882674 0.445096 0.964925 -0.156970
C34   C     C_3   0.999988 0.499287 0.083387 0.003188
C35   C     C_1   0.998458 0.499044 0.749568 -0.034027
C36   C     C_1   0.000775 0.499881 0.250507 -0.036880
C37   C     C_3   0.062271 0.444048 0.992253 0.161801
C38   C     C_1   0.945248 0.102463 0.547543 0.206067
C39   C     C_3   0.145842 0.809415 0.968971 -0.312372
C40   C     C_3   0.189233 0.343105 0.060004 -0.314329
C41   C     C_3   0.041041 0.864303 0.575269 -0.260601
C42   C     C_3   0.175559 0.151006 0.344901 -0.317276
C43   C     C_3   0.047122 0.604511 0.961131 0.161455
C44   C     C_3   0.932980 0.554610 0.009083 -0.107032
C45   C     C_1   0.997854 0.498370 0.825135 -0.046559
C46   C     C_1   0.000572 0.499616 0.174987 -0.070036
C47   C     C_R   0.266433 0.039006 0.449209 0.146159
Cu1   Cu    Cu3+1 0.098270 0.475420 0.519690 0.944582
Cu2   Cu    Cu3+1 0.901730 0.524580 0.480310 0.915604
H1    H     H_    0.787802 0.401355 0.934794 0.109801
H2    H     H_    0.840655 0.690780 0.350134 0.134439
H3    H     H_    0.909256 0.300069 0.075525 0.105832
H4    H     H_    0.488443 0.652022 0.379650 0.096715
H5    H     H_    0.670094 0.747776 0.305332 0.099935
H6    H     H_    0.718994 0.391483 0.590024 0.185971
H7    H     H_    0.880846 0.601804 0.017023 0.108296
H8    H     H_    0.211150 0.596487 0.065639 0.098076
H9    H     H_    0.442462 0.244328 0.389191 0.117539
H10   H     H_    0.042955 0.733880 0.860679 0.247099
H11   H     H_    0.188638 0.894070 0.928541 0.140831
H12   H     H_    0.379664 0.799123 0.490863 0.132403
H13   H     H_    0.216233 0.798090 0.020686 0.151689
H14   H     H_    0.070931 0.808273 0.999052 0.132437
H15   H     H_    0.082150 0.321449 0.940956 0.247908
H16   H     H_    0.244004 0.303150 0.044094 0.139994
H17   H     H_    0.119946 0.278125 0.102165 0.128874
H18   H     H_    0.251400 0.415627 0.095661 0.152453
H19   H     H_    0.026282 0.950362 0.450811 0.275995
H20   H     H_    0.098150 0.938139 0.610839 0.161641
H21   H     H_    0.062496 0.790448 0.606926 0.158618
H22   H     H_    0.943592 0.839666 0.579921 0.134511
H23   H     H_    0.556697 0.840265 0.544408 0.110554
H24   H     H_    0.280091 0.198741 0.461620 0.265908
H25   H     H_    0.135429 0.212889 0.340841 0.157678
H26   H     H_    0.103293 0.071763 0.321499 0.144587
H27   H     H_    0.249425 0.189150 0.301911 0.126002
H28   H     H_    0.769910 0.896783 0.565997 0.113347
H29   H     H_    0.651004 0.288118 0.390969 0.158140
H30   H     H_    0.171486 0.312374 0.655513 0.137976
H31   H     H_    0.546585 0.293584 0.666086 0.110801
H32   H     H_    0.346781 0.262567 0.692765 0.095920
H33   H     H_    0.333020 0.560794 0.447644 0.115894
N1    N     N_R   0.246280 0.438200 0.549540 -0.231348
N2    N     N_R   0.754330 0.561180 0.450980 -0.236723
N3    N     N_1   0.047737 0.122412 0.562543 -0.317962
N4    N     N_2   0.098769 0.719987 0.915025 -0.512994
N5    N     N_2   0.130589 0.383544 0.980627 -0.510568
N6    N     N_2   0.062901 0.894614 0.484760 -0.487185
N7    N     N_2   0.223019 0.126171 0.433995 -0.501998
O1    O     O_R   0.972510 0.318130 0.524770 -0.479271
O2    O     O_R   0.806530 0.359650 0.491510 -0.534935
O3    O     O_R   0.082970 0.479240 0.637550 -0.492263
O4    O     O_R   0.916990 0.520750 0.604290 -0.519900
O5    O     O_R   0.193470 0.640350 0.508490 -0.517546
O6    O     O_R   0.027490 0.681870 0.475230 -0.470817
O7    O     O_R   0.083010 0.479250 0.395710 -0.500442
O8    O     O_R   0.917030 0.520760 0.362450 -0.508495

loop_
_geom_bond_atom_site_label_1
_geom_bond_atom_site_label_2
_ccdc_geom_bond_type
C28   O8    A    
C1    O1    A    
C27   C29   A    
C19   C20   A    
C18   C26   A    
C15   C47   A    
C43   C44   S    
C31   N1    A    
C7    C8    A    
C6    H23   S    
C42   H26   S    
C8    C13   A    
Cu1   O5    S    
C40   N5    S    
C12   C43   S    
C5    C6    A    
C12   C37   S    
C18   H32   S    
C23   C43   S    
C7    C9    A    
C30   N1    A    
C41   N6    S    
C24   C29   A    
C32   H3    S    
C3    C38   S    
C22   C25   A    
C36   C46   T    
C34   C46   S    
C11   H9    S    
C2    C16   S    
C9    C10   A    
H15   N5    S    
C41   H22   S    
C4    C35   S    
C1    O2    A    
C40   H17   S    
C21   C22   A    
C47   N7    S    
C1    C17   S    
Cu2   O2    S    
C42   H25   S    
C38   N3    T    
C34   C44   S    
C20   H5    S    
C27   H31   S    
C29   H6    S    
C25   C26   A    
C23   C37   S    
C14   H12   S    
C40   H18   S    
C32   C34   S    
C30   H33   S    
C9    C14   A    
C44   H7    S    
C23   C34   S    
C26   C27   A    
C32   C37   S    
Cu2   O6    S    
C2    C15   A    
Cu1   Cu2   S    
C40   H16   S    
H19   N6    S    
C22   C24   A    
C5    H28   S    
C19   N2    A    
C35   C45   T    
Cu2   N2    S    
C41   H20   S    
C25   C30   A    
C23   H8    S    
C39   H13   S    
C13   H29   S    
C16   O6    A    
Cu1   O7    S    
C33   C44   S    
C16   O5    A    
C37   N5    S    
C12   C45   S    
C3    C5    A    
C31   H30   S    
C6    C7    A    
C39   H14   S    
C42   H27   S    
C8    C17   A    
Cu1   N1    S    
C28   O7    A    
C42   N7    S    
C32   C33   S    
C33   H1    S    
H10   N4    S    
H24   N7    S    
C21   H4    S    
C11   C13   A    
C39   H11   S    
C3    C17   A    
C24   N2    A    
C2    C14   A    
C43   N4    S    
C10   C11   A    
Cu2   O8    S    
C4    O4    A    
C19   H2    S    
C20   C21   A    
C28   C36   S    
Cu1   O3    S    
C10   C47   A    
C41   H21   S    
Cu1   O1    S    
C18   C31   A    
C39   N4    S    
Cu2   O4    S    
C12   C33   S    
C15   N6    S    
C4    O3    A    
