data_mof_unit_30227.cif
_audit_creation_date              2012-12-10T19:06:27-0500
_audit_creation_method            fapswitch 2.2
_symmetry_space_group_name_H-M    P1
_symmetry_Int_Tables_number       1
_space_group_crystal_system       triclinic
_cell_length_a                    23.568414
_cell_length_b                    10.796474
_cell_length_c                    9.530197
_cell_angle_alpha                 89.57962
_cell_angle_beta                  90.174624
_cell_angle_gamma                 89.849764
_cell_volume                      2424.92859286

loop_
_atom_site_label
_atom_site_type_symbol
_atom_type_description
_atom_site_fract_x
_atom_site_fract_y
_atom_site_fract_z
_atom_type_partial_charge
C1    C     C_R   0.500411 0.262362 0.500318 0.772398
C2    C     C_R   0.969759 0.289872 0.428866 -0.187780
C3    C     C_R   0.028685 0.286308 0.436584 -0.169290
C4    C     C_R   0.058864 0.387880 0.489031 -0.001462
C5    C     C_R   0.029127 0.492571 0.537283 -0.022821
C6    C     C_R   0.059334 0.596487 0.582931 -0.041153
C7    C     C_R   0.029734 0.699615 0.633008 -0.194408
C8    C     C_R   0.970192 0.701212 0.640982 0.081425
C9    C     C_R   0.118333 0.387772 0.492893 0.524421
C10   C     C_R   0.118857 0.596467 0.573551 0.540302
C11   C     C_R   0.241810 0.533846 0.633585 -0.116424
C12   C     C_R   0.390903 0.496311 0.499842 0.787291
C13   C     C_R   0.300618 0.536864 0.622511 -0.278877
C14   C     C_R   0.328169 0.493027 0.501801 -0.069331
C15   C     C_R   0.294835 0.446729 0.389298 0.052666
C16   C     C_R   0.235521 0.453832 0.398134 -0.137315
C17   C     C_R   0.208592 0.494145 0.520643 0.314734
C18   C     C_R   0.757943 0.392201 0.600707 0.124278
C19   C     C_R   0.697871 0.391597 0.580180 0.001955
C20   C     C_R   0.671350 0.492640 0.506711 -0.116162
C21   C     C_R   0.704394 0.592939 0.455956 0.020411
C22   C     C_R   0.763238 0.586186 0.469019 -0.157635
C23   C     C_R   0.500655 0.737611 0.499669 0.796706
C24   C     C_R   0.790227 0.487565 0.536797 0.288126
C25   C     C_R   0.494236 0.062302 0.624344 0.063743
C26   C     C_R   0.504230 0.129176 0.501049 -0.095746
C27   C     C_R   0.520398 0.065448 0.379382 -0.215589
C28   C     C_R   0.520233 0.936451 0.378743 -0.227609
C29   C     C_R   0.504887 0.870666 0.500329 -0.082512
C30   C     C_R   0.495568 0.935026 0.624433 0.089155
C31   C     C_3   0.447494 0.924608 0.725550 -0.466586
C32   C     C_3   0.445514 0.065832 0.725665 -0.118512
C33   C     C_R   0.517558 0.601916 0.072847 0.252018
C34   C     C_R   0.608893 0.499785 0.500866 0.792147
C35   C     C_R   0.478020 0.403744 0.075009 -0.077828
C36   C     C_R   0.477863 0.403927 0.926161 -0.082586
C37   C     C_R   0.517458 0.602092 0.925253 0.258813
C38   C     C_3   0.574686 0.659787 0.918421 -0.500498
C39   C     C_3   0.575159 0.657437 0.077421 -0.509528
C40   C     C_R   0.879125 0.584381 0.603811 0.491001
C41   C     C_R   0.880583 0.396896 0.472544 0.517581
C42   C     C_R   0.939699 0.392491 0.479828 0.002033
C43   C     C_R   0.969210 0.493362 0.538347 -0.040707
C44   C     C_R   0.939019 0.595032 0.595367 -0.037410
Cu1   Cu    Cu3+1 0.500000 0.499980 0.640670 0.924554
Cu2   Cu    Cu3+1 0.500000 0.500020 0.359330 0.928002
H1    H     H_    0.529890 0.888874 0.282281 0.147969
H2    H     H_    0.461413 0.884466 0.827795 0.175562
H3    H     H_    0.458104 0.105851 0.828284 0.144518
H4    H     H_    0.050514 0.204993 0.398124 0.186367
H5    H     H_    0.460384 0.325742 0.871052 0.135590
H6    H     H_    0.607271 0.598317 0.871547 0.211145
H7    H     H_    0.606821 0.591803 0.122277 0.219966
H8    H     H_    0.574575 0.751050 0.123892 0.192136
H9    H     H_    0.053284 0.780576 0.665657 0.185304
H10   H     H_    0.222148 0.563359 0.730307 0.165564
H11   H     H_    0.324701 0.573289 0.709745 0.165295
H12   H     H_    0.209938 0.423502 0.310232 0.158462
N1    N     N_R   0.851430 0.487839 0.540726 -0.447370
N2    N     N_R   0.147432 0.492535 0.530407 -0.456958
N3    N     N_R   0.500360 0.500930 0.147930 -0.182588
N4    N     N_R   0.500360 0.500890 0.852020 -0.182201
O1    O     O_R   0.500000 0.319640 0.618810 -0.592593
O2    O     O_2   0.852275 0.310839 0.397966 -0.577988
O3    O     O_2   0.146775 0.283317 0.459978 -0.558534
O4    O     O_2   0.147739 0.700474 0.604915 -0.551722
O5    O     O_R   0.500010 0.319680 0.381230 -0.590851
O6    O     O_R   0.417880 0.499940 0.618820 -0.583619
O7    O     O_R   0.417880 0.499980 0.381240 -0.578987
O8    O     O_R   0.499990 0.680320 0.618770 -0.576062
O9    O     O_R   0.500000 0.680360 0.381190 -0.584615
O10   O     O_R   0.582120 0.500020 0.618760 -0.578905
O11   O     O_R   0.582120 0.500060 0.381180 -0.574978
O12   O     O_2   0.848333 0.667568 0.675818 -0.575010
H13   H     H_    0.947791 0.210965 0.385140 0.182131
C45   C     C_3   0.661978 0.283158 0.633697 -0.372820
C46   C     C_3   0.649432 0.292470 0.791889 -0.314004
C47   C     C_3   0.611474 0.187009 0.842103 -0.854326
H14   H     H_    0.569329 0.193532 0.790895 0.267440
H15   H     H_    0.631095 0.095993 0.818034 0.248890
H16   H     H_    0.605386 0.193520 0.957331 0.237312
H17   H     H_    0.689070 0.289246 0.854186 0.215325
H18   H     H_    0.628180 0.381609 0.815278 0.239457
H19   H     H_    0.621223 0.277301 0.575768 0.194719
H20   H     H_    0.682866 0.193775 0.608805 0.180173
C48   C     C_3   0.678873 0.715460 0.405616 -0.394588
C49   C     C_3   0.701082 0.757650 0.261111 -0.334351
C50   C     C_3   0.679680 0.887482 0.223683 -0.842886
H21   H     H_    0.632864 0.892949 0.231433 0.244836
H22   H     H_    0.698440 0.956447 0.296148 0.256798
H23   H     H_    0.692366 0.911523 0.114730 0.245944
H24   H     H_    0.748052 0.761079 0.259189 0.215186
H25   H     H_    0.687698 0.691341 0.179484 0.223218
H26   H     H_    0.631893 0.712607 0.401029 0.194694
H27   H     H_    0.690011 0.786990 0.484362 0.204675
H28   H     H_    0.789377 0.661451 0.431227 0.150472
H29   H     H_    0.530911 0.114735 0.283548 0.158905
H30   H     H_    0.409810 0.878861 0.678377 0.193844
C51   C     C_3   0.390636 0.122005 0.663429 -0.359067
C52   C     C_3   0.340012 0.102740 0.761655 -0.373979
C53   C     C_3   0.287440 0.170387 0.706476 -0.784218
H31   H     H_    0.295454 0.271549 0.700241 0.257431
H32   H     H_    0.275804 0.136036 0.600654 0.269399
H33   H     H_    0.251304 0.154050 0.778684 0.248356
H34   H     H_    0.330327 0.002369 0.771121 0.231352
H35   H     H_    0.350462 0.138075 0.867761 0.215780
H36   H     H_    0.397031 0.223039 0.647727 0.202536
H37   H     H_    0.381141 0.080417 0.559461 0.204731
H38   H     H_    0.460884 0.324958 0.131003 0.136650
H39   H     H_    0.573032 0.755058 0.873476 0.195062
C54   C     C_3   0.943118 0.821382 0.690122 -0.340151
C55   C     C_3   0.916428 0.893545 0.566880 -0.304334
C56   C     C_3   0.888071 0.012661 0.616427 -0.849392
H40   H     H_    0.853836 0.991219 0.692630 0.265035
H41   H     H_    0.919724 0.074393 0.666578 0.250859
H42   H     H_    0.869127 0.062167 0.525067 0.260661
H43   H     H_    0.950048 0.917824 0.489896 0.208031
H44   H     H_    0.884338 0.836403 0.511907 0.240507
H45   H     H_    0.912459 0.804228 0.775947 0.240549
H46   H     H_    0.975630 0.882339 0.738526 0.171280
C57   C     C_3   0.319087 0.379273 0.264213 -0.394163
C58   C     C_3   0.323269 0.464735 0.135341 -0.317290
C59   C     C_3   0.331131 0.389858 0.001598 -0.869383
H47   H     H_    0.365596 0.320700 0.015195 0.241336
H48   H     H_    0.291234 0.340612 0.975125 0.259823
H49   H     H_    0.342284 0.452632 0.913474 0.248668
H50   H     H_    0.284038 0.521418 0.123868 0.215643
H51   H     H_    0.359706 0.528757 0.148094 0.239168
H52   H     H_    0.360848 0.336434 0.288346 0.196580
H53   H     H_    0.290880 0.299747 0.239487 0.203162
C60   C     C_3   0.787997 0.297439 0.695543 -0.410612
C61   C     C_3   0.808101 0.356527 0.833182 -0.357386
C62   C     C_3   0.831261 0.258999 0.935175 -0.824621
H54   H     H_    0.797560 0.191585 0.963350 0.254064
H55   H     H_    0.867515 0.208886 0.887319 0.252845
H56   H     H_    0.846202 0.304656 0.032525 0.268415
H57   H     H_    0.842187 0.424597 0.811884 0.245835
H58   H     H_    0.772421 0.406400 0.883890 0.222213
H59   H     H_    0.761178 0.216936 0.721470 0.199504
H60   H     H_    0.824753 0.255718 0.641844 0.227193

loop_
_geom_bond_atom_site_label_1
_geom_bond_atom_site_label_2
_ccdc_geom_bond_type
C49   C50   S    
C28   H1    S    
C53   H31   S    
C41   C42   A    
C35   C36   A    
C7    H9    S    
C57   H53   S    
C12   O7    A    
C45   H19   S    
C37   N4    A    
C7    C8    A    
C39   H7    S    
Cu1   Cu2   S    
C51   H37   S    
C12   O6    A    
C28   C29   A    
C52   H34   S    
C33   C39   S    
C18   C24   A    
C23   C29   S    
C19   C45   S    
C37   C38   S    
C5    C6    A    
C47   H15   S    
C59   H48   S    
C39   H8    S    
C13   H11   S    
C46   H18   S    
C61   H58   S    
C15   C16   A    
Cu1   N4    S    
C54   H45   S    
C18   C19   A    
C31   H30   S    
C58   H50   S    
Cu2   O7    S    
C60   H60   S    
C48   H26   S    
C11   C17   A    
C19   C20   A    
C61   C62   S    
C62   H56   S    
C13   C14   A    
C38   H39   S    
C35   H38   S    
C56   H42   S    
C20   C34   S    
C25   C32   S    
C5    C43   A    
C53   H32   S    
C40   N1    A    
C21   C22   A    
Cu1   O10   S    
C23   O8    A    
C18   C60   S    
C36   N4    A    
C1    O1    A    
C55   C56   S    
C3    H4    S    
C10   O4    S    
C38   C39   S    
Cu2   N3    S    
C23   O9    A    
C59   H47   S    
C45   C46   S    
C41   N1    A    
C8    C54   S    
C48   C49   S    
C16   C17   A    
C59   H49   S    
C34   O11   A    
C25   C26   A    
C46   C47   S    
Cu1   O1    S    
C33   C37   A    
C54   H46   S    
C10   N2    A    
C43   C44   A    
C29   C30   A    
C62   H54   S    
C51   C52   S    
C50   H23   S    
C12   C14   S    
Cu1   O6    S    
C57   C58   S    
C35   N3    A    
C16   H12   S    
C20   C21   A    
Cu2   O9    S    
C36   H5    S    
C50   H22   S    
C53   H33   S    
C31   H2    S    
C26   C27   A    
C1    C26   S    
C22   C24   A    
C42   C43   A    
C3    C4    A    
C34   O10   A    
C56   H40   S    
C25   C30   A    
C21   C48   S    
C27   H29   S    
C15   C57   S    
C54   C55   S    
Cu1   O8    S    
C47   H14   S    
C22   H28   S    
C31   C32   S    
C8    C44   A    
C57   H52   S    
C4    C5    A    
C6    C10   A    
C58   C59   S    
C6    C7    A    
C51   H36   S    
C52   H35   S    
C32   C51   S    
C55   H43   S    
C9    N2    A    
C2    C3    A    
C61   H57   S    
Cu2   O5    S    
C55   H44   S    
C11   C13   A    
C47   H16   S    
C30   C31   S    
C46   H17   S    
C2    C42   A    
C24   N1    S    
C49   H25   S    
C52   C53   S    
C1    O5    A    
C40   O12   S    
C58   H51   S    
C9    O3    S    
C32   H3    S    
C60   H59   S    
C48   H27   S    
C11   H10   S    
C17   N2    S    
C40   C44   A    
C38   H6    S    
C50   H21   S    
C33   N3    A    
C27   C28   A    
C62   H55   S    
C14   C15   A    
C41   O2    S    
C4    C9    A    
C49   H24   S    
C45   H20   S    
Cu2   O11   S    
C2    H13   S    
C60   C61   S    
C56   H41   S    
