data_mof_unit_52858.cif
_audit_creation_date              2012-12-11T17:24:11-0500
_audit_creation_method            fapswitch 2.2
_symmetry_space_group_name_H-M    P1
_symmetry_Int_Tables_number       1
_space_group_crystal_system       triclinic
_cell_length_a                    22.812064
_cell_length_b                    7.245436
_cell_length_c                    20.902477
_cell_angle_alpha                 90.42698
_cell_angle_beta                  93.658888
_cell_angle_gamma                 89.570896
_cell_volume                      3447.60842838

loop_
_atom_site_label
_atom_site_type_symbol
_atom_type_description
_atom_site_fract_x
_atom_site_fract_y
_atom_site_fract_z
_atom_type_partial_charge
O1    O     O_R   0.307200 0.614510 0.194080 -0.530924
O2    O     O_R   0.692800 0.385490 0.805920 -0.530709
O3    O     O_R   0.192800 0.114510 0.305920 -0.532886
O4    O     O_R   0.807200 0.885490 0.694080 -0.532194
O5    O     O_R   0.188140 0.283260 0.181690 -0.539339
O6    O     O_R   0.811860 0.716740 0.818310 -0.540528
O7    O     O_R   0.311860 0.783260 0.318310 -0.539825
O8    O     O_R   0.688140 0.216740 0.681690 -0.540360
C1    C     C_R   0.168557 0.453535 0.165793 0.687826
C2    C     C_R   0.831237 0.546456 0.834434 0.686313
C3    C     C_R   0.331396 0.953511 0.334225 0.686276
C4    C     C_R   0.668887 0.046536 0.665421 0.691108
O9    O     O_R   0.306460 0.284700 0.186400 -0.533805
O10   O     O_R   0.693540 0.715300 0.813600 -0.534468
O11   O     O_R   0.193540 0.784700 0.313600 -0.533804
O12   O     O_R   0.806460 0.215300 0.686400 -0.532018
O13   O     O_R   0.311970 0.115840 0.310660 -0.536762
O14   O     O_R   0.688030 0.884160 0.689340 -0.535621
O15   O     O_R   0.188030 0.615840 0.189340 -0.536786
O16   O     O_R   0.811970 0.384160 0.810660 -0.536846
C5    C     C_R   0.325332 0.452170 0.171885 0.713914
C6    C     C_R   0.674918 0.547795 0.828392 0.714036
C7    C     C_R   0.174616 0.953961 0.327926 0.712639
C8    C     C_R   0.825287 0.045858 0.671984 0.709398
O17   O     O_3   0.251670 0.448440 0.290760 -0.374545
O18   O     O_3   0.748330 0.551560 0.709240 -0.374726
O19   O     O_3   0.248330 0.948440 0.209240 -0.374106
O20   O     O_3   0.751670 0.051560 0.790760 -0.375871
V1    V     V_3+5 0.249690 0.173030 0.242440 1.396401
V2    V     V_3+5 0.750310 0.826970 0.757560 1.398999
V3    V     V_3+5 0.250310 0.673030 0.257560 1.395299
V4    V     V_3+5 0.749690 0.326970 0.742440 1.401058
C9    C     C_R   0.943660 0.077419 0.480983 0.342407
C10   C     C_R   0.049723 0.886835 0.512145 0.342996
C11   C     C_R   0.525857 0.673847 0.992619 0.335912
C12   C     C_R   0.490462 0.328169 0.026794 0.359952
C13   C     C_R   0.953442 0.997357 0.542152 -0.074133
C14   C     C_R   0.041674 0.978173 0.452763 -0.077929
C15   C     C_R   0.547114 0.519003 0.959216 -0.075409
C16   C     C_R   0.457420 0.482301 0.046217 -0.068429
C17   C     C_R   0.006165 0.898286 0.557538 0.011138
C18   C     C_R   0.988246 0.072862 0.436708 0.006714
C19   C     C_R   0.523022 0.345991 0.971532 0.012304
C20   C     C_R   0.471708 0.656111 0.022134 0.018453
C21   C     C_1   0.908489 0.018339 0.588562 0.049209
C22   C     C_1   0.089021 0.972216 0.408769 0.039998
C23   C     C_1   0.592450 0.534954 0.913097 -0.001022
C24   C     C_1   0.410318 0.465418 0.090133 0.009547
C25   C     C_1   0.128309 0.964398 0.372225 -0.200049
C26   C     C_1   0.870619 0.033243 0.626600 -0.201007
C27   C     C_1   0.371304 0.457997 0.127047 -0.209128
C28   C     C_1   0.630117 0.541935 0.874578 -0.208491
C29   C     C_R   0.423488 0.825724 0.389692 -0.208912
C30   C     C_R   0.578002 0.176661 0.608308 -0.206737
C31   C     C_R   0.076611 0.326911 0.110203 -0.207650
C32   C     C_R   0.922394 0.674174 0.891057 -0.207356
C33   C     C_R   0.380771 0.965429 0.384000 -0.065074
C34   C     C_R   0.620229 0.035599 0.614742 -0.063543
C35   C     C_R   0.119194 0.465317 0.115992 -0.064715
C36   C     C_R   0.880118 0.535038 0.884787 -0.064693
C37   C     C_R   0.386330 0.120851 0.424528 -0.220904
C38   C     C_R   0.615139 0.881273 0.573642 -0.224176
C39   C     C_R   0.113626 0.619037 0.075377 -0.220975
C40   C     C_R   0.885394 0.381818 0.925675 -0.222097
C41   C     C_R   0.433746 0.138380 0.471196 0.037555
C42   C     C_R   0.568320 0.865457 0.526120 0.035427
C43   C     C_R   0.066400 0.636027 0.028456 0.036953
C44   C     C_R   0.932259 0.365707 0.973112 0.036716
C45   C     C_R   0.476960 0.996130 0.475706 0.018570
C46   C     C_R   0.525214 0.008047 0.521429 0.018693
C47   C     C_R   0.023352 0.495107 0.023806 0.018688
C48   C     C_R   0.975250 0.506784 0.977894 0.018560
C49   C     C_R   0.471692 0.840815 0.434659 0.065917
C50   C     C_R   0.530358 0.163094 0.562596 0.065746
C51   C     C_R   0.028572 0.341563 0.064985 0.066151
C52   C     C_R   0.970083 0.660242 0.936686 0.066045
C53   C     C_R   0.438908 0.293712 0.513334 0.119054
C54   C     C_R   0.563480 0.711212 0.483465 0.122096
C55   C     C_R   0.061260 0.789546 0.986201 0.118329
C56   C     C_R   0.937160 0.212831 0.015670 0.119514
C57   C     C_R   0.487732 0.303210 0.558187 -0.176870
C58   C     C_R   0.514578 0.701508 0.438701 -0.178406
C59   C     C_R   0.012613 0.798750 0.941122 -0.177801
C60   C     C_R   0.985829 0.203551 0.060772 -0.179737
H1    H     H_    0.419816 0.706409 0.358094 0.115032
H2    H     H_    0.581481 0.295649 0.640070 0.117157
H3    H     H_    0.080288 0.208938 0.141871 0.116186
H4    H     H_    0.918831 0.792053 0.859339 0.116566
H5    H     H_    0.352815 0.226895 0.419349 0.123519
H6    H     H_    0.648450 0.774668 0.579120 0.126324
H7    H     H_    0.147010 0.724101 0.080655 0.124450
H8    H     H_    0.852130 0.276425 0.920151 0.123117
H9    H     H_    0.493250 0.419666 0.590572 0.137665
H10   H     H_    0.509030 0.585025 0.406329 0.137153
H11   H     H_    0.007085 0.913916 0.908672 0.137163
H12   H     H_    0.991286 0.088466 0.093272 0.137551
C61   C     C_3   0.978829 0.171380 0.372963 -0.294424
C62   C     C_3   0.965055 0.035358 0.317937 -0.769054
H13   H     H_    0.002474 0.939418 0.311998 0.227340
H14   H     H_    0.925495 0.953677 0.326965 0.218988
H15   H     H_    0.956498 0.112480 0.272546 0.212759
H16   H     H_    0.942184 0.272938 0.373794 0.207867
H17   H     H_    0.018522 0.252150 0.363371 0.165855
C63   C     C_3   0.016327 0.805470 0.622297 -0.305888
C64   C     C_3   0.980108 0.629473 0.625866 -0.750099
H18   H     H_    0.932373 0.661169 0.622231 0.235154
H19   H     H_    0.990076 0.532402 0.586631 0.222260
H20   H     H_    0.990887 0.560544 0.672451 0.211653
H21   H     H_    0.063308 0.768565 0.632393 0.210913
H22   H     H_    0.004966 0.902451 0.661114 0.170021
C65   C     C_3   0.428999 0.816197 0.025285 -0.254905
C66   C     C_3   0.370457 0.777550 0.987784 -0.794310
H23   H     H_    0.378207 0.733396 0.937981 0.229108
H24   H     H_    0.344987 0.669882 0.010816 0.235927
H25   H     H_    0.343347 0.905611 0.985637 0.219915
H26   H     H_    0.421667 0.852789 0.075883 0.188964
H27   H     H_    0.446337 0.935548 0.001303 0.238695
C67   C     C_3   0.529849 0.186522 0.925339 -0.256862
C68   C     C_3   0.500895 0.226710 0.858750 -0.791558
H28   H     H_    0.454311 0.268935 0.862579 0.228670
H29   H     H_    0.524087 0.336472 0.834036 0.236472
H30   H     H_    0.501956 0.099875 0.828654 0.219709
H31   H     H_    0.576948 0.150206 0.921888 0.191753
H32   H     H_    0.506373 0.066420 0.941558 0.239048
O21   O     O_3   0.891199 0.169739 0.465774 -0.570948
C69   C     C_3   0.846831 0.040541 0.447221 0.094315
H33   H     H_    0.854142 0.901788 0.469472 0.113378
H34   H     H_    0.845100 0.022417 0.394313 0.123497
C70   C     C_3   0.787449 0.114955 0.466459 -0.282637
H35   H     H_    0.790302 0.149307 0.518456 0.198826
H36   H     H_    0.776174 0.243269 0.439417 0.193713
C71   C     C_3   0.738754 0.973634 0.453159 -0.865436
H37   H     H_    0.733587 0.941113 0.401103 0.235919
H38   H     H_    0.696589 0.030060 0.468786 0.236815
H39   H     H_    0.749032 0.844780 0.480221 0.228194
O22   O     O_3   0.102860 0.799674 0.528090 -0.569688
C72   C     C_3   0.102242 0.619397 0.501625 0.087392
H40   H     H_    0.080311 0.613144 0.452360 0.110982
H41   H     H_    0.078950 0.525391 0.533057 0.126462
C73   C     C_3   0.165602 0.551968 0.498005 -0.294884
H42   H     H_    0.189631 0.648319 0.468028 0.202191
H43   H     H_    0.187719 0.550617 0.546956 0.198676
C74   C     C_3   0.168194 0.358530 0.468974 -0.809427
H44   H     H_    0.147354 0.357982 0.419467 0.233933
H45   H     H_    0.145230 0.259103 0.498725 0.241260
H46   H     H_    0.214727 0.313888 0.466988 0.224772
O23   O     O_3   0.555961 0.839523 0.998095 -0.574180
C75   C     C_3   0.616056 0.812319 0.018026 0.090172
H47   H     H_    0.642344 0.808231 0.975138 0.139667
H48   H     H_    0.624142 0.683530 0.046428 0.098427
C76   C     C_3   0.637788 0.974733 0.059557 -0.283903
H49   H     H_    0.627468 0.105687 0.033786 0.201626
H50   H     H_    0.615159 0.974014 0.104959 0.202761
C77   C     C_3   0.703973 0.963155 0.075431 -0.870801
H51   H     H_    0.715493 0.833625 0.101574 0.234527
H52   H     H_    0.718060 0.082257 0.106276 0.236823
H53   H     H_    0.727964 0.967328 0.030849 0.232023
O24   O     O_3   0.493360 0.162476 0.059636 -0.578878
C78   C     C_3   0.506689 0.181010 0.126868 0.089770
H54   H     H_    0.520232 0.041700 0.144289 0.142915
H55   H     H_    0.466762 0.213988 0.152300 0.121252
C79   C     C_3   0.556646 0.317370 0.146559 -0.366264
H56   H     H_    0.593342 0.301482 0.114646 0.193585
H57   H     H_    0.540260 0.461707 0.142482 0.184974
C80   C     C_3   0.579920 0.287125 0.215805 -0.825908
H58   H     H_    0.599297 0.146623 0.221434 0.230497
H59   H     H_    0.543894 0.304063 0.248762 0.229563
H60   H     H_    0.614539 0.389942 0.229047 0.231776
C81   C     C_3   0.391968 0.445564 0.509973 -0.346076
C82   C     C_3   0.399727 0.602553 0.559133 -0.747837
H61   H     H_    0.398685 0.548167 0.608583 0.221867
H62   H     H_    0.441528 0.676347 0.553740 0.232656
H63   H     H_    0.363152 0.703531 0.551295 0.221843
H64   H     H_    0.390277 0.507586 0.461471 0.184150
H65   H     H_    0.348640 0.381945 0.516811 0.176459
C83   C     C_3   0.610761 0.560520 0.486190 -0.345718
C84   C     C_3   0.603723 0.406735 0.435730 -0.755965
H66   H     H_    0.562739 0.328480 0.441228 0.232831
H67   H     H_    0.603654 0.464806 0.386691 0.223631
H68   H     H_    0.641273 0.309051 0.442075 0.221981
H69   H     H_    0.653960 0.625919 0.480179 0.179264
H70   H     H_    0.612289 0.495368 0.534195 0.184065
C85   C     C_3   0.107984 0.939954 0.989721 -0.344080
C86   C     C_3   0.100202 0.094984 0.940472 -0.750378
H71   H     H_    0.101548 0.038331 0.891063 0.220874
H72   H     H_    0.058254 0.170374 0.945608 0.232782
H73   H     H_    0.136588 0.195174 0.948462 0.221435
H74   H     H_    0.109395 0.004119 0.038193 0.184299
H75   H     H_    0.151423 0.874514 0.983108 0.176232
C87   C     C_3   0.890170 0.063192 0.012395 -0.346231
C88   C     C_3   0.897441 0.909520 0.062198 -0.751563
H76   H     H_    0.939057 0.832144 0.057129 0.232793
H77   H     H_    0.896461 0.967796 0.111423 0.221598
H78   H     H_    0.860590 0.810776 0.054705 0.221405
H79   H     H_    0.846794 0.129644 0.018560 0.175667
H80   H     H_    0.888855 0.997584 0.964150 0.183894

loop_
_geom_bond_atom_site_label_1
_geom_bond_atom_site_label_2
_ccdc_geom_bond_type
C44   C56   A    
C74   H46   S    
C47   C51   A    
C34   C38   A    
C69   H33   S    
C58   H10   S    
C31   C35   A    
O19   V1    S    
O13   V1    S    
C81   C82   S    
O1    C5    A    
O3    C7    A    
C65   C66   S    
C73   C74   S    
C56   C60   A    
O15   V3    S    
C66   H24   S    
C61   C62   S    
O7    C3    A    
C64   H19   S    
C22   C25   T    
C80   H58   S    
C64   H18   S    
C13   C17   A    
C32   C52   A    
C9    C18   A    
C40   C44   A    
C15   C23   S    
C73   H43   S    
C14   C18   A    
C30   C34   A    
C63   H21   S    
O4    C8    A    
C51   C60   A    
C32   H4    S    
C82   H61   S    
C74   H44   S    
O1    V3    S    
C86   H71   S    
C66   H25   S    
O2    V4    S    
C60   H12   S    
C76   C77   S    
O3    V1    S    
C16   C24   S    
C67   C68   S    
C63   C64   S    
C30   C50   A    
C1    O15   A    
C24   C27   T    
O23   C75   S    
C2    O16   A    
C71   H37   S    
C84   H67   S    
C46   C50   A    
C76   H49   S    
C78   H55   S    
C45   C49   A    
C65   H26   S    
O14   V2    S    
C53   C57   A    
C79   H57   S    
C61   H16   S    
C44   C48   A    
C70   C71   S    
C31   C51   A    
O11   C7    A    
C67   H32   S    
O12   C8    A    
C54   C83   S    
C39   H7    S    
C80   H59   S    
C10   C17   A    
C56   C87   S    
O10   V2    S    
C85   H75   S    
C52   C59   A    
C66   H23   S    
C64   H20   S    
C37   H5    S    
O5    V1    S    
C68   H29   S    
C8    C26   S    
C83   H69   S    
C42   C54   A    
C72   C73   S    
C39   C43   A    
C41   C53   A    
C38   C42   A    
C88   H76   S    
O8    V4    S    
C12   C16   A    
C75   C76   S    
O7    V3    S    
C75   H47   S    
C77   H53   S    
C18   C61   S    
C30   H2    S    
C29   C33   A    
O18   V4    S    
C15   C19   A    
C69   C70   S    
C79   H56   S    
C9    C13   A    
C32   C36   A    
C1    C35   S    
O24   C78   S    
C81   H64   S    
C11   C15   A    
C85   C86   S    
C88   H77   S    
C87   C88   S    
O5    C1    A    
C79   C80   S    
C57   H9    S    
C54   C58   A    
C78   H54   S    
C10   O22   S    
O8    C4    A    
C84   H68   S    
C59   H11   S    
C9    O21   S    
C81   H65   S    
C78   C79   S    
O9    C5    A    
C48   C52   A    
C11   O23   S    
C73   H42   S    
C33   C37   A    
C11   C20   A    
C72   H41   S    
C77   H51   S    
C61   H17   S    
C87   H79   S    
C53   C81   S    
C83   C84   S    
O6    V2    S    
C62   H13   S    
C80   H60   S    
C62   H14   S    
O21   C69   S    
C40   H8    S    
C50   C57   A    
C13   C21   S    
C49   C58   A    
C5    C27   S    
C6    C28   S    
C70   H35   S    
O16   V4    S    
C68   H30   S    
O9    V1    S    
C74   H45   S    
C2    C36   S    
C3    O13   A    
C69   H34   S    
C10   C14   A    
C77   H52   S    
O17   V3    S    
C29   C49   A    
C75   H48   S    
O22   C72   S    
O6    C2    A    
C68   H28   S    
C86   H73   S    
O11   V3    S    
C23   C28   T    
C12   O24   S    
O12   V4    S    
C62   H15   S    
C72   H40   S    
C35   C39   A    
C86   H72   S    
C17   C63   S    
C65   H27   S    
C36   C40   A    
O10   C6    A    
O20   V2    S    
C88   H78   S    
C4    C34   S    
C47   C48   A    
C85   H74   S    
C63   H22   S    
C87   H80   S    
C42   C46   A    
C82   H62   S    
C21   C26   T    
C71   H39   S    
C41   C45   A    
C38   H6    S    
O2    C6    A    
C55   C85   S    
C43   C47   A    
C67   H31   S    
C76   H50   S    
C31   H3    S    
C45   C46   A    
C14   C22   S    
C7    C25   S    
C83   H70   S    
C19   C67   S    
C55   C59   A    
C20   C65   S    
C37   C41   A    
C16   C20   A    
C71   H38   S    
C84   H66   S    
C4    O14   A    
C12   C19   A    
C29   H1    S    
C3    C33   S    
C43   C55   A    
O4    V2    S    
C70   H36   S    
C82   H63   S    
