data_mof_unit_36181.cif
_audit_creation_date              2012-12-10T20:28:46-0500
_audit_creation_method            fapswitch 2.2
_symmetry_space_group_name_H-M    P1
_symmetry_Int_Tables_number       1
_space_group_crystal_system       triclinic
_cell_length_a                    10.581059
_cell_length_b                    10.67392
_cell_length_c                    9.865535
_cell_angle_alpha                 89.265231
_cell_angle_beta                  91.646846
_cell_angle_gamma                 91.084014
_cell_volume                      1113.48348346

loop_
_atom_site_label
_atom_site_type_symbol
_atom_type_description
_atom_site_fract_x
_atom_site_fract_y
_atom_site_fract_z
_atom_type_partial_charge
C1    C     C_R   0.505280 0.259725 0.500517 0.892765
C2    C     C_R   0.545020 0.937212 0.375904 -0.223614
C3    C     C_R   0.534102 0.871211 0.498879 -0.091433
C4    C     C_R   0.262728 0.523226 0.498414 0.914603
C5    C     C_R   0.549841 0.934355 0.621133 0.128551
C6    C     C_3   0.476147 0.921792 0.747628 -0.483051
C7    C     C_3   0.469066 0.062992 0.745324 -0.495841
C8    C     C_R   0.438093 0.406790 0.070920 0.149537
C9    C     C_R   0.568381 0.586500 0.073004 -0.119053
C10   C     C_R   0.567900 0.586803 0.929293 -0.149057
C11   C     C_R   0.435337 0.408363 0.927564 0.218331
C12   C     C_R   0.073446 0.605927 0.613969 0.046660
C13   C     C_3   0.294306 0.389906 0.924461 -0.069483
C14   C     C_3   0.300572 0.379430 0.077507 -0.496069
C15   C     C_R   0.507100 0.740065 0.499444 0.847203
C16   C     C_R   0.740262 0.515142 0.501536 0.898051
C17   C     C_R   0.142468 0.659706 0.724411 -0.174997
C18   C     C_R   0.080926 0.701862 0.837647 -0.157411
C19   C     C_R   0.949759 0.697239 0.840260 -0.152389
C20   C     C_R   0.879772 0.649925 0.729909 -0.150140
C21   C     C_R   0.940177 0.600301 0.616982 0.106856
C22   C     C_3   0.245912 0.270633 0.856123 -0.863991
C23   C     C_R   0.132464 0.565335 0.495477 -0.190866
C24   C     C_R   0.062434 0.562616 0.373014 0.451314
C25   C     C_R   0.933044 0.547429 0.378001 -0.328814
C26   C     C_R   0.873052 0.551638 0.502095 -0.186743
C27   C     C_R   0.546622 0.062533 0.621612 0.141417
C28   C     C_R   0.530407 0.128727 0.500120 -0.111643
C29   C     C_R   0.543389 0.066795 0.376545 -0.221335
H1    H     H_    0.534245 0.884725 0.834276 0.196202
H2    H     H_    0.135041 0.742456 0.921480 0.147571
H3    H     H_    0.901838 0.734734 0.925914 0.128063
H4    H     H_    0.779166 0.660950 0.731155 0.151465
H5    H     H_    0.880336 0.529785 0.284173 0.172676
H6    H     H_    0.541487 0.116746 0.280239 0.172576
H7    H     H_    0.543506 0.889810 0.279401 0.168456
H8    H     H_    0.382453 0.874523 0.731489 0.206237
H9    H     H_    0.056948 0.576600 0.175680 0.319761
H10   H     H_    0.142313 0.261009 0.869257 0.248232
H11   H     H_    0.263657 0.276772 0.745969 0.261474
H12   H     H_    0.372015 0.094544 0.720547 0.208149
H13   H     H_    0.291653 0.187067 0.902379 0.238574
H14   H     H_    0.518856 0.108513 0.832946 0.209952
H15   H     H_    0.621686 0.657934 0.127977 0.135977
H16   H     H_    0.619410 0.659551 0.876436 0.131091
H17   H     H_    0.244164 0.474590 0.887197 0.197649
H18   H     H_    0.250727 0.455302 0.125389 0.264108
H19   H     H_    0.280957 0.284407 0.120442 0.206062
H20   H     H_    0.243438 0.675866 0.722327 0.160588
N1    N     N_R   0.499160 0.499140 0.142800 -0.098087
N2    N     N_R   0.499160 0.499180 0.857150 -0.120615
O1    O     O_R   0.500020 0.316790 0.614690 -0.607103
O2    O     O_R   0.500000 0.316760 0.385350 -0.618628
O3    O     O_R   0.316770 0.500020 0.614690 -0.643725
O4    O     O_R   0.316760 0.499980 0.385350 -0.551979
O5    O     O_R   0.500000 0.683240 0.614650 -0.645346
O6    O     O_R   0.499980 0.683210 0.385310 -0.624310
O7    O     O_R   0.683240 0.500020 0.614650 -0.624576
O8    O     O_R   0.683230 0.499980 0.385310 -0.621192
O9    O     O_3   0.121306 0.575689 0.250855 -0.786872
Zn1   Zn    Zn3+2 0.500010 0.500020 0.653130 0.926015
Zn2   Zn    Zn3+2 0.499990 0.499980 0.346870 0.962194

loop_
_geom_bond_atom_site_label_1
_geom_bond_atom_site_label_2
_ccdc_geom_bond_type
C12   C17   A    
C1    C28   S    
C14   H19   S    
C21   C26   A    
C6    C7    S    
O3    Zn1   S    
C7    H14   S    
C11   C13   S    
C9    C10   A    
C29   H6    S    
C19   C20   A    
N2    Zn1   S    
C25   H5    S    
C24   O9    S    
C22   H11   S    
C15   O5    A    
C3    C5    A    
O7    Zn1   S    
C7    H12   S    
C17   C18   A    
C6    H8    S    
C7    C27   S    
O6    Zn2   S    
C16   O7    A    
C13   C14   S    
C24   C25   A    
C15   O6    A    
C12   C23   A    
C22   H13   S    
C10   H16   S    
C2    C29   A    
H9    O9    S    
C10   N2    A    
C28   C29   A    
C6    H1    S    
C13   C22   S    
C2    C3    A    
O1    Zn1   S    
C8    C11   A    
C4    O4    A    
C16   C26   S    
C5    C6    S    
N1    Zn2   S    
C1    O1    A    
C11   N2    A    
C19   H3    S    
C23   C24   A    
C2    H7    S    
O4    Zn2   S    
C8    N1    A    
C27   C28   A    
C3    C15   S    
C20   C21   A    
C20   H4    S    
C18   C19   A    
O2    Zn2   S    
C17   H20   S    
C13   H17   S    
C4    C23   S    
C1    O2    A    
O5    Zn1   S    
C9    H15   S    
C8    C14   S    
C18   H2    S    
C4    O3    A    
C25   C26   A    
C5    C27   A    
C14   H18   S    
C22   H10   S    
C12   C21   A    
C9    N1    A    
O8    Zn2   S    
C16   O8    A    
