data_mof_unit_25814.cif
_audit_creation_date              2012-12-11T14:11:00-0500
_audit_creation_method            fapswitch 2.2
_symmetry_space_group_name_H-M    P1
_symmetry_Int_Tables_number       1
_space_group_crystal_system       triclinic
_cell_length_a                    19.977674
_cell_length_b                    17.207433
_cell_length_c                    15.540803
_cell_angle_alpha                 90.414879
_cell_angle_beta                  51.878982
_cell_angle_gamma                 90.933804
_cell_volume                      4202.3082004

loop_
_atom_site_label
_atom_site_type_symbol
_atom_type_description
_atom_site_fract_x
_atom_site_fract_y
_atom_site_fract_z
_atom_type_partial_charge
C1    C     C_R   0.363050 0.192562 0.013045 0.168176
C2    C     C_3   0.756152 0.781396 0.442740 0.270504
C3    C     C_3   0.672427 0.265489 0.456444 0.291854
C4    C     C_3   0.243547 0.783300 0.555583 0.270632
C5    C     C_3   0.826267 0.769424 0.543158 0.292478
C6    C     C_3   0.253702 0.278670 0.444840 0.271125
C7    C     C_3   0.170321 0.768287 0.458957 0.296196
C8    C     C_3   0.741444 0.286286 0.557686 0.270491
C9    C     C_2   0.235523 0.727552 0.024725 -0.096602
C10   C     C_2   0.850160 0.239787 0.868380 -0.048233
C11   C     C_2   0.755519 0.719560 0.987820 -0.091802
C12   C     C_R   0.623872 0.802662 0.005597 0.146510
C13   C     C_2   0.207274 0.263954 0.066073 -0.079574
C14   C     C_2   0.798314 0.175822 0.903744 -0.093107
C15   C     C_2   0.295453 0.762025 0.929930 -0.084718
C16   C     C_2   0.264379 0.224732 0.975359 -0.094218
C17   C     C_2   0.698321 0.759856 0.077559 -0.076052
C18   C     C_R   0.345605 0.831834 0.221485 -0.084391
C19   C     C_R   0.612035 0.196286 0.783592 -0.062902
C20   C     C_R   0.653092 0.832043 0.778007 -0.081113
C21   C     C_R   0.387294 0.195431 0.216950 -0.060255
C22   C     C_R   0.845105 0.332587 0.221661 -0.076349
C23   C     C_R   0.649912 0.187980 0.971232 0.164864
C24   C     C_R   0.112497 0.696132 0.783296 -0.060627
C25   C     C_R   0.152918 0.331809 0.777681 -0.089920
C26   C     C_R   0.887770 0.695583 0.216754 -0.062112
C27   C     C_R   0.375939 0.885692 0.886267 0.246889
C28   C     C_R   0.668134 0.097643 0.052662 0.190740
C29   C     C_R   0.623236 0.885965 0.113977 0.249592
C30   C     C_R   0.347199 0.103354 0.922888 0.223295
C31   C     C_R   0.876788 0.382647 0.885738 0.225520
C32   C     C_R   0.151268 0.605509 0.079493 0.226163
C33   C     C_R   0.126972 0.387098 0.110105 0.246022
C34   C     C_R   0.376294 0.802171 0.992984 0.148145
C35   C     C_R   0.842165 0.600335 0.930575 0.226443
C36   C     C_R   0.394329 0.103808 0.311928 -0.117358
C37   C     C_R   0.643423 0.921436 0.682673 -0.078471
C38   C     C_R   0.605655 0.103548 0.688099 -0.124511
C39   C     C_R   0.355876 0.921931 0.316687 -0.081685
C40   C     C_R   0.894508 0.603927 0.311855 -0.122305
C41   C     C_R   0.143145 0.421383 0.682591 -0.079646
C42   C     C_R   0.105268 0.603558 0.688291 -0.119807
C43   C     C_R   0.855672 0.422226 0.316682 -0.079465
C44   C     C_R   0.319524 0.173648 0.974708 -0.030179
C45   C     C_R   0.858544 0.690394 0.019332 0.176294
C46   C     C_R   0.648772 0.813852 0.068861 -0.023578
C47   C     C_R   0.704736 0.167098 0.992600 0.032715
C48   C     C_R   0.351824 0.813149 0.929899 -0.019993
C49   C     C_R   0.811755 0.669216 0.986335 -0.039841
C50   C     C_R   0.155501 0.316600 0.060514 -0.024256
C51   C     C_R   0.178391 0.676235 0.028813 -0.031535
C52   C     C_R   0.846074 0.308280 0.931676 0.019384
C53   C     C_R   0.303915 0.865064 0.323333 0.058966
C54   C     C_R   0.631562 0.178079 0.684382 0.067314
C55   C     C_R   0.694283 0.864811 0.675921 0.055069
C56   C     C_R   0.127010 0.303758 0.001611 0.151337
C57   C     C_R   0.368238 0.177480 0.315807 0.067486
C58   C     C_R   0.803335 0.365759 0.323388 0.051458
C59   C     C_R   0.131135 0.678052 0.684540 0.066743
C60   C     C_R   0.193826 0.364576 0.675634 0.062701
C61   C     C_R   0.868553 0.677681 0.315709 0.069154
C62   C     C_3   0.286973 0.201882 0.525073 -0.215511
C63   C     C_3   0.798108 0.849325 0.459617 -0.221684
C64   C     C_3   0.715275 0.201506 0.475338 -0.220594
C65   C     C_3   0.201628 0.849916 0.539504 -0.224182
C66   C     C_3   0.784653 0.701547 0.525390 -0.217354
C67   C     C_R   0.136774 0.693616 0.988399 0.170457
C68   C     C_3   0.294788 0.348613 0.459626 -0.220723
C69   C     C_3   0.211898 0.701682 0.475890 -0.217357
C70   C     C_3   0.698242 0.350407 0.539721 -0.222359
C71   C     C_3   0.709696 0.753401 0.560489 -0.191436
C72   C     C_3   0.372916 0.298714 0.421177 -0.175509
C73   C     C_3   0.288025 0.754887 0.438573 -0.194677
C74   C     C_3   0.623481 0.293673 0.576213 -0.174097
C75   C     C_3   0.209916 0.251325 0.562226 -0.198800
C76   C     C_3   0.874186 0.796955 0.423227 -0.172301
C77   C     C_3   0.788824 0.257566 0.440224 -0.193513
C78   C     C_R   0.871869 0.301669 0.996318 0.153071
C79   C     C_3   0.124358 0.796127 0.578297 -0.174146
C80   C     C_3   0.751921 0.820808 0.577144 0.038036
C81   C     C_3   0.330428 0.229660 0.407678 0.031573
C82   C     C_3   0.245867 0.821002 0.422610 0.038872
C83   C     C_3   0.668113 0.230643 0.592903 0.030588
C84   C     C_3   0.251324 0.320750 0.576782 0.041227
C85   C     C_3   0.830845 0.729966 0.407603 0.030432
C86   C     C_3   0.745436 0.321190 0.422372 0.038767
C87   C     C_3   0.167738 0.730484 0.593029 0.031253
C88   C     C_3   0.327729 0.271827 0.540741 0.292331
H1    H     H_    0.322613 0.783140 0.202606 0.158751
H2    H     H_    0.654031 0.953892 0.615950 0.123077
H3    H     H_    0.600243 0.075563 0.630064 0.136990
H4    H     H_    0.345605 0.954658 0.383320 0.121466
H5    H     H_    0.899605 0.576874 0.370146 0.136531
H6    H     H_    0.153571 0.453916 0.616037 0.122665
H7    H     H_    0.099589 0.575556 0.630504 0.135977
H8    H     H_    0.845460 0.454855 0.383352 0.123104
H9    H     H_    0.641345 0.736243 0.618146 0.180128
H10   H     H_    0.440880 0.316261 0.361010 0.181834
H11   H     H_    0.356029 0.738595 0.379955 0.178961
H12   H     H_    0.611106 0.254023 0.810691 0.171490
H13   H     H_    0.554612 0.306713 0.634474 0.184454
H14   H     H_    0.142149 0.232659 0.621437 0.170769
H15   H     H_    0.942728 0.812991 0.364602 0.183365
H16   H     H_    0.857503 0.243286 0.383125 0.180851
H17   H     H_    0.056135 0.811156 0.638080 0.182696
H18   H     H_    0.283853 0.141136 0.551048 0.169585
H19   H     H_    0.802972 0.910677 0.434488 0.166376
H20   H     H_    0.722386 0.139877 0.449682 0.169163
H21   H     H_    0.197977 0.911479 0.563749 0.164965
H22   H     H_    0.779207 0.640366 0.551475 0.170539
H23   H     H_    0.675366 0.783828 0.796879 0.159414
H24   H     H_    0.297400 0.409529 0.434561 0.166085
H25   H     H_    0.216170 0.640343 0.450491 0.170274
H26   H     H_    0.691864 0.412241 0.564257 0.166218
H27   H     H_    0.229713 0.735491 0.098516 0.182114
H28   H     H_    0.912096 0.233043 0.789264 0.146955
H29   H     H_    0.763242 0.725100 0.912550 0.182849
H30   H     H_    0.203846 0.261179 0.138575 0.187964
H31   H     H_    0.825080 0.126681 0.848081 0.135742
H32   H     H_    0.298817 0.756047 0.857625 0.185748
H33   H     H_    0.270388 0.229769 0.901202 0.183620
H34   H     H_    0.385396 0.252507 0.191459 0.166138
H35   H     H_    0.694151 0.757573 0.150611 0.187854
H36   H     H_    0.821152 0.284593 0.203413 0.164690
H37   H     H_    0.113758 0.753618 0.809292 0.169355
H38   H     H_    0.175174 0.283300 0.796100 0.159202
H39   H     H_    0.886990 0.752823 0.190731 0.170741
H40   H     H_    0.399402 0.076744 0.370231 0.133383
I1    I     I_    0.399480 0.308791 0.015393 -0.334561
I2    I     I_    0.729306 0.037192 0.103402 -0.233794
I3    I     I_    0.563128 0.901526 0.283082 -0.261924
I4    I     I_    0.312855 0.057936 0.828515 -0.249469
I5    I     I_    0.943931 0.397851 0.714038 -0.279706
I6    I     I_    0.182178 0.562900 0.177535 -0.250960
I7    I     I_    0.060590 0.389845 0.281869 -0.266190
I8    I     I_    0.801467 0.552143 0.844456 -0.231253
I9    I     I_    0.381020 0.268281 0.624788 -0.373748
I10   I     I_    0.691706 0.792540 0.373630 -0.306040
I11   I     I_    0.622526 0.248841 0.369210 -0.329639
I12   I     I_    0.594443 0.689576 0.980687 -0.295007
I13   I     I_    0.309597 0.797097 0.622589 -0.301867
I14   I     I_    0.876516 0.760914 0.630584 -0.368063
I15   I     I_    0.186997 0.285419 0.378293 -0.315447
I16   I     I_    0.117491 0.758990 0.374585 -0.366009
I17   I     I_    0.805870 0.304399 0.626176 -0.285784
I18   I     I_    0.629965 0.306936 0.962685 -0.291509
I19   I     I_    0.401414 0.689065 0.019486 -0.293569
I20   I     I_    0.890220 0.808308 0.022549 -0.320496
I21   I     I_    0.096820 0.189791 0.980138 -0.296460
I22   I     I_    0.104231 0.809373 0.982967 -0.326622
I23   I     I_    0.899125 0.190564 0.025192 -0.293148
I24   I     I_    0.443238 0.893755 0.714638 -0.269822
N1    N     N_R   0.408680 0.130810 0.995780 -0.086162
N2    N     N_R   0.578590 0.132790 0.846380 -0.052903
N3    N     N_R   0.578590 0.867210 0.846380 -0.043795
N4    N     N_R   0.421410 0.132790 0.153620 -0.049221
N5    N     N_R   0.921410 0.367210 0.153620 -0.043190
N6    N     N_R   0.078590 0.632790 0.846380 -0.050112
N7    N     N_R   0.078590 0.367210 0.846380 -0.046036
N8    N     N_R   0.921410 0.632790 0.153620 -0.050681
N9    N     N_R   0.403840 0.921910 0.935760 -0.094566
N10   N     N_R   0.596160 0.078090 0.064240 -0.090664
N11   N     N_R   0.596160 0.921910 0.064240 -0.095060
N12   N     N_R   0.591320 0.869190 0.004220 -0.087175
N13   N     N_R   0.403840 0.078090 0.935760 -0.091124
N14   N     N_R   0.903840 0.421910 0.935760 -0.093076
N15   N     N_R   0.096160 0.578090 0.064240 -0.093104
N16   N     N_R   0.096160 0.421910 0.064240 -0.093742
N17   N     N_R   0.903840 0.578090 0.935760 -0.090565
N18   N     N_R   0.426250 0.076100 0.213650 -0.049711
N19   N     N_R   0.573750 0.923900 0.786350 -0.047469
N20   N     N_R   0.573750 0.076100 0.786350 -0.051290
N21   N     N_R   0.426250 0.923900 0.213650 -0.047850
N22   N     N_R   0.926250 0.576100 0.213650 -0.051382
N23   N     N_R   0.591320 0.130810 0.004220 -0.091953
N24   N     N_R   0.073750 0.423900 0.786350 -0.048444
N25   N     N_R   0.073750 0.576100 0.786350 -0.049970
N26   N     N_R   0.926250 0.423900 0.213650 -0.046553
N27   N     N_R   0.408680 0.869190 0.995780 -0.087479
N28   N     N_R   0.908680 0.630810 0.995780 -0.087203
N29   N     N_R   0.091320 0.369190 0.004220 -0.085291
N30   N     N_R   0.091320 0.630810 0.004220 -0.087301
N31   N     N_R   0.908680 0.369190 0.995780 -0.090578
N32   N     N_R   0.421410 0.867210 0.153620 -0.043929
Ni1   Ni    Ni4+2 0.500000 0.131570 0.000000 0.251565
Ni2   Ni    Ni4+2 0.500000 0.868430 0.000000 0.268233
Ni3   Ni    Ni4+2 1.000000 0.631570 0.000000 0.253655
Ni4   Ni    Ni4+2 0.000000 0.368430 0.000000 0.267456
Ni5   Ni    Ni4+2 0.488900 1.000000 0.862310 0.256837
Ni6   Ni    Ni4+2 0.511100 1.000000 0.137690 0.258924
Ni7   Ni    Ni4+2 0.988900 0.500000 0.862310 0.258422
Ni8   Ni    Ni4+2 0.011100 0.500000 0.137690 0.259468

loop_
_geom_bond_atom_site_label_1
_geom_bond_atom_site_label_2
_ccdc_geom_bond_type
C27   C48   A    
C32   I6    S    
C28   C47   A    
C27   I24   S    
N25   Ni7   S    
C20   N3    A    
C36   N18   A    
C8    C83   S    
C64   C77   S    
C29   N11   A    
C8    I17   S    
C9    C51   S    
N5    Ni4   S    
C74   C83   S    
C39   N21   A    
C10   C52   S    
N6    Ni3   S    
C66   C85   S    
C79   C87   S    
C13   H30   S    
C65   C82   S    
C28   N10   A    
C6    C75   S    
C43   N26   A    
N27   Ni2   S    
C72   H10   S    
C3    C64   S    
C70   H26   S    
C23   N23   A    
N15   Ni8   S    
C71   H9    S    
N19   Ni5   S    
C37   H2    S    
C65   C79   S    
C67   N30   A    
N6    N25   A    
C39   C53   A    
C78   N31   A    
C1    I1    S    
C4    C65   S    
C24   N6    A    
C75   C84   S    
N15   N30   A    
N23   Ni1   S    
C56   N29   A    
C42   N25   A    
C45   I20   S    
N21   Ni6   S    
C15   H32   S    
C79   H17   S    
C2    C85   S    
N14   Ni7   S    
C68   H24   S    
C21   H34   S    
C3    C74   S    
C70   C74   S    
C54   C83   S    
C18   C53   A    
C17   H35   S    
N11   N12   A    
N21   N32   A    
C35   C49   A    
C75   H14   S    
N13   Ni5   S    
C12   I12   S    
C69   C73   S    
C25   C60   A    
C45   C49   A    
N9    N27   A    
C8    C77   S    
C40   H5    S    
N17   N28   A    
C72   C81   S    
C45   N28   A    
C31   I5    S    
C26   H39   S    
C76   H15   S    
C6    C68   S    
C6    C81   S    
C3    C86   S    
C30   C44   A    
C34   N27   A    
C36   H40   S    
C15   C48   S    
C20   C55   A    
C52   C78   A    
C58   C86   S    
C7    I16   S    
C72   C88   S    
N29   Ni4   S    
C78   I23   S    
C64   H20   S    
C63   C80   S    
N2    Ni1   S    
C23   C47   A    
C42   H7    S    
C68   C84   S    
C17   C46   S    
C30   N13   A    
N9    Ni5   S    
C36   C57   A    
C10   C14   D    
C4    I13   S    
C4    C87   S    
C25   N7    A    
N24   Ni7   S    
N10   N23   A    
C33   C50   A    
N4    Ni1   S    
C62   C88   S    
C38   H3    S    
C50   C56   A    
C40   C61   A    
C53   C82   S    
C9    H27   S    
N7    Ni4   S    
C35   I8    S    
C2    I10   S    
C25   H38   S    
C64   C83   S    
C21   C57   A    
C11   C49   S    
N28   Ni3   S    
C12   N12   A    
C20   H23   S    
N26   Ni8   S    
C34   I19   S    
C33   I7    S    
C1    C44   A    
C41   H6    S    
C38   C54   A    
C31   N14   A    
C18   N32   A    
C68   C72   S    
C69   H25   S    
C43   H8    S    
N2    N20   A    
C51   C67   A    
C66   H22   S    
C5    C80   S    
C1    N1    A    
C65   H21   S    
C4    C73   S    
C61   C85   S    
C66   C71   S    
C74   H13   S    
C19   C54   A    
C12   C46   A    
C62   C81   S    
C77   C86   S    
C14   H31   S    
N7    N24   A    
C24   H37   S    
C35   N17   A    
C57   C81   S    
C62   C75   S    
C13   C16   D    
C33   N16   A    
C3    I11   S    
N17   Ni7   S    
C63   H19   S    
C2    C71   S    
C70   C86   S    
C39   H4    S    
N10   Ni6   S    
C10   H28   S    
C2    C63   S    
C7    C79   S    
C26   N8    A    
C32   C51   A    
C73   H11   S    
C16   H33   S    
C16   C44   S    
C11   C17   D    
N1    N13   A    
C18   H1    S    
N8    N22   A    
C26   C61   A    
N14   N31   A    
C84   C88   S    
C41   C60   A    
C5    C66   S    
N3    Ni2   S    
C69   C87   S    
C42   C59   A    
C22   C58   A    
C71   C80   S    
C19   H12   S    
C22   H36   S    
C14   C47   S    
C62   H18   S    
C22   N5    A    
N20   Ni5   S    
N18   Ni6   S    
N12   Ni2   S    
N16   Ni8   S    
C31   C52   A    
C29   C46   A    
N5    N26   A    
C5    C76   S    
C7    C69   S    
C9    C15   D    
C6    I15   S    
N31   Ni4   S    
C27   N9    A    
C40   N22   A    
C55   C80   S    
C60   C84   S    
C5    I14   S    
C29   I3    S    
N1    Ni1   S    
C24   C59   A    
C30   I4    S    
N4    N18   A    
C21   N4    A    
N32   Ni2   S    
C73   C82   S    
N11   Ni6   S    
C28   I2    S    
N30   Ni3   S    
C59   C87   S    
C88   I9    S    
C37   N19   A    
C41   N24   A    
C13   C50   S    
C37   C55   A    
N3    N19   A    
C7    C82   S    
C34   C48   A    
N16   N29   A    
C63   C76   S    
C32   N15   A    
C8    C70   S    
C23   I18   S    
C19   N2    A    
C43   C58   A    
C77   H16   S    
N8    Ni3   S    
C56   I21   S    
C76   C85   S    
C38   N20   A    
N22   Ni8   S    
C67   I22   S    
C11   H29   S    
