data_mof_unit_28223.cif
_audit_creation_date              2012-12-11T15:45:05-0500
_audit_creation_method            fapswitch 2.2
_symmetry_space_group_name_H-M    P1
_symmetry_Int_Tables_number       1
_space_group_crystal_system       triclinic
_cell_length_a                    6.925406
_cell_length_b                    16.853624
_cell_length_c                    17.079634
_cell_angle_alpha                 100.430557
_cell_angle_beta                  88.058113
_cell_angle_gamma                 91.736741
_cell_volume                      1958.84285228

loop_
_atom_site_label
_atom_site_type_symbol
_atom_type_description
_atom_site_fract_x
_atom_site_fract_y
_atom_site_fract_z
_atom_type_partial_charge
O1    O     O_R   0.494370 0.415690 0.413450 -0.543569
O2    O     O_R   0.819420 0.429360 0.578420 -0.525786
O3    O     O_R   0.994280 0.584310 0.586550 -0.519903
C1    C     C_R   0.646003 0.411253 0.602842 0.721335
O4    O     O_R   0.823790 0.406230 0.413570 -0.521647
O5    O     O_R   0.998670 0.561000 0.420530 -0.547428
C2    C     C_R   0.655102 0.382298 0.385810 0.727860
O6    O     O_R   0.489970 0.439000 0.579470 -0.543820
O7    O     O_3   0.662300 0.550810 0.502470 -0.363066
V1    V     V_3+5 0.935380 0.490570 0.499540 1.479618
O8    O     O_R   0.328650 0.570640 0.421580 -0.521311
C3    C     C_R   0.164854 0.586000 0.394080 0.723459
O9    O     O_R   0.324290 0.593770 0.586430 -0.546094
C4    C     C_R   0.154395 0.617975 0.614201 0.692255
V2    V     V_3+5 0.435930 0.509430 0.500460 1.461150
O10   O     O_3   0.159140 0.449190 0.497530 -0.360491
C5    C     C_R   0.299786 0.707949 0.731920 -0.217485
H1    H     H_    0.430908 0.673771 0.721113 0.150239
C6    C     C_R   0.290388 0.771434 0.797247 -0.164323
H2    H     H_    0.415284 0.785069 0.834272 0.129716
C7    C     C_R   0.120953 0.815663 0.815516 -0.072200
C8    C     C_R   0.962555 0.796121 0.765897 -0.191273
H3    H     H_    0.832374 0.830823 0.778368 0.114174
C9    C     C_R   0.971736 0.733782 0.698708 0.213374
C10   C     C_R   0.141531 0.687686 0.681997 -0.061417
C11   C     C_R   0.175288 0.638398 0.331625 -0.065687
C12   C     C_R   0.091387 0.858846 0.165450 -0.066690
C13   C     C_R   0.902030 0.802208 0.266981 -0.187435
C14   C     C_R   0.922733 0.856336 0.213752 -0.146725
C15   C     C_R   0.240170 0.805605 0.172098 -0.231419
C16   C     C_R   0.218330 0.749692 0.224600 0.132108
C17   C     C_R   0.048420 0.748088 0.272725 0.158171
C18   C     C_R   0.028066 0.692843 0.325928 -0.312370
C19   C     C_R   0.341863 0.638584 0.280672 0.200336
C20   C     C_R   0.362460 0.694342 0.228677 -0.249936
H4    H     H_    0.900160 0.693775 0.364423 0.131006
H5    H     H_    0.770179 0.802094 0.303000 0.121819
H6    H     H_    0.491977 0.693902 0.191112 0.125729
H7    H     H_    0.805180 0.896366 0.210131 0.132316
H8    H     H_    0.369718 0.805811 0.134670 0.119744
C21   C     C_R   0.619651 0.354394 0.660072 -0.134721
C22   C     C_R   0.645932 0.138210 0.833847 -0.087908
C23   C     C_R   0.855834 0.185921 0.734047 -0.140846
C24   C     C_R   0.820364 0.135435 0.789250 -0.160036
C25   C     C_R   0.507635 0.193945 0.822879 -0.206787
C26   C     C_R   0.543511 0.247199 0.768457 0.100005
C27   C     C_R   0.717398 0.241337 0.721059 0.067058
C28   C     C_R   0.749533 0.291416 0.662673 0.137609
C29   C     C_R   0.451663 0.360475 0.709143 -0.234172
C30   C     C_R   0.409852 0.306691 0.761395 0.191936
H9    H     H_    0.350223 0.407558 0.706455 0.143941
H10   H     H_    0.995958 0.182377 0.703930 0.149828
H11   H     H_    0.931763 0.094092 0.797289 0.128753
H12   H     H_    0.375085 0.197208 0.858713 0.155591
C31   C     C_R   0.790061 0.253449 0.305837 0.151393
C32   C     C_R   0.779056 0.188389 0.240733 -0.074556
C33   C     C_R   0.622246 0.181226 0.187920 -0.110349
C34   C     C_R   0.476326 0.238506 0.203635 -0.156812
H13   H     H_    0.354035 0.234515 0.165096 0.135722
C35   C     C_R   0.487757 0.302839 0.267887 -0.216199
H14   H     H_    0.373937 0.346541 0.276864 0.137219
C36   C     C_R   0.645070 0.311998 0.318936 -0.047116
O11   O     O_R   0.774880 0.061150 0.920630 -0.541570
O12   O     O_R   0.440980 0.093710 0.086500 -0.532990
O13   O     O_R   0.266190 0.938890 0.079390 -0.534275
C37   C     C_R   0.609548 0.115165 0.116690 0.707483
O14   O     O_R   0.445420 0.070740 0.921670 -0.543997
O15   O     O_R   0.270660 0.915760 0.913380 -0.543984
C38   C     C_R   0.618689 0.086454 0.895219 0.697219
O16   O     O_R   0.770400 0.084270 0.086640 -0.533726
O17   O     O_3   0.602590 0.949210 0.997500 -0.375645
V3    V     V_3+5 0.329470 0.009420 0.000470 1.432468
O18   O     O_R   0.940650 0.906250 0.913470 -0.546351
C39   C     C_R   0.110153 0.883235 0.884808 0.683948
O19   O     O_R   0.936210 0.929220 0.078300 -0.543657
C40   C     C_R   0.100459 0.912560 0.104571 0.743908
V4    V     V_3+5 0.828930 0.990510 0.999490 1.421630
O20   O     O_3   0.105680 0.050790 0.002500 -0.363071
N1    N     N_3   0.906505 0.276560 0.604259 -0.632783
H15   H     H_    0.936626 0.215221 0.592293 0.207497
H16   H     H_    0.855845 0.283808 0.549117 0.228770
N2    N     N_3   0.233392 0.313680 0.808749 -0.676695
H17   H     H_    0.138449 0.351888 0.788168 0.241139
H18   H     H_    0.268492 0.340990 0.866627 0.219801
N3    N     N_3   0.945763 0.259038 0.360263 -0.659987
H19   H     H_    0.076580 0.261980 0.328406 0.235082
H20   H     H_    0.942845 0.207017 0.385658 0.223435
C41   C     C_1   0.927803 0.128491 0.231294 0.287522
N4    N     N_1   0.047490 0.081072 0.224329 -0.367605
N5    N     N_3   0.810722 0.718742 0.646599 -0.648167
H21   H     H_    0.855316 0.734862 0.592379 0.213438
H22   H     H_    0.696303 0.756227 0.668652 0.213656
N6    N     N_3   0.490497 0.581183 0.280528 -0.660823
H23   H     H_    0.505045 0.547558 0.222953 0.217738
H24   H     H_    0.620684 0.612951 0.293981 0.226703

loop_
_geom_bond_atom_site_label_1
_geom_bond_atom_site_label_2
_ccdc_geom_bond_type
C31   C32   A    
N6    H23   S    
C12   C14   A    
O18   C39   A    
O15   C39   A    
C6    H2    S    
C19   N6    S    
C33   C37   S    
C1    O6    A    
N5    H21   S    
V4    O20   S    
O13   C40   A    
C28   N1    S    
C13   C14   A    
C6    C7    A    
C19   C20   A    
O5    C3    A    
C15   C16   A    
C23   H10   S    
C32   C41   S    
C1    C21   S    
C34   C35   A    
V2    O10   S    
C31   C36   A    
C18   H4    S    
C32   C33   A    
C35   C36   A    
O14   V3    S    
V3    O20   S    
O8    V2    S    
C24   H11   S    
C11   C19   A    
O11   C38   A    
C29   H9    S    
O1    V2    S    
O7    V1    S    
N6    H24   S    
O9    C4    A    
C12   C15   A    
C22   C24   A    
C21   C29   A    
N3    H20   S    
C27   C28   A    
C13   C17   A    
C20   H6    S    
C9    C10   A    
O4    C2    A    
C34   H13   S    
N3    H19   S    
C7    C39   S    
C22   C38   S    
C3    C11   S    
C35   H14   S    
O14   C38   A    
C22   C25   A    
O12   C37   A    
C31   N3    S    
O2    C1    A    
O19   C40   A    
C2    C36   S    
C11   C18   A    
N5    H22   S    
C16   C17   A    
O15   V3    S    
C14   H7    S    
C5    H1    S    
C15   H8    S    
O19   V4    S    
O3    C4    A    
C25   H12   S    
N2    H17   S    
O6    V2    S    
N2    H18   S    
O9    V2    S    
C23   C24   A    
C16   C20   A    
C12   C40   S    
O2    V1    S    
O17   V4    S    
C30   N2    S    
N1    H16   S    
O11   V4    S    
C26   C27   A    
O1    C2    A    
C9    N5    S    
O5    V1    S    
O8    C3    A    
O13   V3    S    
C26   C30   A    
C5    C10   A    
C17   C18   A    
O7    V2    S    
O17   V3    S    
O3    V1    S    
V1    O10   S    
C33   C34   A    
C37   O16   A    
C13   H5    S    
C5    C6    A    
C21   C28   A    
C8    C9    A    
O12   V3    S    
C4    C10   S    
N1    H15   S    
C25   C26   A    
O4    V1    S    
C41   N4    T    
C29   C30   A    
O18   V4    S    
C8    H3    S    
C7    C8    A    
C23   C27   A    
O16   V4    S    
