data_mof_unit_9796.cif
_audit_creation_date              2012-12-10T17:19:09-0500
_audit_creation_method            fapswitch 2.2
_symmetry_space_group_name_H-M    P1
_symmetry_Int_Tables_number       1
_space_group_crystal_system       triclinic
_cell_length_a                    18.285361
_cell_length_b                    18.285612
_cell_length_c                    34.538466
_cell_angle_alpha                 89.999288
_cell_angle_beta                  89.996244
_cell_angle_gamma                 90.167011
_cell_volume                      11548.198438

loop_
_atom_site_label
_atom_site_type_symbol
_atom_type_description
_atom_site_fract_x
_atom_site_fract_y
_atom_site_fract_z
_atom_type_partial_charge
C1    C     C_R   0.513676 0.134069 0.520456 -0.068363
C2    C     C_R   0.486323 0.865931 0.479544 -0.068384
C3    C     C_R   0.134069 0.513719 0.520452 -0.068393
C4    C     C_R   0.865929 0.486288 0.479548 -0.068416
C5    C     C_R   0.486330 0.865930 0.520459 -0.068377
C6    C     C_R   0.513676 0.134069 0.479541 -0.068384
C7    C     C_R   0.865939 0.486255 0.520464 -0.068360
C8    C     C_R   0.134064 0.513733 0.479536 -0.068391
C9    C     C_R   0.013982 0.634030 0.020457 -0.067707
C10   C     C_R   0.985928 0.365975 0.979542 -0.067205
C11   C     C_R   0.633859 0.019164 0.020457 -0.101289
C12   C     C_R   0.365658 0.991342 0.979558 -0.065572
C13   C     C_R   0.986008 0.365952 0.020458 -0.067153
C14   C     C_R   0.013921 0.634047 0.979542 -0.067676
C15   C     C_R   0.365876 0.989973 0.020456 -0.066259
C16   C     C_R   0.633485 0.022384 0.979576 -0.074477
C17   C     C_R   0.312348 0.742293 0.774125 0.076776
C18   C     C_R   0.687658 0.257698 0.225868 0.076643
C19   C     C_R   0.267800 0.322316 0.761837 0.072122
C20   C     C_R   0.732197 0.677679 0.238172 0.072126
C21   C     C_R   0.757697 0.187663 0.725866 0.077040
C22   C     C_R   0.242293 0.812348 0.274128 0.076748
C23   C     C_R   0.732197 0.677679 0.761831 0.072144
C24   C     C_R   0.267804 0.322319 0.238168 0.072137
C25   C     C_R   0.322322 0.267801 0.238168 0.072130
C26   C     C_R   0.677678 0.732196 0.761829 0.072266
C27   C     C_R   0.187647 0.757704 0.274127 0.076740
C28   C     C_R   0.812342 0.242307 0.725867 0.077012
C29   C     C_R   0.677680 0.732197 0.238171 0.072124
C30   C     C_R   0.322316 0.267796 0.761840 0.072124
C31   C     C_R   0.742300 0.312346 0.225870 0.076693
C32   C     C_R   0.257703 0.687648 0.774124 0.076719
C33   C     C_R   0.812342 0.242300 0.274130 0.076679
C34   C     C_R   0.187654 0.757704 0.725871 0.076729
C35   C     C_R   0.767802 0.822320 0.261829 0.072106
C36   C     C_R   0.232200 0.177683 0.738165 0.072113
C37   C     C_R   0.257707 0.687652 0.225873 0.076756
C38   C     C_R   0.742307 0.312331 0.774143 0.076864
C39   C     C_R   0.232196 0.177680 0.261831 0.072137
C40   C     C_R   0.767802 0.822319 0.738167 0.072185
C41   C     C_R   0.822322 0.767802 0.738168 0.072089
C42   C     C_R   0.177678 0.232198 0.261831 0.072142
C43   C     C_R   0.687665 0.257684 0.774144 0.076926
C44   C     C_R   0.312354 0.742295 0.225874 0.076755
C45   C     C_R   0.177683 0.232202 0.738164 0.072114
C46   C     C_R   0.822319 0.767802 0.261831 0.072119
C47   C     C_R   0.242297 0.812350 0.725873 0.076745
C48   C     C_R   0.757700 0.187653 0.274128 0.076660
C49   C     C_R   0.304103 0.804106 0.750001 -0.143331
C50   C     C_R   0.695897 0.195892 0.249998 -0.143697
C51   C     C_R   0.195949 0.304054 0.749999 -0.154757
C52   C     C_R   0.804052 0.695946 0.250002 -0.154934
C53   C     C_R   0.695894 0.195894 0.750002 -0.141755
C54   C     C_R   0.304107 0.804104 0.250001 -0.143442
C55   C     C_R   0.804054 0.695948 0.750000 -0.154761
C56   C     C_R   0.195947 0.304053 0.249999 -0.154905
C57   C     C_R   0.304053 0.195947 0.250000 -0.154882
C58   C     C_R   0.695946 0.804051 0.749999 -0.154166
C59   C     C_R   0.195893 0.695896 0.249999 -0.143467
C60   C     C_R   0.804105 0.304104 0.750003 -0.142640
C61   C     C_R   0.695948 0.804053 0.249999 -0.154994
C62   C     C_R   0.304051 0.195945 0.750002 -0.154792
C63   C     C_R   0.804103 0.304107 0.250001 -0.143602
C64   C     C_R   0.195896 0.695893 0.749998 -0.143481
C65   C     C_R   0.492429 0.934430 0.581417 -0.234568
C66   C     C_R   0.507571 0.065570 0.418583 -0.234539
C67   C     C_R   0.934436 0.492396 0.581419 -0.234518
C68   C     C_R   0.065564 0.507604 0.418581 -0.234525
C69   C     C_R   0.507572 0.065570 0.581416 -0.234585
C70   C     C_R   0.492429 0.934430 0.418584 -0.234531
C71   C     C_R   0.065572 0.507587 0.581414 -0.234584
C72   C     C_R   0.934428 0.492411 0.418586 -0.234605
C73   C     C_R   0.992277 0.434443 0.081418 -0.234588
C74   C     C_R   0.007681 0.565556 0.918583 -0.234579
C75   C     C_R   0.434495 0.993742 0.081370 -0.234504
C76   C     C_R   0.565477 0.009935 0.918564 -0.197089
C77   C     C_R   0.007721 0.565549 0.081416 -0.234425
C78   C     C_R   0.992244 0.434449 0.918584 -0.233548
C79   C     C_R   0.565561 0.009283 0.081448 -0.234555
C80   C     C_R   0.434177 0.996614 0.918610 -0.232623
C81   C     C_R   0.500000 0.000000 0.601630 -0.033195
C82   C     C_R   0.500000 0.999999 0.398370 -0.033290
C83   C     C_R   0.000004 0.499994 0.601630 -0.033279
C84   C     C_R   0.999996 0.500006 0.398370 -0.033267
C85   C     C_R   0.000001 0.499997 0.101630 -0.033329
C86   C     C_R   0.999976 0.500001 0.898369 -0.033471
C87   C     C_R   0.500044 0.000787 0.101618 -0.036403
C88   C     C_R   0.499909 0.002061 0.898382 -0.057551
C89   C     C_R   0.506858 0.067051 0.540771 0.017959
C90   C     C_R   0.493142 0.932949 0.459229 0.017963
C91   C     C_R   0.067053 0.506873 0.540769 0.017975
C92   C     C_R   0.932946 0.493130 0.459231 0.017983
C93   C     C_R   0.493146 0.932948 0.540773 0.017951
C94   C     C_R   0.506857 0.067051 0.459227 0.017959
C95   C     C_R   0.932955 0.493103 0.540775 0.017948
C96   C     C_R   0.067046 0.506890 0.459225 0.017955
C97   C     C_R   0.007010 0.567029 0.040772 0.017942
C98   C     C_R   0.992926 0.432972 0.959228 0.017706
C99   C     C_R   0.567057 0.010077 0.040786 0.041335
C100  C     C_R   0.432681 0.998191 0.959239 0.017345
C101  C     C_R   0.992989 0.432956 0.040773 0.017914
C102  C     C_R   0.006956 0.567042 0.959227 0.018030
C103  C     C_R   0.432960 0.995994 0.040750 0.017571
C104  C     C_R   0.566679 0.013459 0.959177 0.055092
C105  C     C_R   0.000002 0.499999 0.644104 0.805814
C106  C     C_R   0.999998 0.500001 0.355896 0.805823
C107  C     C_R   0.500000 0.000000 0.644104 0.805716
C108  C     C_R   0.500000 1.000000 0.355896 0.805826
C109  C     C_R   0.500008 0.000035 0.144100 0.806632
C110  C     C_R   0.499991 0.000132 0.855903 0.809793
C111  C     C_R   0.999999 0.500000 0.144104 0.805819
C112  C     C_R   0.999998 0.500000 0.855896 0.805935
C113  C     C_R   0.860169 0.639833 0.750000 0.782931
C114  C     C_R   0.139832 0.360168 0.250000 0.782923
C115  C     C_R   0.360220 0.860221 0.750000 0.786251
C116  C     C_R   0.639780 0.139778 0.249999 0.786528
C117  C     C_R   0.139834 0.360168 0.750000 0.782798
C118  C     C_R   0.860167 0.639833 0.250001 0.782935
C119  C     C_R   0.639778 0.139779 0.750000 0.785927
C120  C     C_R   0.360222 0.860221 0.250000 0.786416
C121  C     C_R   0.860220 0.360222 0.250000 0.786470
C122  C     C_R   0.139779 0.639779 0.749999 0.786424
C123  C     C_R   0.360168 0.139832 0.250000 0.782843
C124  C     C_R   0.639831 0.860167 0.750000 0.781624
C125  C     C_R   0.139778 0.639779 0.250000 0.786425
C126  C     C_R   0.860220 0.360222 0.750001 0.786289
C127  C     C_R   0.639833 0.860167 0.249999 0.783099
C128  C     C_R   0.360166 0.139832 0.750000 0.783085
C129  C     C_R   0.266126 0.625919 0.798487 -0.138998
C130  C     C_R   0.733880 0.374071 0.201504 -0.139098
C131  C     C_R   0.393792 0.286284 0.774533 -0.139053
C132  C     C_R   0.606199 0.713700 0.225490 -0.139382
C133  C     C_R   0.874065 0.233892 0.701496 -0.138727
C134  C     C_R   0.125916 0.766127 0.298491 -0.138926
C135  C     C_R   0.606194 0.713697 0.774511 -0.139296
C136  C     C_R   0.393805 0.286297 0.225484 -0.139431
C137  C     C_R   0.286303 0.393799 0.225484 -0.139421
C138  C     C_R   0.713701 0.606199 0.774516 -0.139332
C139  C     C_R   0.233866 0.874073 0.298492 -0.138900
C140  C     C_R   0.766116 0.125945 0.701495 -0.138429
C141  C     C_R   0.713701 0.606198 0.225491 -0.139437
C142  C     C_R   0.286295 0.393793 0.774525 -0.139473
C143  C     C_R   0.625939 0.266117 0.201499 -0.139449
C144  C     C_R   0.374075 0.733866 0.798487 -0.138975
C145  C     C_R   0.766120 0.125927 0.298493 -0.139035
C146  C     C_R   0.233874 0.874079 0.701510 -0.138834
C147  C     C_R   0.893800 0.786298 0.274513 -0.139504
C148  C     C_R   0.106206 0.213711 0.725475 -0.139241
C149  C     C_R   0.374086 0.733870 0.201512 -0.138732
C150  C     C_R   0.625953 0.266086 0.798524 -0.132024
C151  C     C_R   0.106195 0.213702 0.274514 -0.139529
C152  C     C_R   0.893804 0.786300 0.725484 -0.139417
C153  C     C_R   0.786299 0.893799 0.725482 -0.138318
C154  C     C_R   0.213698 0.106200 0.274515 -0.139423
C155  C     C_R   0.733892 0.374043 0.798517 -0.138314
C156  C     C_R   0.266134 0.625926 0.201509 -0.138885
C157  C     C_R   0.213705 0.106205 0.725479 -0.139435
C158  C     C_R   0.786298 0.893801 0.274511 -0.139723
C159  C     C_R   0.125930 0.766128 0.701507 -0.138854
C160  C     C_R   0.874064 0.233879 0.298496 -0.138985
C161  C     C_R   0.327180 0.618982 0.822344 -0.139189
C162  C     C_R   0.672833 0.381001 0.177641 -0.139068
C163  C     C_R   0.410833 0.357220 0.786219 -0.136778
C164  C     C_R   0.589156 0.642758 0.213814 -0.137046
C165  C     C_R   0.880996 0.172846 0.677631 -0.138997
C166  C     C_R   0.118979 0.827180 0.322350 -0.139095
C167  C     C_R   0.589152 0.642756 0.786191 -0.136989
C168  C     C_R   0.410850 0.357237 0.213804 -0.137052
C169  C     C_R   0.357246 0.410841 0.213804 -0.137079
C170  C     C_R   0.642759 0.589154 0.786194 -0.137038
C171  C     C_R   0.172808 0.881007 0.322351 -0.139087
C172  C     C_R   0.827168 0.119019 0.677631 -0.138882
C173  C     C_R   0.642760 0.589154 0.213814 -0.137054
C174  C     C_R   0.357231 0.410828 0.786214 -0.136903
C175  C     C_R   0.619009 0.327169 0.177639 -0.139215
C176  C     C_R   0.381008 0.672809 0.822344 -0.139314
C177  C     C_R   0.827170 0.118995 0.322354 -0.139121
C178  C     C_R   0.172824 0.881012 0.677650 -0.139056
C179  C     C_R   0.910842 0.857239 0.286191 -0.137249
C180  C     C_R   0.089164 0.142773 0.713792 -0.136814
C181  C     C_R   0.381023 0.672816 0.177653 -0.138944
C182  C     C_R   0.619027 0.327126 0.822393 -0.133698
C183  C     C_R   0.089150 0.142761 0.286193 -0.137326
C184  C     C_R   0.910847 0.857240 0.713803 -0.137188
C185  C     C_R   0.857241 0.910843 0.713802 -0.136545
C186  C     C_R   0.142754 0.089157 0.286194 -0.137219
C187  C     C_R   0.672849 0.380960 0.822389 -0.138312
C188  C     C_R   0.327194 0.618991 0.177651 -0.139055
C189  C     C_R   0.142767 0.089167 0.713794 -0.137074
C190  C     C_R   0.857239 0.910843 0.286190 -0.137401
C191  C     C_R   0.118998 0.827183 0.677648 -0.139048
C192  C     C_R   0.880995 0.172825 0.322356 -0.139123
C193  C     C_R   0.500001 1.000000 0.520340 0.062965
C194  C     C_R   0.500000 1.000000 0.479660 0.062962
C195  C     C_R   0.000002 0.499994 0.520340 0.062954
C196  C     C_R   0.999998 0.500004 0.479660 0.062972
C197  C     C_R   0.999983 0.499996 0.020340 0.062729
C198  C     C_R   0.999957 0.500004 0.979660 0.062677
C199  C     C_R   0.499933 0.003906 0.020332 0.062011
C200  C     C_R   0.499754 0.005417 0.979645 0.045782
H1    H     H_    0.225667 0.582637 0.799461 0.110534
H2    H     H_    0.774337 0.417356 0.200531 0.110558
H3    H     H_    0.437206 0.246340 0.775870 0.129016
H4    H     H_    0.562782 0.753641 0.224155 0.129053
H5    H     H_    0.917348 0.274351 0.700522 0.110440
H6    H     H_    0.082633 0.725669 0.299465 0.110544
H7    H     H_    0.562775 0.753635 0.775843 0.128931
H8    H     H_    0.437222 0.246356 0.224149 0.129045
H9    H     H_    0.246363 0.437217 0.224149 0.129040
H10   H     H_    0.753644 0.562784 0.775853 0.128999
H11   H     H_    0.274326 0.917355 0.299467 0.110526
H12   H     H_    0.725657 0.082663 0.700520 0.110062
H13   H     H_    0.753641 0.562780 0.224157 0.129050
H14   H     H_    0.246356 0.437212 0.775856 0.129029
H15   H     H_    0.582660 0.225654 0.200522 0.110553
H16   H     H_    0.417357 0.774324 0.799461 0.110393
H17   H     H_    0.725663 0.082643 0.299467 0.110605
H18   H     H_    0.274333 0.917362 0.700536 0.110548
H19   H     H_    0.937216 0.746357 0.275849 0.129048
H20   H     H_    0.062791 0.253653 0.724139 0.129028
H21   H     H_    0.417370 0.774328 0.200538 0.110573
H22   H     H_    0.582675 0.225622 0.799501 0.111002
H23   H     H_    0.062777 0.253642 0.275848 0.129049
H24   H     H_    0.937223 0.746360 0.724151 0.129043
H25   H     H_    0.746357 0.937215 0.724146 0.128800
H26   H     H_    0.253638 0.062783 0.275850 0.129035
H27   H     H_    0.774348 0.417328 0.799490 0.110633
H28   H     H_    0.225674 0.582645 0.200533 0.110543
H29   H     H_    0.253644 0.062786 0.724146 0.129014
H30   H     H_    0.746358 0.937218 0.275845 0.129080
H31   H     H_    0.082649 0.725667 0.700531 0.110528
H32   H     H_    0.917345 0.274340 0.299472 0.110567
H33   H     H_    0.071709 0.832674 0.659034 0.131715
H34   H     H_    0.928283 0.167335 0.340971 0.131762
H35   H     H_    0.129439 0.034239 0.704457 0.135743
H36   H     H_    0.870567 0.965773 0.295523 0.135711
H37   H     H_    0.667362 0.428243 0.841009 0.132135
H38   H     H_    0.332688 0.571700 0.159038 0.131773
H39   H     H_    0.870569 0.965772 0.704465 0.135800
H40   H     H_    0.129424 0.034228 0.295529 0.135712
H41   H     H_    0.034218 0.129433 0.295528 0.135700
H42   H     H_    0.965778 0.870569 0.704468 0.135761
H43   H     H_    0.428319 0.667324 0.159040 0.131807
H44   H     H_    0.571744 0.332604 0.841016 0.132632
H45   H     H_    0.965772 0.870567 0.295525 0.135722
H46   H     H_    0.034237 0.129448 0.704453 0.135823
H47   H     H_    0.832659 0.071703 0.340968 0.131772
H48   H     H_    0.167334 0.928304 0.659037 0.131718
H49   H     H_    0.571723 0.332657 0.159022 0.131842
H50   H     H_    0.428299 0.667315 0.840956 0.131771
H51   H     H_    0.629431 0.534224 0.204481 0.135766
H52   H     H_    0.370559 0.465755 0.795553 0.135731
H53   H     H_    0.167314 0.928298 0.340964 0.131747
H54   H     H_    0.832658 0.071733 0.659014 0.131633
H55   H     H_    0.370576 0.465771 0.204469 0.135737
H56   H     H_    0.629431 0.534224 0.795531 0.135476
H57   H     H_    0.534220 0.629425 0.795524 0.135742
H58   H     H_    0.465781 0.370565 0.204468 0.135777
H59   H     H_    0.928286 0.167360 0.659014 0.131690
H60   H     H_    0.071685 0.832671 0.340964 0.131754
H61   H     H_    0.465758 0.370542 0.795562 0.135211
H62   H     H_    0.534226 0.629429 0.204480 0.135733
H63   H     H_    0.332670 0.571689 0.840957 0.131837
H64   H     H_    0.667344 0.428292 0.159027 0.131828
H65   H     H_    0.485394 0.884568 0.597853 0.163713
H66   H     H_    0.514602 0.115433 0.402147 0.163704
H67   H     H_    0.884572 0.485357 0.597855 0.163708
H68   H     H_    0.115426 0.514653 0.402144 0.163707
H69   H     H_    0.514605 0.115433 0.597850 0.163690
H70   H     H_    0.485400 0.884566 0.402150 0.163707
H71   H     H_    0.115432 0.514642 0.597847 0.163683
H72   H     H_    0.884570 0.485347 0.402152 0.163669
H73   H     H_    0.985101 0.384605 0.097856 0.163574
H74   H     H_    0.014852 0.615397 0.902146 0.163689
H75   H     H_    0.384633 0.986163 0.097752 0.164796
H76   H     H_    0.615581 0.012136 0.902063 0.201040
H77   H     H_    0.014854 0.615401 0.097849 0.163747
H78   H     H_    0.985130 0.384594 0.902150 0.164155
H79   H     H_    0.615174 0.016321 0.098025 0.162256
H80   H     H_    0.384305 0.989428 0.902209 0.165214
O1    O     O_3   0.000000 0.500000 0.750000 -0.490718
O2    O     O_3   1.000000 0.500000 0.250000 -0.490549
O3    O     O_3   0.500000 0.000000 0.750000 -0.491926
O4    O     O_3   0.500000 0.000000 0.250000 -0.490495
O5    O     O_R   0.060740 0.500000 0.662560 -0.643801
O6    O     O_R   0.939260 0.500000 0.337440 -0.643795
O7    O     O_R   0.500000 0.060740 0.662560 -0.643872
O8    O     O_R   0.500000 0.939260 0.337440 -0.643780
O9    O     O_R   0.939260 0.500000 0.662560 -0.643791
O10   O     O_R   0.060740 0.500000 0.337440 -0.643776
O11   O     O_R   0.500000 0.939260 0.662560 -0.643841
O12   O     O_R   0.500000 0.060740 0.337440 -0.643779
O13   O     O_R   0.560740 0.000000 0.162560 -0.644413
O14   O     O_R   0.439260 0.000000 0.837440 -0.643392
O15   O     O_R   1.000000 0.560740 0.162560 -0.643814
O16   O     O_R   1.000000 0.439260 0.837440 -0.643534
O17   O     O_R   0.439260 0.000000 0.162560 -0.643491
O18   O     O_R   0.560740 0.000000 0.837440 -0.639936
O19   O     O_R   1.000000 0.439260 0.162560 -0.643883
O20   O     O_R   1.000000 0.560740 0.837440 -0.643863
O21   O     O_R   0.853850 0.585450 0.727070 -0.637264
O22   O     O_R   0.146150 0.414550 0.272930 -0.637156
O23   O     O_R   0.414550 0.853850 0.727070 -0.633938
O24   O     O_R   0.585450 0.146150 0.272930 -0.633706
O25   O     O_R   0.146150 0.414550 0.727070 -0.637254
O26   O     O_R   0.853850 0.585450 0.272930 -0.637162
O27   O     O_R   0.585450 0.146150 0.727070 -0.635358
O28   O     O_R   0.414550 0.853850 0.272930 -0.633905
O29   O     O_R   0.853850 0.414550 0.272930 -0.633823
O30   O     O_R   0.146150 0.585450 0.727070 -0.633891
O31   O     O_R   0.414550 0.146150 0.272930 -0.637171
O32   O     O_R   0.585450 0.853850 0.727070 -0.637621
O33   O     O_R   0.146150 0.585450 0.272930 -0.633865
O34   O     O_R   0.853850 0.414550 0.727070 -0.634278
O35   O     O_R   0.585450 0.853850 0.272930 -0.637117
O36   O     O_R   0.414550 0.146150 0.727070 -0.637342
O37   O     O_R   0.353850 0.085450 0.227070 -0.637273
O38   O     O_R   0.646150 0.914550 0.772930 -0.636169
O39   O     O_R   0.914550 0.353850 0.227070 -0.634131
O40   O     O_R   0.085450 0.646150 0.772930 -0.633975
O41   O     O_R   0.646150 0.914550 0.227070 -0.637465
O42   O     O_R   0.353850 0.085450 0.772930 -0.637135
O43   O     O_R   0.085450 0.646150 0.227070 -0.633962
O44   O     O_R   0.914550 0.353850 0.772930 -0.633041
O45   O     O_R   0.353850 0.914550 0.772930 -0.634097
O46   O     O_R   0.646150 0.085450 0.227070 -0.634557
O47   O     O_R   0.914550 0.646150 0.772930 -0.637107
O48   O     O_R   0.085450 0.353850 0.227070 -0.637313
O49   O     O_R   0.646150 0.085450 0.772930 -0.628761
O50   O     O_R   0.353850 0.914550 0.227070 -0.633798
O51   O     O_R   0.085450 0.353850 0.772930 -0.637104
O52   O     O_R   0.914550 0.646150 0.227070 -0.637320
Zn1   Zn    Zn3+2 0.000000 0.586740 0.782740 0.967703
Zn2   Zn    Zn3+2 0.000000 0.413260 0.217260 0.967386
Zn3   Zn    Zn3+2 0.413260 0.000000 0.782740 0.968100
Zn4   Zn    Zn3+2 0.586740 0.000000 0.217260 0.966585
Zn5   Zn    Zn3+2 0.000000 0.413260 0.782740 0.968564
Zn6   Zn    Zn3+2 0.000000 0.586740 0.217260 0.967558
Zn7   Zn    Zn3+2 0.586740 0.000000 0.782740 0.976707
Zn8   Zn    Zn3+2 0.413260 0.000000 0.217260 0.967879
Zn9   Zn    Zn3+2 0.500000 0.086740 0.282740 0.967777
Zn10  Zn    Zn3+2 0.500000 0.913260 0.717260 0.967066
Zn11  Zn    Zn3+2 0.913260 0.500000 0.282740 0.967765
Zn12  Zn    Zn3+2 0.086740 0.500000 0.717260 0.967654
Zn13  Zn    Zn3+2 0.500000 0.913260 0.282740 0.967814
Zn14  Zn    Zn3+2 0.500000 0.086740 0.717260 0.967340
Zn15  Zn    Zn3+2 0.086740 0.500000 0.282740 0.967764
Zn16  Zn    Zn3+2 0.913260 0.500000 0.717260 0.967581
C201  C     C_2   0.515456 0.204313 0.542167 0.448576
H81   H     H_    0.472372 0.216703 0.562739 0.037218
O53   O     O_2   0.566431 0.246983 0.538565 -0.449584
C202  C     C_2   0.484531 0.795690 0.457832 0.448769
H82   H     H_    0.527634 0.783276 0.437275 0.037197
O54   O     O_2   0.433523 0.753052 0.461415 -0.449542
C203  C     C_2   0.204316 0.515510 0.542160 0.448444
H83   H     H_    0.216697 0.472452 0.562747 0.037281
O55   O     O_2   0.247004 0.566464 0.538535 -0.449579
C204  C     C_2   0.795677 0.484525 0.457842 0.448095
H84   H     H_    0.783352 0.527536 0.437218 0.037397
O56   O     O_2   0.752910 0.433649 0.461514 -0.449582
C205  C     C_2   0.484559 0.795684 0.542171 0.448497
H85   H     H_    0.527629 0.783312 0.562751 0.037244
O57   O     O_2   0.433608 0.752990 0.538558 -0.449579
C206  C     C_2   0.515460 0.204312 0.457828 0.448658
H86   H     H_    0.472370 0.216709 0.437264 0.037227
O58   O     O_2   0.566445 0.246972 0.461421 -0.449578
C207  C     C_2   0.795705 0.484396 0.542181 0.449162
H87   H     H_    0.783203 0.527547 0.562692 0.037075
O59   O     O_2   0.753184 0.433277 0.538659 -0.449590
C208  C     C_2   0.204303 0.515560 0.457820 0.448838
H88   H     H_    0.216743 0.472456 0.437270 0.037193
O60   O     O_2   0.246907 0.566597 0.461391 -0.449555
C209  C     C_2   0.016003 0.704256 0.042173 0.448069
H89   H     H_    0.972829 0.716896 0.062649 0.036418
O61   O     O_2   0.067282 0.746598 0.038696 -0.450739
C210  C     C_2   0.983843 0.295756 0.957826 0.450083
H90   H     H_    0.027080 0.283015 0.937405 0.036901
O62   O     O_2   0.932441 0.253544 0.961236 -0.453920
C211  C     C_2   0.704256 0.025634 0.042013 0.374550
H91   H     H_    0.716693 0.987975 0.065356 0.066474
O63   O     O_2   0.748218 0.073887 0.034317 -0.493564
C212  C     C_2   0.295275 0.990803 0.957896 0.438646
H92   H     H_    0.284355 0.033094 0.936639 0.039664
O64   O     O_2   0.250640 0.941801 0.962376 -0.451630
C213  C     C_2   0.984152 0.295691 0.042163 0.445404
H93   H     H_    0.027030 0.283396 0.062868 0.037741
O65   O     O_2   0.933358 0.252861 0.038386 -0.454040
C214  C     C_2   0.015779 0.704301 0.957834 0.445843
H94   H     H_    0.972839 0.716640 0.937172 0.037237
O66   O     O_2   0.066647 0.747060 0.961552 -0.451271
C215  C     C_2   0.295796 0.987316 0.042247 0.455357
H95   H     H_    0.282404 0.030926 0.062323 0.035067
O67   O     O_2   0.254645 0.934942 0.039382 -0.450323
C216  C     C_2   0.703952 0.033123 0.958703 0.497425
H96   H     H_    0.751288 0.000622 0.966495 0.080958
O68   O     O_2   0.710576 0.080855 0.934215 -0.526810

loop_
_geom_bond_atom_site_label_1
_geom_bond_atom_site_label_2
_ccdc_geom_bond_type
O4    Zn8   S    
C45   C148  A    
C143  C175  A    
C79   C87   A    
O19   Zn2   S    
C172  H54   S    
C79   C99   A    
C31   C130  A    
C176  H50   S    
C14   C102  A    
C29   C132  A    
C30   C131  A    
C126  O44   A    
C114  O22   A    
C2    C90   A    
C63   C121  S    
C16   C104  A    
C11   C211  S    
C210  O62   D    
C6    C94   A    
C164  H62   S    
C9    C97   A    
C139  C171  A    
C116  O46   A    
C130  H2    S    
C156  H28   S    
C48   C50   A    
C47   C146  A    
C199  C200  A    
O2    Zn6   S    
O41   Zn4   S    
C75   C103  A    
C36   C62   A    
C179  H45   S    
C40   C58   A    
C39   C154  A    
O46   Zn4   S    
C1    C6    A    
C140  H12   S    
C78   H78   S    
C3    C8    A    
C125  O43   A    
O2    Zn15  S    
C22   C139  A    
C74   H74   S    
C83   C105  S    
C4    C204  S    
C159  H31   S    
C97   C197  A    
C57   C123  S    
C205  O57   D    
C203  H83   S    
C89   C193  A    
C202  H82   S    
C163  H61   S    
C164  C173  A    
C61   C127  S    
C68   C96   A    
C72   C84   A    
C168  C169  A    
C49   C115  S    
C21   C28   A    
C22   C27   A    
C141  H13   S    
C126  O34   A    
C143  H15   S    
C114  O48   A    
C153  H25   S    
C75   H75   S    
C94   C194  A    
C27   C134  A    
O16   Zn5   S    
C92   C196  A    
C23   C55   A    
O22   Zn15  S    
O12   Zn9   S    
C24   C56   A    
C55   C113  S    
C37   C44   A    
O3    Zn7   S    
C38   C43   A    
C80   C88   A    
C155  C187  A    
C109  O13   A    
C110  O18   A    
C70   C82   A    
C105  O9    A    
C70   H70   S    
C216  H96   S    
C195  C196  A    
C146  H18   S    
C147  C179  A    
C193  C194  A    
C17   C32   A    
C184  H42   S    
O24   Zn9   S    
C18   C31   A    
C167  H57   S    
C15   C103  A    
C19   C30   A    
C213  O65   D    
C121  O39   A    
C127  O35   A    
O38   Zn7   S    
C67   C83   A    
C201  H81   S    
C123  O37   A    
O40   Zn1   S    
C145  H17   S    
C208  H88   S    
C157  H29   S    
C22   C54   A    
O42   Zn3   S    
C154  C186  A    
C155  H27   S    
C119  O27   A    
C17   C144  A    
O1    Zn1   S    
C18   C143  A    
O3    Zn3   S    
C180  C189  A    
C158  C190  A    
C101  C197  A    
C116  O24   A    
C67   H67   S    
C206  H86   S    
C146  C178  A    
C11   C99   A    
O5    Zn12  S    
C214  H94   S    
C160  H32   S    
C77   C97   A    
C82   C108  S    
C33   C160  A    
C129  H1    S    
C34   C159  A    
C130  C162  A    
C65   C93   A    
C77   C85   A    
C67   C95   A    
C104  C200  A    
C37   C156  A    
C25   C57   A    
C38   C155  A    
C4    C7    A    
C69   C89   A    
C32   C129  A    
C7    C207  S    
C71   C83   A    
C28   C60   A    
C29   C61   A    
C111  O15   A    
O23   Zn10  S    
C31   C63   A    
C32   C64   A    
C183  C186  A    
C17   C49   A    
C144  H16   S    
C161  C176  A    
O51   Zn5   S    
C162  C175  A    
C138  H10   S    
C105  O5    A    
C165  H59   S    
C166  H60   S    
C107  O7    A    
C108  O8    A    
C161  H63   S    
O32   Zn10  S    
C162  H64   S    
C33   C63   A    
O7    Zn14  S    
C48   C145  A    
C144  C176  A    
C34   C64   A    
C129  C161  A    
C35   C61   A    
C204  O56   D    
C42   C151  A    
C73   C85   A    
C37   C59   A    
C43   C150  A    
C36   C157  A    
C38   C60   A    
C100  C200  A    
C75   C87   A    
C203  O55   D    
C40   C153  A    
C2    C5    A    
C15   C215  S    
C135  H7    S    
C215  O67   D    
C20   C141  A    
C151  C183  A    
C24   C137  A    
C59   C125  S    
C120  O50   A    
C8    C208  S    
O30   Zn12  S    
C108  O12   A    
C185  H39   S    
C73   C101  A    
C51   C117  S    
C151  H23   S    
C127  O41   A    
C197  C198  A    
O4    Zn4   S    
C142  C174  A    
C44   C54   A    
O43   Zn6   S    
C121  O29   A    
C135  C167  A    
C123  O31   A    
C183  H41   S    
O6    Zn11  S    
O49   Zn7   S    
C181  H43   S    
C76   C104  A    
C149  C181  A    
C81   C107  S    
C212  H92   S    
C169  H55   S    
C23   C138  A    
C65   H65   S    
C211  H91   S    
C150  C182  A    
C173  H51   S    
C122  O40   A    
C110  O14   A    
C112  O20   A    
C154  H26   S    
O44   Zn5   S    
O20   Zn1   S    
C209  O61   D    
C30   C62   A    
C72   C92   A    
O11   Zn10  S    
C175  H49   S    
O3    Zn14  S    
C3    C91   A    
C23   C26   A    
C168  H58   S    
C41   C55   A    
O48   Zn2   S    
C42   C56   A    
C117  O51   A    
C43   C53   A    
C16   C216  S    
C202  O54   D    
C84   C106  S    
C134  C166  A    
C131  H3    S    
C74   C102  A    
C88   C110  S    
C2    C202  S    
C148  C180  A    
C177  C192  A    
O1    Zn5   S    
C150  H22   S    
O28   Zn13  S    
C181  C188  A    
C39   C42   A    
C156  C188  A    
O13   Zn4   S    
C212  O64   D    
C132  H4    S    
C68   C84   A    
C159  C191  A    
C10   C210  S    
C142  H14   S    
C1    C201  S    
O9    Zn16  S    
C136  H8    S    
C6    C206  S    
O17   Zn8   S    
O1    Zn12  S    
C28   C133  A    
C137  H9    S    
C112  O16   A    
O3    Zn10  S    
C9    C14   A    
C132  C164  A    
C133  C165  A    
C11   C16   A    
C65   C81   A    
C46   C147  A    
C90   C194  A    
C12   C15   A    
C131  C163  A    
C207  O59   D    
C14   C214  S    
C192  H34   S    
C26   C58   A    
C160  C192  A    
C216  O68   D    
C186  H40   S    
C117  O25   A    
C19   C142  A    
C111  O19   A    
C152  H24   S    
C12   C212  S    
O47   Zn1   S    
C18   C50   A    
C213  H93   S    
C205  H85   S    
C95   C195  A    
C106  O6    A    
C93   C193  A    
O18   Zn7   S    
O15   Zn6   S    
O50   Zn8   S    
C85   C111  S    
O37   Zn8   S    
C182  H44   S    
C208  O60   D    
C87   C109  S    
O36   Zn14  S    
C191  H33   S    
C44   C149  A    
C170  H56   S    
C35   C158  A    
C174  H52   S    
C177  H47   S    
C124  O38   A    
C206  O58   D    
C124  O32   A    
C12   C100  A    
C69   C81   A    
C69   H69   S    
C96   C196  A    
C71   C91   A    
C79   H79   S    
C99   C199  A    
O4    Zn9   S    
C80   H80   S    
C33   C48   A    
C115  O23   A    
C34   C47   A    
C21   C140  A    
C35   C46   A    
C118  O52   A    
C4    C92   A    
O39   Zn2   S    
C52   C118  S    
C21   C53   A    
C54   C120  S    
C138  C170  A    
C207  H87   S    
C8    C96   A    
C158  H30   S    
C215  H95   S    
C47   C49   A    
C41   C152  A    
C184  C185  A    
O2    Zn2   S    
C102  C198  A    
O27   Zn14  S    
C211  O63   D    
C66   C82   A    
O14   Zn3   S    
C45   C51   A    
C133  H5    S    
C39   C57   A    
C46   C52   A    
C122  O30   A    
C9    C209  S    
C76   H76   S    
O35   Zn13  S    
C77   H77   S    
C10   C98   A    
O21   Zn16  S    
O10   Zn15  S    
C26   C135  A    
C25   C136  A    
C73   H73   S    
O2    Zn11  S    
C78   C98   A    
O4    Zn13  S    
C152  C184  A    
C76   C88   A    
C137  C169  A    
C66   H66   S    
C113  O21   A    
C66   C94   A    
C78   C86   A    
C165  C172  A    
C166  C171  A    
C201  O53   D    
C80   C100  A    
C141  C173  A    
O25   Zn12  S    
C70   C90   A    
C149  H21   S    
C189  H35   S    
C187  H37   S    
C107  O11   A    
C167  C170  A    
C20   C29   A    
C98   C198  A    
C3    C203  S    
C188  H38   S    
C24   C25   A    
C125  O33   A    
O52   Zn6   S    
C5    C205  S    
C136  C168  A    
C139  H11   S    
C128  O36   A    
C68   H68   S    
C106  O10   A    
O31   Zn9   S    
C86   C112  S    
C148  H20   S    
O8    Zn13  S    
C171  H53   S    
C120  O28   A    
C36   C45   A    
O29   Zn11  S    
C103  C199  A    
C74   C86   A    
C134  H6    S    
O26   Zn11  S    
C178  H48   S    
C13   C213  S    
C71   H71   S    
C40   C41   A    
C109  O17   A    
O45   Zn3   S    
C13   C101  A    
C214  O66   D    
C210  H90   S    
O1    Zn16  S    
C1    C89   A    
O33   Zn15  S    
C10   C13   A    
C5    C93   A    
C53   C119  S    
C7    C95   A    
C91   C195  A    
C58   C124  S    
C119  O49   A    
C60   C126  S    
C113  O47   A    
C20   C52   A    
C27   C59   A    
C209  H89   S    
C62   C128  S    
C178  C191  A    
C115  O45   A    
C179  C190  A    
C153  C185  A    
C64   C122  S    
C118  O26   A    
C128  O42   A    
C50   C116  S    
C182  C187  A    
C204  H84   S    
C157  C189  A    
C147  H19   S    
C19   C51   A    
C190  H36   S    
C140  C172  A    
C145  C177  A    
C72   H72   S    
C56   C114  S    
C163  C174  A    
O34   Zn16  S    
C180  H46   S    
