data_mof_unit_30470.cif
_audit_creation_date              2012-12-10T19:01:19-0500
_audit_creation_method            fapswitch 2.2
_symmetry_space_group_name_H-M    P1
_symmetry_Int_Tables_number       1
_space_group_crystal_system       triclinic
_cell_length_a                    9.602316
_cell_length_b                    10.879864
_cell_length_c                    15.731737
_cell_angle_alpha                 88.974704
_cell_angle_beta                  73.186241
_cell_angle_gamma                 92.221454
_cell_volume                      1571.35343825

loop_
_atom_site_label
_atom_site_type_symbol
_atom_type_description
_atom_site_fract_x
_atom_site_fract_y
_atom_site_fract_z
_atom_type_partial_charge
C1    C     C_R   0.995949 0.262710 0.503411 0.787946
C2    C     C_R   0.676209 0.491671 0.910134 0.053728
C3    C     C_R   0.782161 0.499777 0.956326 0.106584
C4    C     C_R   0.527945 0.466263 0.958056 0.086399
C5    C     C_R   0.483123 0.476599 0.051612 0.055695
C6    C     C_R   0.591338 0.494467 0.095765 -0.205872
C7    C     C_R   0.738407 0.502632 0.048782 -0.213630
C8    C     C_R   0.426057 0.420819 0.915738 -0.157124
C9    C     C_R   0.280685 0.398006 0.962587 -0.248974
C10   C     C_R   0.231567 0.422682 0.052629 0.168901
C11   C     C_R   0.332014 0.464061 0.097711 0.084766
C12   C     C_R   0.916846 0.503749 0.671743 0.810684
C13   C     C_R   0.083170 0.404846 0.098582 -0.211145
C14   C     C_R   0.032044 0.432913 0.188037 -0.198015
C15   C     C_R   0.277537 0.492621 0.187300 -0.240397
C16   C     C_R   0.092338 0.068790 0.540262 0.124697
C17   C     C_R   0.985119 0.129902 0.515033 -0.086897
C18   C     C_R   0.868132 0.060244 0.501170 -0.213336
C19   C     C_R   0.872828 0.932149 0.498661 -0.190365
C20   C     C_R   0.994900 0.872012 0.509345 -0.096594
C21   C     C_R   0.098169 0.942187 0.536788 0.105725
C22   C     C_3   0.260025 0.952262 0.501322 -0.396178
C23   C     C_R   0.000848 0.738103 0.501317 0.813473
C24   C     C_3   0.253102 0.089959 0.508585 -0.492448
C25   C     C_R   0.611891 0.534169 0.425117 0.047398
C26   C     C_R   0.537628 0.441888 0.566687 0.453544
C27   C     C_R   0.389683 0.447007 0.567886 -0.083039
C28   C     C_R   0.464331 0.536238 0.425462 0.192698
C29   C     C_3   0.497230 0.662088 0.381742 0.718103
C30   C     C_3   0.657497 0.651493 0.373934 -0.545744
C31   C     C_R   0.082615 0.495893 0.328695 0.811216
C32   C     C_R   0.869595 0.506349 0.769747 -0.106936
C33   C     C_R   0.129553 0.477102 0.232717 -0.053675
C34   C     C_R   0.930306 0.506285 0.909156 -0.206150
C35   C     C_R   0.973464 0.502386 0.816801 -0.246808
C36   C     C_R   0.720935 0.513283 0.817618 0.316058
Cu1   Cu    Cu3+1 0.140670 0.499980 0.500000 0.981920
Cu2   Cu    Cu3+1 0.859330 0.500020 0.500000 0.955188
H1    H     H_    0.817904 0.513074 0.085148 0.147707
H2    H     H_    0.006995 0.368121 0.065427 0.135018
H3    H     H_    0.778050 0.104358 0.486645 0.168498
H4    H     H_    0.783976 0.881560 0.483868 0.162104
H5    H     H_    0.297797 0.126963 0.561232 0.209437
H6    H     H_    0.292055 0.139784 0.443061 0.213836
H7    H     H_    0.305488 0.403940 0.622742 0.162562
H8    H     H_    0.348396 0.529030 0.223032 0.208717
H9    H     H_    0.726659 0.636100 0.305242 0.187823
H10   H     H_    0.701920 0.722267 0.409983 0.197940
H11   H     H_    0.206300 0.361840 0.927877 0.147505
H12   H     H_    0.088666 0.501139 0.782216 0.177672
H13   H     H_    0.566666 0.495226 0.167066 0.167216
H14   H     H_    0.458621 0.395355 0.847104 0.172174
N1    N     N_R   0.648210 0.500930 0.499430 -0.220045
N2    N     N_R   0.352300 0.500890 0.499430 -0.235980
O1    O     O_R   0.118810 0.319640 0.500000 -0.582471
O2    O     O_R   0.881230 0.319680 0.499990 -0.615111
O3    O     O_R   0.055580 0.499970 0.629840 -0.598425
O4    O     O_R   0.818000 0.500010 0.629830 -0.571586
O5    O     O_R   0.118770 0.680320 0.500010 -0.529037
O6    O     O_R   0.881190 0.680360 0.500000 -0.586768
O7    O     O_R   0.182000 0.499990 0.370170 -0.556380
O8    O     O_R   0.944420 0.500030 0.370160 -0.581641
H15   H     H_    0.313619 0.911130 0.548147 0.218615
H16   H     H_    0.297236 0.926140 0.430660 0.254490
O9    O     O_3   0.564741 0.370434 0.632368 -0.787945
H17   H     H_    0.661913 0.337873 0.608668 0.365584
O10   O     O_3   0.468500 0.669332 0.299655 -0.755740
H18   H     H_    0.506286 0.751927 0.273361 0.333747
O11   O     O_3   0.432492 0.754565 0.438256 -0.749009
H19   H     H_    0.456109 0.744035 0.495395 0.296467
H20   H     H_    0.917333 0.417330 0.222588 0.154118
H21   H     H_    0.012672 0.512162 0.943633 0.153935
O12   O     O_3   0.626546 0.570147 0.779990 -0.715357
H22   H     H_    0.601108 0.511649 0.739336 0.368935

loop_
_geom_bond_atom_site_label_1
_geom_bond_atom_site_label_2
_ccdc_geom_bond_type
C8    C9    A    
C16   C21   A    
O12   H22   S    
C31   O7    A    
C19   C20   A    
C4    C8    A    
C14   C33   A    
C27   N2    A    
C25   C28   A    
C23   O5    A    
C26   C27   A    
C29   C30   S    
C32   C36   A    
C30   H10   S    
C28   C29   S    
C1    O2    A    
C25   N1    A    
C5    C11   A    
C3    C7    A    
C5    C6    A    
C34   C35   A    
C14   H20   S    
C13   H2    S    
C22   H15   S    
Cu2   O4    S    
C11   C15   A    
C16   C17   A    
C31   C33   S    
C6    H13   S    
C9    C10   A    
C8    H14   S    
C19   H4    S    
C12   O4    A    
C27   H7    S    
C16   C24   S    
C29   O10   S    
C21   C22   S    
C12   C32   S    
C31   O8    A    
C29   O11   S    
C23   O6    A    
O10   H18   S    
C32   C35   A    
C30   H9    S    
C9    H11   S    
C36   O12   S    
C18   H3    S    
C28   N2    A    
C18   C19   A    
C3    C34   A    
C2    C4    A    
Cu1   Cu2   S    
C20   C23   S    
C35   H12   S    
C17   C18   A    
Cu1   O5    S    
Cu2   O6    S    
C12   O3    A    
C24   H6    S    
C22   C24   S    
Cu1   N2    S    
C26   N1    A    
C34   H21   S    
C2    C36   A    
C25   C30   S    
C26   O9    S    
C4    C5    A    
C10   C13   A    
Cu1   O7    S    
C6    C7    A    
C1    C17   S    
C2    C3    A    
C1    O1    A    
Cu2   N1    S    
O11   H19   S    
C10   C11   A    
C22   H16   S    
Cu1   O1    S    
Cu2   O2    S    
C20   C21   A    
O9    H17   S    
C24   H5    S    
C7    H1    S    
C15   H8    S    
C13   C14   A    
C15   C33   A    
Cu1   O3    S    
Cu2   O8    S    
