data_mof_unit_11248.cif
_audit_creation_date              2012-12-11T15:36:39-0500
_audit_creation_method            fapswitch 2.2
_symmetry_space_group_name_H-M    P1
_symmetry_Int_Tables_number       1
_space_group_crystal_system       triclinic
_cell_length_a                    15.062484
_cell_length_b                    15.037922
_cell_length_c                    34.642497
_cell_angle_alpha                 90.930898
_cell_angle_beta                  91.644349
_cell_angle_gamma                 59.97439
_cell_volume                      6790.97609662

loop_
_atom_site_label
_atom_site_type_symbol
_atom_type_description
_atom_site_fract_x
_atom_site_fract_y
_atom_site_fract_z
_atom_type_partial_charge
C1    C     C_R   0.612925 0.298635 0.445058 0.512177
C2    C     C_R   0.554344 0.136547 0.768000 0.133589
C3    C     C_R   0.113740 0.751189 0.886842 0.138234
C4    C     C_R   0.142335 0.733280 0.847820 -0.072321
C5    C     C_R   0.132852 0.658749 0.826168 0.004385
C6    C     C_R   0.107589 0.592635 0.844362 -0.129690
C7    C     C_R   0.078329 0.609518 0.882541 -0.162835
C8    C     C_R   0.197380 0.569975 0.763975 -0.132401
C9    C     C_R   0.200157 0.569779 0.724054 -0.115641
C10   C     C_R   0.133421 0.658076 0.703064 -0.049361
C11   C     C_R   0.057835 0.746681 0.722025 0.045752
C12   C     C_R   0.061283 0.749614 0.763014 0.203339
C13   C     C_R   0.560562 0.208689 0.792713 0.034403
C14   C     C_R   0.655495 0.712360 0.161758 0.021444
C15   C     C_R   0.132124 0.660271 0.783718 0.052950
C16   C     C_R   0.204774 0.712998 0.650544 0.180277
C17   C     C_R   0.243669 0.698340 0.613234 0.126758
C18   C     C_R   0.174360 0.584656 0.598207 0.110105
C19   C     C_R   0.137436 0.599234 0.635719 -0.153859
C20   C     C_R   0.155532 0.659634 0.662129 -0.044644
C21   C     C_R   0.234962 0.627867 0.587417 0.009888
C22   C     C_R   0.667823 0.090815 0.907362 0.000614
C23   C     C_R   0.565743 0.120438 0.895158 -0.007526
C24   C     C_R   0.518368 0.228682 0.642709 -0.094030
C25   C     C_R   0.531023 0.162036 0.858108 -0.157250
C26   C     C_2   0.553595 0.786564 0.099332 0.301411
C27   C     C_2   0.454479 0.744109 0.384667 0.241756
C28   C     C_2   0.812057 0.561282 0.446452 0.247197
C29   C     C_3   0.232036 0.487981 0.069933 -0.268019
C30   C     C_2   0.121310 0.883261 0.070403 0.326089
C31   C     C_2   0.375212 0.650292 0.282760 0.247951
C32   C     C_3   0.265056 0.487083 0.181756 -0.265493
C33   C     C_3   0.936941 0.764325 0.285353 -0.309912
C34   C     C_2   0.222633 0.480983 0.385261 0.209896
C35   C     C_R   0.840083 0.646731 0.163797 -0.138458
C36   C     C_2   0.180194 0.886003 0.152914 0.329472
C37   C     C_2   0.839810 0.171695 0.082029 0.305427
C38   C     C_3   0.399810 0.247916 0.332791 -0.266770
C39   C     C_2   0.525587 0.360215 0.285002 0.229446
C40   C     C_3   0.560776 0.417915 0.193675 -0.273394
C41   C     C_3   0.953869 0.446153 0.369359 -0.314685
C42   C     C_2   0.836760 0.189045 0.168052 0.193089
C43   C     C_2   0.842724 0.169694 0.335254 0.267935
C44   C     C_2   0.831912 0.150148 0.421474 0.279339
C45   C     C_3   0.584624 0.010258 0.178684 -0.279186
C46   C     C_R   0.535737 0.230118 0.603296 -0.019354
C47   C     C_2   0.833098 0.504078 0.932300 0.245912
C48   C     C_3   0.450949 0.832890 0.934831 -0.271713
C49   C     C_3   0.419033 0.836896 0.681750 -0.303927
C50   C     C_3   0.724190 0.418208 0.277192 -0.292093
C51   C     C_3   0.809944 0.395150 0.845104 -0.293985
C52   C     C_3   0.911852 0.591832 0.703631 -0.236144
C53   C     C_2   0.835340 0.665122 0.799721 0.226537
C54   C     C_2   0.814461 0.448913 0.674051 0.186405
C55   C     C_3   0.155141 0.892419 0.892140 -0.316436
C56   C     C_2   0.975194 0.831545 0.698396 0.206690
C57   C     C_R   0.691648 0.235855 0.619515 0.122721
C58   C     C_3   0.911083 0.852853 0.801798 -0.253813
C59   C     C_3   0.156094 0.881625 0.678083 -0.301141
C60   C     C_3   0.249927 0.839282 0.582516 -0.267977
C61   C     C_2   0.563667 0.725301 0.181960 0.277880
C62   C     C_3   0.078545 0.579668 0.542008 -0.269118
C63   C     C_2   0.491256 0.112080 0.919614 0.250270
C64   C     C_2   0.531728 0.408346 0.719423 0.193027
C65   C     C_3   0.465026 0.436478 0.823923 -0.279557
C66   C     C_3   0.473449 0.066035 0.693235 -0.308097
C67   C     C_3   0.639510 0.959403 0.789970 -0.300627
C68   C     C_R   0.676201 0.226510 0.658761 -0.121673
C69   C     C_2   0.469604 0.212710 0.575084 0.256182
C70   C     C_3   0.797676 0.127932 0.790555 -0.294107
C71   C     C_3   0.856989 0.145122 0.590120 -0.276874
C72   C     C_R   0.587152 0.228243 0.670567 -0.035941
C73   C     C_R   0.616507 0.246387 0.591473 -0.005022
C74   C     C_R   0.047605 0.737996 0.048481 0.520140
C75   C     C_R   0.750106 0.671712 0.182559 -0.031288
C76   C     C_R   0.747347 0.745568 0.063994 0.522040
C77   C     C_R   0.750026 0.041785 0.050518 0.578505
C78   C     C_R   0.019490 0.721338 0.940133 0.527986
C79   C     C_R   0.716300 0.728957 0.955314 0.575691
C80   C     C_R   0.837544 0.665394 0.124749 -0.135668
C81   C     C_R   0.720035 0.027100 0.942306 0.567528
C82   C     C_R   0.782003 0.559921 0.239238 -0.064614
C83   C     C_R   0.775557 0.547889 0.278982 0.166855
C84   C     C_R   0.748759 0.633032 0.303770 0.037038
C85   C     C_R   0.729716 0.726946 0.288572 -0.155014
C86   C     C_R   0.593051 0.179898 0.833657 0.085544
C87   C     C_R   0.733296 0.738434 0.249067 -0.153258
C88   C     C_R   0.756972 0.655744 0.224341 -0.027240
C89   C     C_R   0.608824 0.681531 0.347541 -0.161156
C90   C     C_R   0.593151 0.611094 0.449412 0.601671
C91   C     C_R   0.567620 0.686390 0.383273 -0.022006
C92   C     C_R   0.741592 0.595717 0.411903 0.021920
C93   C     C_R   0.781788 0.594124 0.375205 0.109629
C94   C     C_R   0.714215 0.634613 0.343054 0.005852
C95   C     C_R   0.634001 0.635943 0.415364 0.019055
C96   C     C_R   0.111670 0.724598 0.084367 -0.052248
C97   C     C_R   0.690415 0.160435 0.847247 0.152353
C98   C     C_R   0.137087 0.640175 0.109050 0.132424
C99   C     C_R   0.154166 0.648340 0.148874 0.143208
C100  C     C_R   0.158536 0.734195 0.163071 -0.034182
C101  C     C_R   0.155940 0.807391 0.137449 -0.009269
C102  C     C_R   0.303748 0.591857 0.441942 0.543271
C103  C     C_R   0.130415 0.803938 0.097809 -0.028461
C104  C     C_R   0.261973 0.705782 0.223772 -0.076154
C105  C     C_R   0.271439 0.697140 0.264158 0.032088
C106  C     C_R   0.182118 0.729587 0.286108 -0.001441
C107  C     C_R   0.084504 0.776912 0.267474 0.154921
C108  C     C_R   0.726258 0.116422 0.883688 -0.142294
C109  C     C_R   0.077631 0.783518 0.227128 -0.061597
C110  C     C_R   0.166107 0.744854 0.205316 -0.031928
C111  C     C_R   0.194658 0.613770 0.338905 -0.127692
C112  C     C_R   0.223122 0.576903 0.376853 0.014666
C113  C     C_R   0.232856 0.730194 0.392884 -0.142276
C114  C     C_R   0.605674 0.298885 0.553797 0.519805
C115  C     C_R   0.205878 0.764566 0.354976 -0.146528
C116  C     C_R   0.191720 0.703983 0.327510 -0.013637
C117  C     C_R   0.249137 0.633064 0.404101 0.009251
C118  C     C_R   0.719450 0.101476 0.087096 -0.006513
C119  C     C_R   0.552794 0.298736 0.777284 0.155223
C120  C     C_R   0.777635 0.141539 0.105383 0.011669
C121  C     C_R   0.768368 0.160736 0.145847 -0.040694
C122  C     C_R   0.692519 0.151805 0.165904 0.008511
C123  C     C_R   0.627197 0.124172 0.146291 0.110218
C124  C     C_R   0.640123 0.100917 0.107252 -0.143256
C125  C     C_R   0.608297 0.256444 0.225100 0.179233
C126  C     C_R   0.588596 0.606554 0.558859 0.557837
C127  C     C_R   0.603416 0.264144 0.265899 0.049988
C128  C     C_R   0.673553 0.178344 0.288642 -0.068407
C129  C     C_R   0.745171 0.087174 0.270818 -0.161376
C130  C     C_R   0.552406 0.309558 0.736679 -0.005634
C131  C     C_R   0.752264 0.081243 0.231013 -0.135861
C132  C     C_R   0.684479 0.164643 0.208086 0.029679
C133  C     C_R   0.751388 0.177374 0.354062 0.007605
C134  C     C_R   0.740504 0.190834 0.394524 0.028339
C135  C     C_R   0.564590 0.227296 0.387968 -0.103627
C136  C     C_R   0.580641 0.194345 0.349374 0.140092
C137  C     C_R   0.669895 0.180618 0.331375 -0.047158
C138  C     C_R   0.298258 0.589301 0.552216 0.544270
C139  C     C_R   0.640870 0.234246 0.409644 -0.082253
C140  C     C_R   0.689134 0.686744 0.920486 0.030286
C141  C     C_R   0.567570 0.226656 0.712298 -0.051034
C142  C     C_R   0.760519 0.587747 0.905907 -0.020373
C143  C     C_R   0.759127 0.567924 0.865805 0.104363
C144  C     C_R   0.681887 0.642653 0.841796 -0.003527
C145  C     C_R   0.601603 0.731032 0.857712 -0.165203
C146  C     C_R   0.603266 0.753526 0.896852 0.106879
C147  C     C_R   0.613357 0.617351 0.779774 -0.146695
C148  C     C_R   0.609655 0.615942 0.739759 -0.154290
C149  C     C_R   0.677610 0.632315 0.718539 -0.027879
C150  C     C_R   0.744304 0.712545 0.103597 -0.030069
C151  C     C_R   0.752546 0.648382 0.737571 0.145345
C152  C     C_R   0.561362 0.143375 0.727813 0.149859
C153  C     C_R   0.758379 0.647272 0.778509 0.076333
C154  C     C_R   0.686580 0.633301 0.799379 -0.007190
C155  C     C_R   0.730368 0.542026 0.654931 -0.000179
C156  C     C_R   0.708998 0.538461 0.615515 -0.101744
C157  C     C_R   0.566992 0.713006 0.617707 -0.095517
C158  C     C_R   0.587071 0.719053 0.657092 0.144906
C159  C     C_R   0.667654 0.632349 0.676068 -0.003073
C160  C     C_R   0.624629 0.621692 0.597151 -0.043341
C161  C     C_R   0.074500 0.692504 0.903344 0.018691
C162  C     C_R   0.651925 0.736025 0.121890 0.000821
Cr1   Cr    Cr6+3 0.426010 0.422500 0.497000 1.075220
Cr2   Cr    Cr6+3 0.651300 0.426310 0.501970 1.061797
Cr3   Cr    Cr6+3 0.422670 0.651170 0.501050 1.041600
Cr4   Cr    Cr6+3 0.905130 0.911420 0.992650 1.064235
Cr5   Cr    Cr6+3 0.911860 0.682710 0.002320 1.063283
Cr6   Cr    Cr6+3 0.682710 0.906840 0.004710 1.083836
H1    H     H_    0.912528 0.614413 0.179727 0.118717
H2    H     H_    0.809500 0.010323 0.217853 0.127692
H3    H     H_    0.874177 0.924636 0.819020 0.119405
H4    H     H_    0.932027 0.788885 0.822081 0.183680
H5    H     H_    0.856163 0.853958 0.779586 0.201521
H6    H     H_    0.252930 0.739940 0.704658 0.260266
H7    H     H_    0.119516 0.905310 0.706663 0.131726
H8    H     H_    0.094700 0.905040 0.655438 0.137994
H9    H     H_    0.198219 0.923125 0.673116 0.150175
H10   H     H_    0.377518 0.695725 0.597647 0.277685
H11   H     H_    0.301873 0.870815 0.578820 0.142384
H12   H     H_    0.181024 0.897488 0.597730 0.136803
H13   H     H_    0.492147 0.249390 0.401058 0.185415
H14   H     H_    0.225654 0.825280 0.553603 0.158898
H15   H     H_    0.554776 0.743482 0.212536 0.128065
H16   H     H_    0.139614 0.470047 0.585206 0.268204
H17   H     H_    0.002718 0.631238 0.554860 0.140886
H18   H     H_    0.071030 0.525342 0.521939 0.165123
H19   H     H_    0.102394 0.626050 0.525120 0.150382
H20   H     H_    0.434839 0.095656 0.906345 0.084669
H21   H     H_    0.564635 0.409964 0.692229 0.118529
H22   H     H_    0.591712 0.410641 0.792323 0.272386
H23   H     H_    0.481336 0.480315 0.846342 0.139631
H24   H     H_    0.552025 0.604269 0.725026 0.175694
H25   H     H_    0.437623 0.389708 0.838472 0.145367
H26   H     H_    0.403952 0.491882 0.804059 0.177508
H27   H     H_    0.620607 0.039931 0.681606 0.274383
H28   H     H_    0.467275 0.058750 0.661435 0.169514
H29   H     H_    0.405771 0.138909 0.702754 0.138770
H30   H     H_    0.471394 0.001443 0.707066 0.156869
H31   H     H_    0.487702 0.045081 0.771193 0.254790
H32   H     H_    0.676915 0.927431 0.761988 0.187639
H33   H     H_    0.623319 0.902872 0.803638 0.126970
H34   H     H_    0.691715 0.971593 0.809693 0.141254
H35   H     H_    0.558204 0.606970 0.795621 0.135454
H36   H     H_    0.494060 0.189899 0.545646 0.118353
H37   H     H_    0.801385 0.203246 0.841119 0.239407
H38   H     H_    0.882033 0.080346 0.794911 0.127658
H39   H     H_    0.781881 0.181297 0.766212 0.155933
H40   H     H_    0.766701 0.076758 0.782587 0.168106
H41   H     H_    0.813036 0.260793 0.630737 0.284978
H42   H     H_    0.921458 0.155184 0.580957 0.157027
H43   H     H_    0.823397 0.127944 0.564069 0.154681
H44   H     H_    0.887414 0.079300 0.610458 0.129466
H45   H     H_    0.754216 0.467577 0.599754 0.193326
H46   H     H_    0.539811 0.785705 0.839077 0.108494
H47   H     H_    0.503363 0.778495 0.603554 0.145112
H48   H     H_    0.802263 0.496134 0.219626 0.127787
H49   H     H_    0.051039 0.561958 0.894755 0.138017
H50   H     H_    0.096830 0.560859 0.644752 0.117330
H51   H     H_    0.201153 0.835958 0.346637 0.146984
H52   H     H_    0.257095 0.501381 0.709434 0.150169
H53   H     H_    0.249323 0.500565 0.779633 0.109485
H54   H     H_    0.166864 0.780060 0.833228 0.121296
H55   H     H_    0.101468 0.533716 0.828087 0.152374
H56   H     H_    0.802849 0.098550 0.892767 0.145471
H57   H     H_    0.732209 0.221223 0.680329 0.113315
H58   H     H_    0.454827 0.180641 0.848021 0.109016
H59   H     H_    0.450851 0.227676 0.651844 0.169387
H60   H     H_    0.705546 0.793337 0.307199 0.125103
H61   H     H_    0.714082 0.812717 0.237603 0.110044
H62   H     H_    0.329676 0.676907 0.206376 0.182665
H63   H     H_    0.557856 0.715882 0.322636 0.144600
H64   H     H_    0.551479 0.765578 0.069338 0.111346
H65   H     H_    0.409909 0.731668 0.362396 0.081441
H66   H     H_    0.893898 0.511398 0.443319 0.132615
H67   H     H_    0.130348 0.503891 0.112285 0.249117
H68   H     H_    0.228563 0.420935 0.057827 0.156659
H69   H     H_    0.304063 0.459776 0.087415 0.131806
H70   H     H_    0.232926 0.534401 0.045491 0.161043
H71   H     H_    0.149689 0.861100 0.041346 0.092621
H72   H     H_    0.386738 0.628888 0.312974 0.107931
H73   H     H_    0.908857 0.647901 0.111519 0.154134
H74   H     H_    0.106896 0.552607 0.172644 0.236052
H75   H     H_    0.290691 0.437420 0.155716 0.131607
H76   H     H_    0.265378 0.440667 0.206409 0.178000
H77   H     H_    0.319778 0.514347 0.188775 0.190604
H78   H     H_    0.998924 0.839528 0.317032 0.267862
H79   H     H_    0.983790 0.685423 0.297166 0.146394
H80   H     H_    0.915843 0.760205 0.254674 0.156231
H81   H     H_    0.865381 0.805717 0.301905 0.142637
H82   H     H_    0.158674 0.472666 0.374686 0.092484
H83   H     H_    0.157998 0.916428 0.181853 0.117976
H84   H     H_    0.003273 0.816411 0.212571 0.118653
H85   H     H_    0.908399 0.168931 0.093753 0.203838
H86   H     H_    0.527532 0.144139 0.301274 0.269717
H87   H     H_    0.354706 0.233595 0.310142 0.142693
H88   H     H_    0.383923 0.328010 0.329755 0.189985
H89   H     H_    0.374439 0.237006 0.361168 0.192451
H90   H     H_    0.540098 0.379022 0.314001 0.099053
H91   H     H_    0.510719 0.317231 0.176947 0.255989
H92   H     H_    0.498973 0.478876 0.175539 0.163715
H93   H     H_    0.633761 0.385116 0.177948 0.115735
H94   H     H_    0.566979 0.454001 0.220955 0.202871
H95   H     H_    0.180021 0.569006 0.317444 0.114464
H96   H     H_    0.907246 0.595259 0.351399 0.255334
H97   H     H_    0.972676 0.421055 0.338892 0.169199
H98   H     H_    0.916769 0.405766 0.382072 0.179742
H99   H     H_    0.026283 0.423510 0.385822 0.151923
H100  H     H_    0.806908 0.242771 0.191963 0.109220
H101  H     H_    0.873406 0.124229 0.309411 0.113625
H102  H     H_    0.822430 0.158743 0.452432 0.116108
H103  H     H_    0.481783 0.146267 0.151720 0.256788
H104  H     H_    0.523893 0.010045 0.196033 0.162280
H105  H     H_    0.655604 0.979683 0.196900 0.146230
H106  H     H_    0.246990 0.777904 0.412951 0.182573
H107  H     H_    0.599118 0.959204 0.153226 0.163389
H108  H     H_    0.904644 0.441265 0.922050 0.097383
H109  H     H_    0.483390 0.903651 0.891069 0.232212
H110  H     H_    0.411195 0.800625 0.916999 0.122133
H111  H     H_    0.392664 0.908215 0.946691 0.149161
H112  H     H_    0.492484 0.780504 0.959402 0.172686
H113  H     H_    0.556497 0.821701 0.702732 0.256677
H114  H     H_    0.376353 0.909981 0.698001 0.121703
H115  H     H_    0.416023 0.775264 0.697876 0.170234
H116  H     H_    0.380564 0.847085 0.653067 0.184127
H117  H     H_    0.591824 0.074620 0.093509 0.156496
H118  H     H_    0.800188 0.443401 0.322843 0.278740
H119  H     H_    0.740830 0.345507 0.291087 0.155591
H120  H     H_    0.736372 0.402932 0.245820 0.135643
H121  H     H_    0.643065 0.476738 0.282512 0.179428
H122  H     H_    0.909989 0.449778 0.858866 0.234795
H123  H     H_    0.870852 0.329004 0.829201 0.137559
H124  H     H_    0.736394 0.423432 0.828638 0.172158
H125  H     H_    0.803174 0.368829 0.874090 0.148370
H126  H     H_    0.775394 0.729873 0.694680 0.254734
H127  H     H_    0.906322 0.573147 0.672835 0.132445
H128  H     H_    0.796587 0.020522 0.287984 0.141997
H129  H     H_    0.937479 0.522020 0.721519 0.175475
H130  H     H_    0.970634 0.615314 0.706479 0.177389
H131  H     H_    0.820988 0.696186 0.828811 0.084876
H132  H     H_    0.819838 0.442192 0.705259 0.120879
H133  H     H_    0.148406 0.805801 0.937429 0.249473
H134  H     H_    0.151675 0.949469 0.913700 0.145352
H135  H     H_    0.103740 0.935326 0.867332 0.155168
H136  H     H_    0.235613 0.845261 0.882697 0.124773
H137  H     H_    0.980852 0.831262 0.667259 0.109234
H138  H     H_    0.989049 0.908723 0.770132 0.266921
N1    N     N_2   0.143883 0.548223 0.093697 -0.488351
N2    N     N_2   0.791781 0.452217 0.293340 -0.504501
N3    N     N_2   0.836141 0.475199 0.848826 -0.520306
N4    N     N_2   0.814341 0.675885 0.715945 -0.476521
N5    N     N_2   0.121361 0.827810 0.909505 -0.495777
N6    N     N_2   0.000730 0.843012 0.783576 -0.519121
N7    N     N_2   0.227301 0.771932 0.677654 -0.496835
N8    N     N_2   0.302603 0.745314 0.604714 -0.494070
N9    N     N_2   0.153824 0.522625 0.572064 -0.468302
N10   N     N_2   0.557348 0.371841 0.802890 -0.474458
N11   N     N_2   0.569280 0.062021 0.703713 -0.508301
N12   N     N_2   0.162630 0.573034 0.175556 -0.522593
N13   N     N_2   0.544720 0.054975 0.783964 -0.520788
N14   N     N_2   0.752309 0.187035 0.825171 -0.512218
N15   N     N_2   0.781059 0.238016 0.608822 -0.481952
N16   N     N_2   0.992802 0.819115 0.288945 -0.533412
N17   N     N_2   0.507947 0.175756 0.328477 -0.514872
N18   N     N_2   0.535372 0.339167 0.201422 -0.478654
N19   N     N_2   0.888768 0.556750 0.371108 -0.549445
N20   N     N_2   0.551560 0.113998 0.166362 -0.512605
N21   N     N_2   0.521182 0.846774 0.911482 -0.482530
N22   N     N_2   0.524284 0.811991 0.677521 -0.529219
O1    O     O_R   0.324990 0.503440 0.453910 -0.439266
O2    O     O_R   0.675430 0.831160 0.051290 -0.522156
O3    O     O_R   0.698870 0.998880 0.039560 -0.504950
O4    O     O_R   0.522030 0.339050 0.458320 -0.480867
O5    O     O_R   0.811290 0.006780 0.950620 -0.512470
O6    O     O_R   0.980960 0.812920 0.953200 -0.484224
O7    O     O_R   0.001480 0.656720 0.955830 -0.525723
O8    O     O_R   0.809240 0.683250 0.968050 -0.471347
O9    O     O_R   0.652500 0.818540 0.967340 -0.478495
O10   O     O_R   0.677620 0.987170 0.961730 -0.442488
O11   O     O_3   0.833240 0.833660 0.999890 -0.268925
O12   O     O_R   0.639980 0.519500 0.542640 -0.478343
O13   O     O_R   0.676180 0.324490 0.458320 -0.528675
O14   O     O_R   0.643570 0.521510 0.464260 -0.474242
O15   O     O_R   0.504630 0.675350 0.460920 -0.450992
O16   O     O_R   0.339850 0.642450 0.459830 -0.512094
O17   O     O_R   0.321120 0.501280 0.538470 -0.458060
O18   O     O_R   0.518440 0.337050 0.536710 -0.517071
O19   O     O_R   0.672300 0.322330 0.542880 -0.478041
O20   O     O_2   0.475312 0.855022 0.113437 -0.432458
O21   O     O_2   0.410334 0.812579 0.408271 -0.470041
O22   O     O_2   0.780223 0.591809 0.478811 -0.507801
O23   O     O_R   0.500750 0.673190 0.545480 -0.527112
O24   O     O_2   0.078404 0.973964 0.079365 -0.454558
O25   O     O_2   0.449655 0.635016 0.264436 -0.545703
O26   O     O_2   0.295664 0.407688 0.400705 -0.516080
O27   O     O_2   0.229726 0.913652 0.134335 -0.397138
O28   O     O_2   0.811819 0.204993 0.049329 -0.475368
O29   O     O_2   0.443376 0.417984 0.269136 -0.500252
O30   O     O_2   0.928226 0.147722 0.161695 -0.502588
O31   O     O_2   0.882467 0.218240 0.347788 -0.474484
O32   O     O_2   0.919283 0.099146 0.409937 -0.470313
O33   O     O_2   0.811358 0.502151 0.965853 -0.481229
O34   O     O_R   0.336260 0.640450 0.538210 -0.521879
O35   O     O_2   0.917142 0.642495 0.785505 -0.526178
O36   O     O_2   0.880314 0.379018 0.655117 -0.542352
O37   O     O_2   0.897761 0.900392 0.712772 -0.542178
O38   O     O_2   0.499686 0.710595 0.165228 -0.461682
O39   O     O_2   0.486905 0.130823 0.954145 -0.481094
O40   O     O_2   0.472721 0.490153 0.734538 -0.557817
O41   O     O_2   0.388048 0.221562 0.584541 -0.513417
O42   O     O_3   0.499990 0.499990 0.500010 -0.261782
O43   O     O_R   0.834210 0.019400 0.034570 -0.448708
O44   O     O_R   0.002210 0.824620 0.031030 -0.515335
O45   O     O_R   0.024400 0.669340 0.039790 -0.471456
O46   O     O_R   0.830490 0.694950 0.045870 -0.479914

loop_
_geom_bond_atom_site_label_1
_geom_bond_atom_site_label_2
_ccdc_geom_bond_type
C38   H88   S    
C133  C137  A    
C157  C158  A    
H74   N12   S    
C18   C21   A    
C53   O35   D    
C41   H97   S    
C19   C20   A    
C145  C146  A    
C65   N10   S    
C90   C95   S    
C135  C139  A    
C90   O15   A    
Cr6   O2    S    
C59   N7    S    
C5    C6    A    
C108  H56   S    
C106  C107  A    
C143  C144  A    
C56   O37   D    
C119  C130  A    
C29   N1    S    
C29   H69   S    
C89   C94   A    
C43   C133  S    
C130  C141  A    
H67   N1    S    
C45   N20   S    
H91   N18   S    
C10   C20   S    
C152  N11   S    
C54   O36   D    
Cr2   O42   S    
C124  H117  S    
C101  C103  A    
C60   H14   S    
C104  C105  A    
C34   O26   D    
C76   O2    A    
C16   N7    S    
C48   H112  S    
C2    C152  A    
C43   O31   D    
C157  H47   S    
C58   N6    S    
C67   H32   S    
C4    C5    A    
C60   N8    S    
C87   H61   S    
C37   O28   D    
C17   C21   A    
C73   C114  S    
C138  O17   A    
C51   H123  S    
C16   C20   A    
C44   O32   D    
C34   H82   S    
C85   H60   S    
C118  C124  A    
C89   H63   S    
Cr6   O11   S    
C114  O18   A    
C9    H52   S    
C77   C118  S    
C157  C160  A    
C71   H43   S    
C158  C159  A    
Cr1   O4    S    
C41   H99   S    
C92   C95   A    
C54   H132  S    
H22   N10   S    
C65   H26   S    
C98   N1    S    
C144  C145  A    
H27   N11   S    
C6    C7    A    
C49   H116  S    
C24   C46   A    
C147  H35   S    
C58   H3    S    
C70   N14   S    
C104  C110  A    
C42   O30   D    
C52   N4    S    
C148  C149  A    
C151  C153  A    
C1    O13   A    
C118  C120  A    
C138  O34   A    
H41   N15   S    
C145  H46   S    
H122  N3    S    
C98   C99   A    
C155  C156  A    
C125  C127  A    
C119  N10   S    
C11   C56   S    
C28   H66   S    
C113  C115  A    
C158  N22   S    
C31   H72   S    
C53   C153  S    
C50   H119  S    
Cr5   O46   S    
C34   C112  S    
C49   H114  S    
C147  C148  A    
H16   N9    S    
C128  C129  A    
C40   H92   S    
C123  C124  A    
C126  O12   A    
C60   H11   S    
Cr4   O43   S    
C7    C161  A    
C56   H137  S    
C149  C151  A    
C4    H54   S    
C55   H136  S    
C115  C116  A    
C80   H73   S    
C33   H80   S    
C52   H130  S    
C86   C97   A    
H86   N17   S    
C65   H23   S    
C57   N15   S    
C96   C98   A    
C27   C91   S    
C89   C91   A    
C9    C10   A    
Cr3   O16   S    
C62   H18   S    
C52   H127  S    
C32   H76   S    
C144  C154  S    
C31   C105  S    
C31   O25   D    
C44   C134  S    
C67   N13   S    
C71   N15   S    
C5    C15   S    
C155  C159  A    
C74   C96   S    
C156  C160  A    
Cr3   O23   S    
C59   H8    S    
C40   N18   S    
C134  C139  A    
C47   H108  S    
C62   N9    S    
C70   H39   S    
C36   C101  S    
C67   H33   S    
C39   H90   S    
C40   H93   S    
C83   C84   A    
C76   C150  S    
C81   O10   A    
H113  N22   S    
C50   H121  S    
C66   H30   S    
C102  C117  S    
C113  C117  A    
C64   C130  S    
C82   C83   A    
C135  H13   S    
C57   C68   A    
C26   O20   D    
C3    C4    A    
Cr6   O10   S    
C29   H70   S    
C146  N21   S    
C120  C121  A    
C24   C72   A    
C28   O22   D    
C125  N18   S    
C22   C23   A    
C136  C137  A    
C49   N22   S    
C50   N2    S    
C55   H134  S    
C123  N20   S    
C32   H77   S    
C83   N2    S    
C45   H105  S    
C100  C101  A    
C102  O1    A    
C38   H87   S    
C66   H28   S    
C10   C11   A    
C91   C95   A    
C66   N11   S    
C35   C80   A    
C78   C161  S    
C156  H45   S    
C79   O9    A    
H31   N13   S    
C46   C73   A    
C76   O46   A    
C141  C152  A    
C148  H24   S    
C45   H104  S    
C87   C88   A    
C100  C110  S    
Cr4   O5    S    
Cr2   O13   S    
H37   N14   S    
C43   H101  S    
C74   O44   A    
C64   H21   S    
C135  C136  A    
C109  H84   S    
H96   N19   S    
C12   N6    S    
C140  C142  A    
C112  C117  A    
C27   O21   D    
C48   N21   S    
Cr1   O18   S    
C136  N17   S    
C18   C19   A    
C74   O45   A    
C55   N5    S    
C111  C112  A    
C16   C17   A    
C30   C103  S    
C111  C116  A    
C24   H59   S    
C1    C139  S    
C114  O19   A    
C23   C63   S    
C79   C140  S    
Cr5   O8    S    
C107  C109  A    
C41   H98   S    
C21   C138  S    
C143  N3    S    
C102  O16   A    
C36   O27   D    
C65   H25   S    
C72   C141  S    
C150  C162  A    
C79   O8    A    
C22   C81   S    
C90   O14   A    
C84   C85   A    
Cr1   O42   S    
C140  C146  A    
C54   C155  S    
C68   H57   S    
C77   O43   A    
C49   H115  S    
C106  C116  S    
C14   C162  A    
C58   H4    S    
C104  H62   S    
C12   C15   A    
C19   H50   S    
C84   C94   S    
C33   H81   S    
C69   O41   D    
C121  C122  A    
C82   H48   S    
Cr2   O12   S    
C8    C15   A    
C37   H85   S    
C133  C134  A    
C35   H1    S    
C64   O40   D    
C58   H5    S    
C127  C128  A    
H10   N8    S    
C6    H55   S    
C48   H111  S    
H103  N20   S    
H118  N2    S    
C30   O24   D    
C50   H120  S    
Cr5   O45   S    
C3    N5    S    
C47   O33   D    
Cr5   O7    S    
C126  C160  S    
C60   H12   S    
Cr4   O44   S    
C105  C106  A    
C17   N8    S    
C14   C75   A    
C51   H124  S    
C45   H107  S    
C109  C110  A    
C55   H135  S    
C22   C108  A    
C61   O38   D    
C92   C93   A    
C26   C162  S    
C33   N16   S    
C33   H79   S    
H6    N7    S    
C3    C161  A    
C81   O5    A    
C71   H44   S    
C96   C103  A    
C142  C143  A    
Cr1   O1    S    
Cr3   O15   S    
C62   H19   S    
C51   N3    S    
C131  H2    S    
C93   C94   A    
Cr6   O3    S    
C30   H71   S    
Cr5   O11   S    
Cr3   O34   S    
C80   C150  A    
C47   C142  S    
C35   C75   A    
H109  N21   S    
C77   O3    A    
C59   H7    S    
C82   C88   A    
C70   H40   S    
C78   O7    A    
C25   H58   S    
C36   H83   S    
C2    N13   S    
C41   N19   S    
C2    C13   A    
C147  C154  A    
C46   C69   S    
C97   C108  A    
C40   H94   S    
C8    C9    A    
C13   C86   S    
C78   O6    A    
C39   O29   D    
Cr4   O11   S    
C68   C72   A    
C32   N12   S    
C1    O4    A    
C115  H51   S    
C122  C132  S    
C13   C119  A    
C85   C87   A    
C63   O39   D    
C61   H15   S    
C39   C127  S    
C18   N9    S    
C59   H9    S    
C38   N17   S    
C129  H128  S    
C26   H64   S    
C14   C61   S    
C97   N14   S    
H138  N6    S    
C52   H129  S    
C99   N12   S    
C128  C137  S    
C29   H68   S    
C99   C100  A    
H126  N4    S    
C71   H42   S    
C28   C92   S    
C149  C159  S    
C111  H95   S    
C69   H36   S    
C62   H17   S    
C32   H75   S    
C53   H131  S    
C42   H100  S    
C38   H89   S    
C44   H102  S    
C126  O23   A    
Cr3   O42   S    
Cr4   O6    S    
Cr2   O14   S    
C57   C73   A    
C107  N16   S    
C113  H106  S    
C93   N19   S    
C11   C12   A    
C48   H110  S    
C70   H38   S    
C122  C123  A    
C67   H34   S    
H133  N5    S    
C125  C132  A    
C37   C120  S    
Cr1   O17   S    
Cr2   O19   S    
C25   C86   A    
C23   C25   A    
H78   N16   S    
C51   H125  S    
C66   H29   S    
C27   H65   S    
C7    H49   S    
C75   C88   S    
C42   C121  S    
C151  N4    S    
C63   H20   S    
C153  C154  A    
Cr6   O9    S    
C8    H53   S    
C131  C132  A    
C129  C131  A    
