data_mof_unit_17426.cif
_audit_creation_date              2012-12-11T17:36:22-0500
_audit_creation_method            fapswitch 2.2
_symmetry_space_group_name_H-M    P1
_symmetry_Int_Tables_number       1
_space_group_crystal_system       triclinic
_cell_length_a                    26.068802
_cell_length_b                    6.880239
_cell_length_c                    21.500358
_cell_angle_alpha                 89.999526
_cell_angle_beta                  95.782437
_cell_angle_gamma                 90.0
_cell_volume                      3836.67313444

loop_
_atom_site_label
_atom_site_type_symbol
_atom_type_description
_atom_site_fract_x
_atom_site_fract_y
_atom_site_fract_z
_atom_type_partial_charge
O1    O     O_R   0.208650 0.594520 0.175450 -0.535712
O2    O     O_R   0.791350 0.405480 0.824550 -0.536424
O3    O     O_R   0.291350 0.094520 0.324550 -0.535712
O4    O     O_R   0.708650 0.905480 0.675450 -0.536416
O5    O     O_R   0.192980 0.260780 0.300160 -0.538166
O6    O     O_R   0.807020 0.739220 0.699840 -0.538857
O7    O     O_R   0.307020 0.760780 0.199840 -0.538166
O8    O     O_R   0.692980 0.239220 0.800160 -0.538864
C1    C     C_R   0.178666 0.432730 0.318174 0.688551
C2    C     C_R   0.821518 0.566907 0.682038 0.697140
C3    C     C_R   0.321334 0.932731 0.181826 0.688554
C4    C     C_R   0.678483 0.066907 0.817963 0.697090
O9    O     O_R   0.202550 0.264660 0.174420 -0.543288
O10   O     O_R   0.797450 0.735340 0.825580 -0.543087
O11   O     O_R   0.297450 0.764660 0.325580 -0.543288
O12   O     O_R   0.702550 0.235340 0.674420 -0.543087
O13   O     O_R   0.300990 0.096480 0.197920 -0.537507
O14   O     O_R   0.699010 0.903520 0.802080 -0.536837
O15   O     O_R   0.199010 0.596480 0.302080 -0.537507
O16   O     O_R   0.800990 0.403520 0.697920 -0.536829
C5    C     C_R   0.190579 0.434299 0.151352 0.706396
C6    C     C_R   0.809449 0.566094 0.848732 0.704520
C7    C     C_R   0.309421 0.934298 0.348648 0.706396
C8    C     C_R   0.690550 0.066095 0.651268 0.704523
O17   O     O_3   0.282290 0.427760 0.257860 -0.361754
O18   O     O_3   0.717710 0.572240 0.742140 -0.363582
O19   O     O_3   0.217710 0.927760 0.242140 -0.361754
O20   O     O_3   0.782290 0.072240 0.757860 -0.363583
V1    V     V_3+5 0.244010 0.152080 0.248540 1.377678
V2    V     V_3+5 0.755990 0.847920 0.751460 1.367722
V3    V     V_3+5 0.255990 0.652080 0.251460 1.377679
V4    V     V_3+5 0.744010 0.347920 0.748540 1.367716
C9    C     C_R   0.655173 0.056081 0.592586 -0.099369
C10   C     C_R   0.343422 0.945266 0.408291 -0.097416
C11   C     C_R   0.844825 0.556078 0.907415 -0.099387
C12   C     C_R   0.156577 0.445270 0.091710 -0.097416
C13   C     C_R   0.644112 0.063716 0.479153 -0.193259
C14   C     C_R   0.352478 0.954021 0.521710 -0.195087
C15   C     C_R   0.855884 0.563722 0.020848 -0.193226
C16   C     C_R   0.147520 0.454020 0.978290 -0.195087
C17   C     C_R   0.673678 0.109103 0.535245 0.045681
C18   C     C_R   0.321405 0.927442 0.465511 0.052905
C19   C     C_R   0.826317 0.609088 0.964756 0.045733
C20   C     C_R   0.178593 0.427443 0.034489 0.052906
C21   C     C_R   0.603453 0.986055 0.592537 -0.024395
C22   C     C_R   0.396953 0.990929 0.408768 -0.022155
C23   C     C_R   0.896546 0.486057 0.907467 -0.024413
C24   C     C_R   0.103046 0.490938 0.091232 -0.022155
C25   C     C_R   0.569764 0.995927 0.535489 0.061337
C26   C     C_R   0.429701 0.975152 0.466546 0.060226
C27   C     C_R   0.930234 0.495938 0.964514 0.061338
C28   C     C_R   0.070297 0.475161 0.033455 0.060225
C29   C     C_R   0.593004 0.003446 0.479012 0.089892
C30   C     C_R   0.405660 0.980013 0.522686 0.090520
C31   C     C_R   0.906995 0.503466 0.020991 0.089881
C32   C     C_R   0.094338 0.480015 0.977315 0.090520
C33   C     C_R   0.514440 0.997113 0.531022 0.065791
C34   C     C_R   0.485048 0.965074 0.471842 0.065033
C35   C     C_R   0.985559 0.497122 0.968980 0.065793
C36   C     C_R   0.014950 0.465088 0.028160 0.065033
C37   C     C_R   0.512132 0.914246 0.420961 -0.208015
C38   C     C_R   0.487597 0.047375 0.582097 -0.204798
C39   C     C_R   0.987866 0.414268 0.079043 -0.208011
C40   C     C_R   0.012401 0.547373 0.917903 -0.204800
C41   C     C_R   0.564764 0.950118 0.422878 -0.180402
C42   C     C_R   0.434526 0.023573 0.579330 -0.178523
C43   C     C_R   0.935235 0.450143 0.077125 -0.180397
C44   C     C_R   0.065472 0.523569 0.920670 -0.178522
H1    H     H_    0.583597 0.933698 0.380489 0.134036
H2    H     H_    0.415632 0.047621 0.621333 0.132065
H3    H     H_    0.916401 0.433727 0.119514 0.134032
H4    H     H_    0.084365 0.547610 0.878666 0.132066
H5    H     H_    0.660112 0.085631 0.435030 0.125556
H6    H     H_    0.334789 0.955182 0.565282 0.124381
H7    H     H_    0.839882 0.585627 0.064972 0.125550
H8    H     H_    0.165208 0.455178 0.934718 0.124381
H9    H     H_    0.492606 0.853498 0.378586 0.132814
H10   H     H_    0.507273 0.106512 0.624604 0.131242
H11   H     H_    0.007392 0.353519 0.121418 0.132812
H12   H     H_    0.992725 0.606500 0.875395 0.131243
C45   C     C_R   0.438741 0.804714 0.096804 0.187433
C46   C     C_R   0.560604 0.192133 0.902738 0.187382
C47   C     C_R   0.061259 0.304714 0.403197 0.187433
C48   C     C_R   0.939399 0.692130 0.597266 0.187385
C49   C     C_R   0.399346 0.792262 0.136859 -0.204859
C50   C     C_R   0.600937 0.207888 0.864094 -0.195252
C51   C     C_R   0.100654 0.292262 0.363143 -0.204860
C52   C     C_R   0.899066 0.707885 0.635910 -0.195232
H13   H     H_    0.396941 0.664112 0.165667 0.145229
H14   H     H_    0.604482 0.339643 0.837312 0.142633
H15   H     H_    0.103059 0.164113 0.334334 0.145228
H16   H     H_    0.895520 0.839640 0.662691 0.142636
C53   C     C_R   0.363570 0.944284 0.140054 -0.082307
C54   C     C_R   0.635660 0.053284 0.858950 -0.088024
C55   C     C_R   0.136430 0.444283 0.359946 -0.082307
C56   C     C_R   0.864343 0.553282 0.641053 -0.088135
C57   C     C_R   0.368272 0.109280 0.102502 -0.172143
C58   C     C_R   0.628978 0.882474 0.893342 -0.177404
C59   C     C_R   0.131728 0.609278 0.397498 -0.172144
C60   C     C_R   0.871025 0.382472 0.606661 -0.177431
H17   H     H_    0.341568 0.228649 0.104102 0.127279
H18   H     H_    0.654740 0.760070 0.890523 0.134418
H19   H     H_    0.158433 0.728647 0.395897 0.127279
H20   H     H_    0.845262 0.260069 0.609480 0.134422
C61   C     C_R   0.406844 0.120986 0.061817 -0.138661
C62   C     C_R   0.590190 0.869461 0.933672 -0.135975
C63   C     C_R   0.093158 0.620984 0.438184 -0.138664
C64   C     C_R   0.909813 0.369461 0.566332 -0.135892
H21   H     H_    0.408919 0.248962 0.032816 0.162637
H22   H     H_    0.587231 0.738668 0.961108 0.166939
H23   H     H_    0.091082 0.748959 0.467184 0.162636
H24   H     H_    0.912771 0.238669 0.538895 0.166935
C65   C     C_R   0.442443 0.969718 0.058586 0.075545
C66   C     C_R   0.555584 0.022989 0.938659 0.078074
C67   C     C_R   0.057558 0.469717 0.441415 0.075544
C68   C     C_R   0.944418 0.522988 0.561344 0.078057
C69   C     C_1   0.482332 0.987437 0.016207 0.063230
C70   C     C_1   0.515528 0.004012 0.980775 0.063163
C71   C     C_1   0.017670 0.487436 0.483795 0.063232
C72   C     C_1   0.984474 0.504012 0.519227 0.063161
C73   C     C_3   0.412873 0.115425 0.354846 -0.373574
C74   C     C_3   0.398236 0.329407 0.364060 -0.275617
C75   C     C_3   0.411204 0.455308 0.309255 -0.707825
H25   H     H_    0.453295 0.451336 0.304952 0.222675
H26   H     H_    0.390096 0.402944 0.264962 0.235166
H27   H     H_    0.399817 0.608200 0.317125 0.204588
H28   H     H_    0.356462 0.343610 0.369122 0.212292
H29   H     H_    0.419758 0.385681 0.407652 0.190948
H30   H     H_    0.454449 0.115468 0.350235 0.187311
H31   H     H_    0.394452 0.060466 0.309389 0.160207
C76   C     C_3   0.590178 0.856204 0.646420 -0.369419
C77   C     C_3   0.605754 0.644755 0.635099 -0.276724
C78   C     C_3   0.591357 0.511317 0.687418 -0.701927
H32   H     H_    0.549018 0.513398 0.689985 0.219519
H33   H     H_    0.603061 0.359918 0.678035 0.204383
H34   H     H_    0.611173 0.558415 0.733078 0.233877
H35   H     H_    0.585755 0.592624 0.590041 0.188747
H36   H     H_    0.647868 0.634755 0.632000 0.207776
H37   H     H_    0.609410 0.909131 0.691691 0.163461
H38   H     H_    0.548867 0.853027 0.652664 0.185382
C79   C     C_3   0.087128 0.615435 0.145155 -0.373573
C80   C     C_3   0.101765 0.829416 0.135939 -0.275615
C81   C     C_3   0.088798 0.955318 0.190743 -0.707823
H39   H     H_    0.046707 0.951349 0.195047 0.222672
H40   H     H_    0.109906 0.902953 0.235037 0.235166
H41   H     H_    0.100185 0.108210 0.182873 0.204589
H42   H     H_    0.143539 0.843616 0.130877 0.212292
H43   H     H_    0.080244 0.885691 0.092347 0.190948
H44   H     H_    0.045552 0.615482 0.149766 0.187310
H45   H     H_    0.105548 0.560474 0.190612 0.160206
C82   C     C_3   0.909819 0.356186 0.853589 -0.369412
C83   C     C_3   0.894240 0.144742 0.864917 -0.276704
C84   C     C_3   0.908637 0.011288 0.812603 -0.701929
H46   H     H_    0.950976 0.013369 0.810036 0.219512
H47   H     H_    0.896935 0.859892 0.821992 0.204384
H48   H     H_    0.888821 0.058370 0.766941 0.233879
H49   H     H_    0.914240 0.092624 0.909977 0.188746
H50   H     H_    0.852126 0.134746 0.868018 0.207774
H51   H     H_    0.890589 0.409102 0.808315 0.163466
H52   H     H_    0.951131 0.352998 0.847346 0.185379
C85   C     C_3   0.263825 0.906965 0.468590 -0.367089
C86   C     C_3   0.239522 0.106654 0.478340 -0.313136
C87   C     C_3   0.182181 0.089900 0.486064 -0.729994
H53   H     H_    0.161024 0.032729 0.442645 0.227476
H54   H     H_    0.175895 0.992169 0.525707 0.234339
H55   H     H_    0.166518 0.235796 0.495591 0.230203
H56   H     H_    0.259031 0.176795 0.520924 0.197420
H57   H     H_    0.244546 0.201866 0.437600 0.195999
H58   H     H_    0.244751 0.838572 0.425633 0.162757
H59   H     H_    0.256818 0.808538 0.507903 0.175511
C88   C     C_3   0.724479 0.213492 0.531559 -0.348738
C89   C     C_3   0.716946 0.434757 0.537249 -0.293014
C90   C     C_3   0.755954 0.549567 0.503653 -0.762505
H60   H     H_    0.795810 0.505857 0.520433 0.240292
H61   H     H_    0.749420 0.523925 0.452465 0.233171
H62   H     H_    0.751390 0.707308 0.512664 0.216131
H63   H     H_    0.677696 0.478191 0.516803 0.198723
H64   H     H_    0.720963 0.476881 0.587324 0.198465
H65   H     H_    0.754294 0.161634 0.568342 0.147296
H66   H     H_    0.739553 0.178815 0.486232 0.180610
C91   C     C_3   0.236174 0.406966 0.031409 -0.367089
C92   C     C_3   0.260476 0.606654 0.021659 -0.313136
C93   C     C_3   0.317818 0.589901 0.013937 -0.729995
H67   H     H_    0.338974 0.532735 0.057357 0.227475
H68   H     H_    0.324105 0.492168 0.974295 0.234339
H69   H     H_    0.333480 0.735797 0.004408 0.230203
H70   H     H_    0.240968 0.676794 0.979073 0.197420
H71   H     H_    0.255451 0.701867 0.062398 0.195998
H72   H     H_    0.255248 0.338571 0.074367 0.162760
H73   H     H_    0.243180 0.308539 0.992097 0.175510
C94   C     C_3   0.775504 0.713394 0.968440 -0.348742
C95   C     C_3   0.783005 0.934674 0.962734 -0.293037
C96   C     C_3   0.744012 0.049412 0.996374 -0.762420
H74   H     H_    0.704150 0.005367 0.979726 0.240311
H75   H     H_    0.750652 0.024049 0.047573 0.233138
H76   H     H_    0.748485 0.207151 0.987258 0.216104
H77   H     H_    0.822260 0.978182 0.983134 0.198705
H78   H     H_    0.778945 0.976787 0.912660 0.198473
H79   H     H_    0.745695 0.661461 0.931662 0.147244
H80   H     H_    0.760434 0.678698 0.013771 0.180623
I1    I     I_    0.491735 0.571232 0.096393 -0.441334
I2    I     I_    0.507391 0.424843 0.903649 -0.447985
I3    I     I_    0.008266 0.071233 0.403610 -0.441332
I4    I     I_    0.992612 0.924840 0.596354 -0.447982

loop_
_geom_bond_atom_site_label_1
_geom_bond_atom_site_label_2
_ccdc_geom_bond_type
C89   H63   S    
O17   V3    S    
C81   H41   S    
C59   H19   S    
C88   C89   S    
C52   C56   A    
O1    C5    A    
C51   H15   S    
O19   V1    S    
C9    C21   A    
O12   C8    A    
O3    C7    A    
C87   H53   S    
C10   C18   A    
C60   H20   S    
C73   H31   S    
C23   C27   A    
O15   V3    S    
C85   C86   S    
C18   C85   S    
C79   H44   S    
C75   H25   S    
C5    C12   S    
C39   H11   S    
C91   C92   S    
O7    C3    A    
C6    C11   S    
C17   C88   S    
C35   C40   A    
C26   C30   A    
C62   C66   A    
C36   C39   A    
C40   C44   A    
O9    V1    S    
C87   H54   S    
C94   H79   S    
C14   C18   A    
C93   H68   S    
C62   H22   S    
O4    C8    A    
C55   C59   A    
C75   H26   S    
C54   C58   A    
C77   H36   S    
C81   H39   S    
O1    V3    S    
O13   V1    S    
O2    V4    S    
C74   H28   S    
O3    V1    S    
C92   C93   S    
C13   H5    S    
C76   H38   S    
C50   C54   A    
C49   C53   A    
C1    O15   A    
C15   C31   A    
C52   H16   S    
C37   H9    S    
C77   C78   S    
C16   C32   A    
C58   H18   S    
C51   C55   A    
O2    C6    A    
C78   H34   S    
C82   C83   S    
C22   C73   S    
C10   C22   A    
C15   H7    S    
C84   H47   S    
C11   C19   A    
C1    C55   S    
C16   C20   A    
C43   H3    S    
C44   H4    S    
C13   C29   A    
C45   C49   A    
C7    C10   S    
C34   C37   A    
O11   C7    A    
C11   C23   A    
C35   C36   A    
C48   C68   A    
C90   H60   S    
O10   C6    A    
C40   H12   S    
C88   H65   S    
C91   H72   S    
O10   V2    S    
C79   H45   S    
O5    V1    S    
C85   H58   S    
C90   H61   S    
O17   V1    S    
C83   H50   S    
C60   C64   A    
O7    V3    S    
C38   C42   A    
O19   V3    S    
C94   C95   S    
O8    V4    S    
C80   H43   S    
O20   V4    S    
C87   H55   S    
C94   H80   S    
C46   C66   A    
C47   I3    S    
C50   H14   S    
C93   H69   S    
C2    O16   A    
C46   I2    S    
C49   H13   S    
O18   V4    S    
C75   H27   S    
C45   I1    S    
C96   H75   S    
C77   H35   S    
C32   C44   A    
C68   C72   S    
C82   H51   S    
C93   H67   S    
C39   C43   A    
O5    C1    A    
C47   C67   A    
C91   H73   S    
C31   C43   A    
C14   C30   A    
C2    C56   S    
O8    C4    A    
C96   H76   S    
C21   C25   A    
C26   C34   A    
O9    C5    A    
C92   H71   S    
C95   H77   S    
C84   H48   S    
C63   C67   A    
C73   C74   S    
C66   C70   S    
C65   C69   S    
C85   H59   S    
C89   H64   S    
O6    V2    S    
C23   C82   S    
C21   C76   S    
C95   H78   S    
C78   H32   S    
C86   H57   S    
C88   H66   S    
C12   C20   A    
C27   C35   A    
C33   C38   A    
C45   C65   A    
C76   C77   S    
C53   C57   A    
C29   C41   A    
C89   C90   S    
C86   C87   S    
O16   V4    S    
C90   H62   S    
C61   C65   A    
C81   H40   S    
C61   H21   S    
C83   H49   S    
C3    O13   A    
C63   H23   S    
C80   H42   S    
C38   H10   S    
C48   C52   A    
C73   H30   S    
C47   C51   A    
O6    C2    A    
C25   C33   A    
C15   C19   A    
C71   C72   T    
C74   H29   S    
O11   V3    S    
C30   C42   A    
O12   V4    S    
C59   C63   A    
C22   C26   A    
C67   C71   S    
C8    C9    S    
C58   C62   A    
C9    C17   A    
C95   C96   S    
C64   C68   A    
O20   V2    S    
C74   C75   S    
C57   C61   A    
C46   C50   A    
C69   C70   T    
C82   H52   S    
C4    C54   S    
C48   I4    S    
C33   C34   A    
C42   H2    S    
C41   H1    S    
C56   C60   A    
C14   H6    S    
C24   C79   S    
C12   C24   A    
C27   C31   A    
C92   H70   S    
C37   C41   A    
C13   C17   A    
O4    V2    S    
C25   C29   A    
C76   H37   S    
O14   V2    S    
C19   C94   S    
C86   H56   S    
C64   H24   S    
C24   C28   A    
C83   C84   S    
C28   C36   A    
C96   H74   S    
C16   H8    S    
C4    O14   A    
C78   H33   S    
C80   C81   S    
C3    C53   S    
C84   H46   S    
C79   C80   S    
C20   C91   S    
C57   H17   S    
C28   C32   A    
O18   V2    S    
