data_mof_unit_33455.cif
_audit_creation_date              2013-03-05T16:42:04-0500
_audit_creation_method            fapswitch 2.2
_symmetry_space_group_name_H-M    P1
_symmetry_Int_Tables_number       1
_space_group_crystal_system       triclinic
_cell_length_a                    10.045293
_cell_length_b                    10.747533
_cell_length_c                    13.392632
_cell_angle_alpha                 94.111701
_cell_angle_beta                  71.384839
_cell_angle_gamma                 93.114158
_cell_volume                      1365.97041314

loop_
_atom_site_label
_atom_site_type_symbol
_atom_site_description
_atom_site_fract_x
_atom_site_fract_y
_atom_site_fract_z
_atom_type_partial_charge
O1    O     O_R   0.385310 0.683210 0.499990 -0.637941
O2    O     O_R   0.614650 0.683240 0.500000 -0.549655
C1    C     C_R   0.500953 0.739167 0.502928 0.938058
O3    O     O_R   0.328390 0.499940 0.653610 -0.582338
O4    O     O_R   0.557730 0.499980 0.653620 -0.618063
C2    C     C_R   0.421561 0.502925 0.702885 0.902564
Zn1   Zn    Zn3+2 0.346870 0.499980 0.499990 1.052095
Zn2   Zn    Zn3+2 0.653130 0.500020 0.500010 1.136123
O5    O     O_R   0.385350 0.316760 0.500000 -0.619177
O6    O     O_R   0.614690 0.316790 0.500010 -0.531395
O7    O     O_R   0.442270 0.500020 0.346380 -0.618167
O8    O     O_R   0.671610 0.500060 0.346390 -0.511738
C3    C     C_R   0.497397 0.260578 0.499655 0.957614
C4    C     C_R   0.578470 0.499923 0.296623 0.979693
C5    C     C_R   0.783359 0.572689 0.013727 0.256682
C6    C     C_R   0.625180 0.503073 0.180067 -0.160744
C7    C     C_R   0.240508 0.433254 0.863828 -0.135427
C8    C     C_R   0.212304 0.382405 0.960719 -0.042834
C9    C     C_R   0.313033 0.388981 0.013239 0.369677
C10   C     C_R   0.437905 0.466675 0.975323 -0.052991
C11   C     C_R   0.460864 0.521252 0.877691 -0.048834
C12   C     C_R   0.543724 0.493863 0.025852 0.010450
C13   C     C_R   0.675743 0.547192 0.967929 -0.046046
C14   C     C_R   0.694532 0.581745 0.866054 0.222402
C15   C     C_R   0.575307 0.604623 0.841052 0.310754
C16   C     C_R   0.518698 0.482954 0.132800 -0.102619
C17   C     C_R   0.764268 0.538644 0.117239 0.318600
C18   C     C_R   0.370393 0.492791 0.817787 -0.038053
H1    H     H_    0.412420 0.467107 0.181443 0.236368
H2    H     H_    0.166353 0.414459 0.820568 0.211515
H3    H     H_    0.115550 0.327607 0.990176 0.202915
C19   C     C_R   0.541309 0.929295 0.410547 -0.019131
C20   C     C_R   0.503460 0.871159 0.504689 -0.092749
C21   C     C_R   0.472002 0.942779 0.599932 -0.090625
H4    H     H_    0.446572 0.898451 0.673737 0.240168
C22   C     C_R   0.465971 0.072139 0.599691 0.292965
C23   C     C_R   0.492780 0.128212 0.502831 -0.153281
C24   C     C_R   0.545906 0.056520 0.408598 -0.019940
C25   C     C_3   0.511956 0.048370 0.307178 0.523437
C26   C     C_3   0.496757 0.906700 0.315212 -0.001772
H5    H     H_    0.386489 0.869360 0.335364 0.162187
C27   C     C_R   0.945139 0.606808 0.482864 0.120756
N1    N     N_R   0.856940 0.500860 0.500710 -0.170411
C28   C     C_R   0.931418 0.390571 0.488537 0.462798
C29   C     C_R   0.068687 0.392460 0.498098 -0.053401
H6    H     H_    0.120362 0.306361 0.496500 0.218778
N2    N     N_R   0.142580 0.500820 0.500710 -0.123257
C30   C     C_R   0.083411 0.605314 0.487232 0.085385
C31   C     C_3   0.082826 0.727133 0.544021 0.014266
C32   C     C_3   0.934468 0.736096 0.538238 0.186160
H7    H     H_    0.165065 0.791465 0.496103 0.192479
H8    H     H_    0.850794 0.741873 0.615371 0.163144
S1    S     S_3+6 0.909035 0.553701 0.168896 0.098350
O9    O     O_2   0.923647 0.432917 0.213048 -0.195662
O10   O     O_2   0.047531 0.583337 0.087978 -0.261318
O11   O     O_3   0.879037 0.667165 0.265506 -0.469834
H9    H     H_    0.906943 0.745554 0.228403 0.414349
Br1   Br    Br    0.418932 0.166630 0.732292 -0.419272
Br2   Br    Br    0.336498 0.121823 0.320038 -0.266151
S2    S     S_3+6 0.657736 0.104096 0.200072 0.147906
O12   O     O_2   0.642366 0.055032 0.096254 -0.172238
O13   O     O_2   0.661151 0.243794 0.205262 -0.284445
O14   O     O_3   0.809986 0.055760 0.208626 -0.515299
H10   H     H_    0.884199 0.095714 0.151002 0.416748
Br3   Br    Br    0.626186 0.805869 0.206027 -0.380108
S3    S     S_3+6 0.888137 0.245478 0.433123 0.117399
O15   O     O_2   0.793397 0.168946 0.519000 -0.236125
O16   O     O_2   0.821045 0.263871 0.350323 -0.224430
O17   O     O_3   0.033711 0.165504 0.373715 -0.457810
H11   H     H_    0.010948 0.108826 0.319358 0.427099
Br4   Br    Br    0.095118 0.723772 0.684622 -0.345796
Br5   Br    Br    0.836928 0.495185 0.757692 -0.473170
S4    S     S_3+6 0.944366 0.862346 0.455621 0.084259
O18   O     O_2   0.966282 0.979996 0.516695 -0.200434
O19   O     O_2   0.067312 0.847716 0.356133 -0.289095
O20   O     O_3   0.799823 0.871772 0.422245 -0.495000
H12   H     H_    0.824374 0.935636 0.369052 0.411816
Br6   Br    Br    0.934211 0.688195 0.946465 -0.235099
S5    S     S_3+6 0.289484 0.274508 0.105833 0.088489
O21   O     O_2   0.213960 0.328744 0.214594 -0.225903
O22   O     O_2   0.203278 0.164782 0.081424 -0.231223
O23   O     O_3   0.447223 0.224839 0.099493 -0.456251
H13   H     H_    0.492957 0.200905 0.023853 0.390756
S6    S     S_3+6 0.533168 0.762837 0.845671 0.075062
O24   O     O_2   0.390730 0.772621 0.833163 -0.242914
O25   O     O_2   0.529675 0.823343 0.951232 -0.192380
O26   O     O_3   0.653524 0.839199 0.750532 -0.546061
H14   H     H_    0.731671 0.861516 0.779301 0.396345

loop_
_geom_bond_atom_site_label_1
_geom_bond_atom_site_label_2
_geom_bond_distance
_ccdc_geom_bond_type
S3    O16   1.498672 D    
O26   H14   0.990763 S    
S4    O18   1.500907 D    
C28   S3    1.771399 S    
C9    C10   1.438374 A    
Zn2   N1    2.049871 S    
S1    O9    1.497509 D    
Zn1   O7    1.972832 S    
S2    O14   1.681898 S    
C22   C23   1.410639 A    
S6    O25   1.503906 D    
C8    C9    1.401097 A    
C22   Br1   1.914719 S    
O4    C2    1.316399 A    
O7    C4    1.316792 A    
S3    O17   1.675099 S    
C1    C20   1.416084 S    
O11   H9    0.990318 S    
S2    O13   1.497057 D    
C21   H4    1.078130 S    
O5    C3    1.304454 A    
S6    O24   1.502755 D    
C2    C18   1.468693 S    
C31   H7    1.111505 S    
C15   S6    1.766580 S    
C32   H8    1.104358 S    
C13   C14   1.391293 A    
S6    O26   1.678529 S    
C19   C24   1.367461 A    
C3    C23   1.424081 S    
C6    C17   1.429627 A    
S1    O10   1.500064 D    
S3    O15   1.502281 D    
C7    H2    1.083398 S    
S4    O19   1.505264 D    
O3    Zn1   2.005877 S    
C20   C21   1.395603 A    
C29   N2    1.351037 A    
C6    C16   1.406817 A    
C14   C15   1.380862 A    
O3    C2    1.304031 A    
C32   S4    1.790431 S    
C25   C26   1.530018 S    
S5    O22   1.503973 D    
C29   H6    1.080949 S    
O14   H10   0.990538 S    
S2    O12   1.502716 D    
O1    C1    1.289419 A    
Zn1   N2    2.049603 S    
N1    C28   1.407865 A    
C23   C24   1.395167 A    
S5    O23   1.674049 S    
C5    C17   1.409924 A    
N2    C30   1.348037 A    
Zn2   O8    2.005878 S    
C25   Br2   1.922828 S    
C7    C8    1.383078 A    
C27   C30   1.409747 A    
O20   H12   0.989455 S    
C9    S5    1.762750 S    
C27   C32   1.519834 S    
C26   H5    1.112301 S    
C11   C18   1.401156 A    
O8    C4    1.310509 A    
C31   C32   1.525331 S    
C26   Br3   1.927463 S    
C31   Br4   1.928989 S    
S4    O20   1.659859 S    
C4    C6    1.481980 S    
C27   N1    1.390296 A    
C28   C29   1.423904 A    
C14   Br5   1.908756 S    
S1    O11   1.678299 S    
Zn1   O5    2.027261 S    
C11   C15   1.398657 A    
C30   C31   1.465533 S    
O1    Zn1   1.986079 S    
C7    C18   1.394358 A    
O2    Zn2   2.027262 S    
C10   C12   1.438886 A    
O6    C3    1.295795 A    
O4    Zn2   1.972830 S    
C17   S1    1.794510 S    
C19   C20   1.380469 A    
O2    C1    1.307621 A    
C24   C25   1.498094 S    
C25   S2    1.802118 S    
C5    C13   1.409589 A    
C21   C22   1.395176 A    
C19   C26   1.482568 S    
O17   H11   0.990378 S    
S5    O21   1.502606 D    
C5    Br6   1.932175 S    
C10   C11   1.417633 A    
C16   H1    1.070186 S    
Zn2   O6    1.986079 S    
O23   H13   0.990857 S    
C12   C16   1.385459 A    
C12   C13   1.418939 A    
C8    H3    1.083264 S    
