data_mof_unit_30973.cif
_audit_creation_date              2013-03-05T16:32:26-0500
_audit_creation_method            fapswitch 2.2
_symmetry_space_group_name_H-M    P1
_symmetry_Int_Tables_number       1
_space_group_crystal_system       triclinic
_cell_length_a                    10.639944
_cell_length_b                    10.805885
_cell_length_c                    9.556783
_cell_angle_alpha                 89.831008
_cell_angle_beta                  89.957575
_cell_angle_gamma                 90.226151
_cell_volume                      1098.76802709

loop_
_atom_site_label
_atom_site_type_symbol
_atom_site_description
_atom_site_fract_x
_atom_site_fract_y
_atom_site_fract_z
_atom_type_partial_charge
O1    O     O_R   0.500000 0.319640 0.618810 -0.561508
O2    O     O_R   0.500010 0.319680 0.381230 -0.597986
C1    C     C_R   0.501439 0.262484 0.500269 0.817986
O3    O     O_R   0.316850 0.499950 0.618770 -0.580563
O4    O     O_R   0.316860 0.499990 0.381190 -0.587147
C2    C     C_R   0.259483 0.499881 0.500125 0.845535
Cu1   Cu    Cu3+1 0.499990 0.499980 0.640670 1.017388
Cu2   Cu    Cu3+1 0.500010 0.500020 0.359330 0.968806
O5    O     O_R   0.499990 0.680320 0.618770 -0.586808
O6    O     O_R   0.500000 0.680360 0.381190 -0.589611
O7    O     O_R   0.683140 0.500010 0.618810 -0.538397
O8    O     O_R   0.683150 0.500050 0.381230 -0.591013
C3    C     C_R   0.501823 0.737604 0.500018 0.832928
C4    C     C_R   0.740580 0.499024 0.499847 0.866929
C5    C     C_3   0.041683 0.498080 0.633713 -0.137703
C6    C     C_3   0.960293 0.398292 0.564456 0.350733
H1    H     H_    0.076668 0.496699 0.743136 0.186467
C7    C     C_3   0.877324 0.497355 0.499271 -0.126178
C8    C     C_3   0.958279 0.599353 0.566128 -0.113451
C9    C     C_3   0.042154 0.600253 0.433615 -0.102994
C10   C     C_3   0.959586 0.498047 0.366637 -0.197116
C11   C     C_3   0.043246 0.396384 0.433245 -0.233094
C12   C     C_3   0.122957 0.498833 0.500624 -0.062571
H2    H     H_    0.080251 0.312647 0.380539 0.170855
C13   C     C_R   0.479073 0.063556 0.622431 0.101106
C14   C     C_R   0.511422 0.129485 0.502051 -0.036584
C15   C     C_R   0.559448 0.065402 0.386192 -0.157036
H3    H     H_    0.592722 0.114586 0.294355 0.167106
C16   C     C_R   0.560084 0.936267 0.386459 -0.176543
H4    H     H_    0.595144 0.888320 0.295567 0.153247
C17   C     C_R   0.511360 0.870883 0.501730 -0.035161
C18   C     C_R   0.478236 0.936153 0.622003 0.046894
C19   C     C_3   0.361639 0.930842 0.710296 0.163264
C20   C     C_3   0.363310 0.071757 0.710653 -0.496768
H5    H     H_    0.283463 0.116094 0.654884 0.238933
C21   C     C_R   0.591211 0.562050 0.073369 0.225191
N1    N     N_R   0.500800 0.500930 0.147930 -0.188781
C22   C     C_R   0.417142 0.429546 0.074683 -0.052110
C23   C     C_R   0.417022 0.429654 0.925859 -0.054870
H6    H     H_    0.348266 0.374534 0.870354 0.146035
N2    N     N_R   0.500800 0.500890 0.852020 -0.216842
C24   C     C_R   0.591880 0.561278 0.925836 0.235889
C25   C     C_3   0.619329 0.696825 0.920281 0.116250
C26   C     C_3   0.617933 0.697444 0.079167 -0.559474
H7    H     H_    0.537213 0.750403 0.121398 0.190312
N3    N     N_R   0.918399 0.286131 0.635986 0.131945
O9    O     O_R   0.001015 0.211077 0.688981 -0.332149
O10   O     O_R   0.799689 0.257803 0.642880 -0.347663
H8    H     H_    0.377336 0.889276 0.815334 0.106608
H9    H     H_    0.383856 0.111258 0.815475 0.180880
H10   H     H_    0.348508 0.374288 0.130651 0.146311
N4    N     N_R   0.743273 0.724005 0.861239 0.151469
O11   O     O_R   0.755784 0.813588 0.771025 -0.345383
O12   O     O_R   0.841738 0.660986 0.899014 -0.364101
H11   H     H_    0.542866 0.752492 0.872869 0.114241
H12   H     H_    0.710151 0.718028 0.128740 0.229101
H13   H     H_    0.922005 0.683195 0.618806 0.240120
H14   H     H_    0.079328 0.683897 0.379752 0.191532
H15   H     H_    0.924080 0.498552 0.257413 0.189473
N5    N     N_R   0.253164 0.878250 0.636764 0.152676
O13   O     O_R   0.188044 0.790284 0.695616 -0.345996
O14   O     O_R   0.221676 0.916961 0.512511 -0.360610

loop_
_geom_bond_atom_site_label_1
_geom_bond_atom_site_label_2
_geom_bond_distance
_ccdc_geom_bond_type
O4    Cu2   1.959718 S    
Cu1   O7    1.959717 S    
C25   C26   1.518540 S    
C16   H4    1.079733 S    
C25   H11   1.109885 S    
C15   C16   1.395449 A    
C7    C10   1.539840 S    
N2    C24   1.364304 A    
C4    C7    1.455132 S    
C21   C24   1.410002 A    
C17   C18   1.396062 A    
C9    C12   1.534413 S    
C13   C20   1.495181 S    
Cu2   O8    1.959960 S    
C6    C11   1.533134 S    
C18   C19   1.500644 S    
C13   C18   1.376704 A    
C5    C12   1.537477 S    
C19   C20   1.522764 S    
O8    C4    1.288234 A    
Cu1   Cu2   2.688703 S    
C16   C17   1.404708 A    
C6    C7    1.522377 S    
O1    Cu1   1.960512 S    
C10   C11   1.552031 S    
C26   H7    1.110284 S    
C5    C8    1.551333 S    
C14   C15   1.404670 A    
N1    C22   1.369673 A    
O3    Cu1   1.959960 S    
C2    C12   1.452630 S    
Cu2   O6    1.960512 S    
C21   N1    1.364008 A    
N4    O12   1.302456 A    
C10   H15   1.110363 S    
C19   N5    1.465363 S    
O2    C1    1.293200 A    
Cu1   N2    2.019905 S    
O4    C2    1.289808 A    
O7    C4    1.290460 A    
C11   H2    1.110273 S    
C25   N4    1.462401 S    
C20   H9    1.111583 S    
O3    C2    1.288113 A    
C21   C26   1.490527 S    
C24   C25   1.493193 S    
C9    H14   1.110184 S    
C5    C6    1.532457 S    
N3    O10   1.300035 A    
Cu1   O5    1.959325 S    
C23   H6    1.081812 S    
C22   C23   1.422273 A    
C9    C10   1.548745 S    
C23   N2    1.369503 A    
N5    O14   1.302322 A    
C20   H5    1.112534 S    
Cu2   N1    2.020311 S    
C6    N3    1.457849 S    
C15   H3    1.083239 S    
C5    H1    1.110353 S    
C26   H12   1.111868 S    
N3    O9    1.300317 A    
C7    C8    1.537029 S    
O5    C3    1.291217 A    
C22   H10   1.081673 S    
O2    Cu2   1.959327 S    
C13   C14   1.393623 A    
C11   C12   1.535291 S    
C19   H8    1.111527 S    
C3    C17   1.443512 S    
C1    C14   1.441564 S    
C8    H13   1.108323 S    
C8    C9    1.548693 S    
N4    O11   1.300768 A    
N5    O13   1.300389 A    
O1    C1    1.292001 A    
O6    C3    1.294873 A    
