data_mof_unit_68218.cif
_audit_creation_date              2012-12-11T17:12:50-0500
_audit_creation_method            fapswitch 2.2
_symmetry_space_group_name_H-M    P1
_symmetry_Int_Tables_number       1
_space_group_crystal_system       triclinic
_cell_length_a                    17.260705
_cell_length_b                    6.879784
_cell_length_c                    14.348933
_cell_angle_alpha                 90.000106
_cell_angle_beta                  110.235183
_cell_angle_gamma                 90.000144
_cell_volume                      1598.7692117

loop_
_atom_site_label
_atom_site_type_symbol
_atom_type_description
_atom_site_fract_x
_atom_site_fract_y
_atom_site_fract_z
_atom_type_partial_charge
O1    O     O_R   0.314130 0.635770 0.168990 -0.534316
O2    O     O_R   0.685870 0.364230 0.831010 -0.534312
O3    O     O_R   0.185870 0.135770 0.331010 -0.534310
O4    O     O_R   0.814130 0.864230 0.668990 -0.534310
O5    O     O_R   0.146800 0.302460 0.139760 -0.545032
O6    O     O_R   0.853200 0.697540 0.860240 -0.544960
O7    O     O_R   0.353200 0.802460 0.360240 -0.545030
O8    O     O_R   0.646800 0.197540 0.639760 -0.545005
C1    C     C_R   0.113954 0.475843 0.112872 0.717804
C2    C     C_R   0.886046 0.524156 0.887127 0.717764
C3    C     C_R   0.386046 0.975844 0.387127 0.717761
C4    C     C_R   0.613953 0.024156 0.612873 0.717754
O9    O     O_R   0.311100 0.305780 0.157130 -0.547935
O10   O     O_R   0.688900 0.694220 0.842870 -0.547938
O11   O     O_R   0.188900 0.805780 0.342870 -0.547941
O12   O     O_R   0.811100 0.194220 0.657130 -0.547942
O13   O     O_R   0.351340 0.139640 0.348510 -0.533015
O14   O     O_R   0.648660 0.860360 0.651490 -0.533030
O15   O     O_R   0.148660 0.639640 0.151490 -0.533024
O16   O     O_R   0.851340 0.360360 0.848510 -0.533087
C5    C     C_R   0.332936 0.474038 0.136045 0.688268
C6    C     C_R   0.667063 0.525963 0.863953 0.688227
C7    C     C_R   0.167066 0.974038 0.363957 0.688239
C8    C     C_R   0.832938 0.025963 0.636047 0.688108
C9    C     C_1   0.533546 0.008794 0.533133 -0.196125
C10   C     C_1   0.466454 0.991205 0.466868 -0.196102
C11   C     C_1   0.966454 0.508793 0.966867 -0.196260
C12   C     C_1   0.033546 0.491203 0.033132 -0.196214
O17   O     O_3   0.263010 0.470920 0.312770 -0.364270
O18   O     O_3   0.736990 0.529080 0.687230 -0.364267
O19   O     O_3   0.236990 0.970920 0.187230 -0.364271
O20   O     O_3   0.763010 0.029080 0.812770 -0.364276
V1    V     V_3+5 0.247590 0.194450 0.238360 1.423485
V2    V     V_3+5 0.752410 0.805550 0.761640 1.423534
V3    V     V_3+5 0.252410 0.694450 0.261640 1.423491
V4    V     V_3+5 0.747590 0.305550 0.738360 1.423469
C13   C     C_R   0.115279 0.975207 0.427507 -0.148275
C14   C     C_R   0.884742 0.024812 0.572519 -0.148170
C15   C     C_R   0.384725 0.475209 0.072496 -0.148313
C16   C     C_R   0.615267 0.524799 0.927494 -0.148287
C17   C     C_R   0.917065 0.179772 0.438072 0.008692
C18   C     C_R   0.082975 0.820297 0.561979 0.008753
C19   C     C_R   0.582947 0.679752 0.061945 0.008741
C20   C     C_R   0.417037 0.320269 0.938038 0.008712
C21   C     C_R   0.858417 0.131089 0.482451 -0.096507
C22   C     C_R   0.141614 0.868954 0.517580 -0.096368
C23   C     C_R   0.641593 0.631076 0.017561 -0.096463
C24   C     C_R   0.358393 0.368948 0.982425 -0.096444
C25   C     C_R   0.965961 0.947436 0.608610 0.091502
C26   C     C_R   0.034065 0.052611 0.391434 0.091632
C27   C     C_R   0.534052 0.447399 0.891412 0.091595
C28   C     C_R   0.465939 0.552608 0.108574 0.091623
C29   C     C_R   0.012015 0.939485 0.542952 0.053817
C30   C     C_R   0.988019 0.060573 0.457098 0.053832
C31   C     C_R   0.487997 0.439458 0.957067 0.053805
C32   C     C_R   0.511990 0.560557 0.042917 0.053809
C33   C     C_3   0.993707 0.099754 0.280651 -0.334103
C34   C     C_3   0.976331 0.915390 0.216196 -0.323726
C35   C     C_3   0.935889 0.965862 0.106304 -0.710309
H1    H     H_    0.876965 0.045089 0.093156 0.233278
H2    H     H_    0.978011 0.057079 0.081128 0.224411
H3    H     H_    0.922213 0.830392 0.061809 0.217721
H4    H     H_    0.033862 0.833804 0.225731 0.204939
H5    H     H_    0.934311 0.818511 0.238698 0.246866
H6    H     H_    0.932966 0.170529 0.263445 0.198955
H7    H     H_    0.032864 0.202568 0.256932 0.193181
C36   C     C_3   0.006306 0.900202 0.719388 -0.333974
C37   C     C_3   0.023548 0.084448 0.783932 -0.323708
C38   C     C_3   0.064465 0.033891 0.893755 -0.710285
H8    H     H_    0.022829 0.941330 0.919101 0.224345
H9    H     H_    0.123665 0.956028 0.906590 0.233452
H10   H     H_    0.077745 0.169267 0.938342 0.217685
H11   H     H_    0.065218 0.182044 0.761203 0.246770
H12   H     H_    0.965902 0.165274 0.774762 0.204839
H13   H     H_    0.967195 0.797150 0.743044 0.193093
H14   H     H_    0.067096 0.829674 0.736586 0.199042
C39   C     C_3   0.506294 0.599740 0.219358 -0.334115
C40   C     C_3   0.523682 0.415362 0.283802 -0.323641
C41   C     C_3   0.564094 0.465826 0.393700 -0.710409
H15   H     H_    0.622997 0.545154 0.406868 0.233286
H16   H     H_    0.521939 0.556947 0.418866 0.224381
H17   H     H_    0.577800 0.330350 0.438187 0.217709
H18   H     H_    0.466160 0.333717 0.274241 0.204937
H19   H     H_    0.565728 0.318540 0.261313 0.246864
H20   H     H_    0.567031 0.670540 0.236570 0.198949
H21   H     H_    0.467130 0.702527 0.243083 0.193173
C42   C     C_3   0.493704 0.400228 0.780631 -0.334069
C43   C     C_3   0.476351 0.584564 0.716157 -0.323696
C44   C     C_3   0.435843 0.534070 0.606279 -0.710547
H22   H     H_    0.477893 0.442657 0.581089 0.224406
H23   H     H_    0.376885 0.455046 0.593178 0.233326
H24   H     H_    0.422226 0.669508 0.561762 0.217722
H25   H     H_    0.434384 0.681554 0.738684 0.246875
H26   H     H_    0.533898 0.666030 0.725638 0.204937
H27   H     H_    0.532857 0.297374 0.756930 0.193172
H28   H     H_    0.432955 0.329491 0.763421 0.198982
C45   C     C_2   0.229728 0.808198 0.564547 0.331889
H29   H     H_    0.271845 0.811561 0.523473 0.058054
O21   O     O_2   0.257885 0.764164 0.652336 -0.538979
C46   C     C_2   0.770301 0.191828 0.435467 0.332032
H30   H     H_    0.728154 0.188239 0.476496 0.057979
O22   O     O_2   0.742177 0.236113 0.347709 -0.539004
C47   C     C_2   0.270276 0.308207 0.935451 0.331826
H31   H     H_    0.228142 0.311723 0.976502 0.058034
O23   O     O_2   0.242137 0.264004 0.847680 -0.538914
C48   C     C_2   0.729707 0.691837 0.064538 0.331970
H32   H     H_    0.771842 0.688355 0.023487 0.058004
O24   O     O_2   0.757843 0.736017 0.152313 -0.538981
C49   C     C_2   0.912863 0.378086 0.393724 0.404216
H33   H     H_    0.856696 0.463340 0.373257 0.122794
O25   O     O_2   0.974015 0.454345 0.385290 -0.547226
C50   C     C_2   0.087204 0.622023 0.606374 0.403956
H34   H     H_    0.143397 0.536903 0.626955 0.122895
O26   O     O_2   0.026054 0.545673 0.614748 -0.547236
C51   C     C_2   0.587156 0.878060 0.106302 0.404111
H35   H     H_    0.643331 0.963293 0.126788 0.122782
O27   O     O_2   0.526003 0.954336 0.114725 -0.547245
C52   C     C_2   0.412824 0.121959 0.893681 0.404148
H36   H     H_    0.356647 0.036736 0.873192 0.122805
O28   O     O_2   0.473977 0.045672 0.885264 -0.547235

loop_
_geom_bond_atom_site_label_1
_geom_bond_atom_site_label_2
_ccdc_geom_bond_type
C2    C11   S    
C16   C23   A    
C31   C32   A    
O1    C5    A    
O3    C7    A    
C33   H7    S    
C42   C43   S    
C50   O26   D    
C45   H29   S    
C14   C25   A    
C39   C40   S    
O7    C3    A    
C26   C30   A    
O20   V4    S    
C49   O25   D    
C18   C29   A    
C18   C22   A    
O4    C8    A    
C48   H32   S    
O3    V1    S    
C37   H12   S    
C51   H35   S    
O17   V1    S    
O8    V4    S    
C38   H9    S    
C18   C50   S    
C52   H36   S    
C14   C21   A    
C19   C51   S    
C40   H18   S    
C1    O15   A    
C2    O16   A    
C37   C38   S    
C51   O27   D    
C42   H27   S    
O2    C6    A    
C8    C14   S    
O19   V1    S    
C44   H23   S    
C13   C22   A    
C37   H11   S    
O11   C7    A    
C15   C28   A    
C39   H20   S    
C35   H1    S    
O12   C8    A    
C17   C49   S    
O13   V1    S    
O11   V3    S    
C50   H34   S    
C45   O21   D    
C43   H26   S    
C34   H5    S    
O4    V2    S    
C35   H2    S    
O18   V2    S    
C28   C32   A    
C36   C37   S    
C27   C42   S    
C41   H16   S    
C40   C41   S    
C3    C10   S    
C9    C10   T    
C7    C13   S    
C24   C47   S    
O6    V2    S    
O5    V1    S    
O20   V2    S    
C38   H10   S    
O5    C1    A    
C5    C15   S    
C20   C52   S    
O8    C4    A    
C23   C48   S    
C6    C16   S    
C42   H28   S    
C46   O22   D    
O9    C5    A    
C47   O23   D    
C44   H24   S    
O14   V2    S    
C22   C45   S    
C39   H21   S    
O19   V3    S    
C36   H13   S    
C28   C39   S    
C47   H31   S    
O1    V3    S    
O2    V4    S    
C34   H4    S    
C43   H25   S    
C3    O13   A    
C35   H3    S    
C25   C36   S    
C26   C33   S    
O7    V3    S    
C33   H6    S    
C21   C46   S    
O10   V2    S    
O6    C2    A    
C41   H17   S    
C29   C30   A    
C16   C27   A    
O17   V3    S    
O18   V4    S    
C4    C9    S    
O10   C6    A    
C34   C35   S    
O15   V3    S    
C49   H33   S    
O12   V4    S    
C13   C26   A    
C20   C31   A    
C33   C34   S    
C48   O24   D    
C25   C29   A    
C46   H30   S    
C27   C31   A    
C38   H8    S    
C52   O28   D    
C17   C30   A    
C41   H15   S    
O16   V4    S    
C40   H19   S    
C19   C32   A    
C43   C44   S    
O9    V1    S    
C4    O14   A    
C11   C12   T    
C17   C21   A    
C36   H14   S    
C44   H22   S    
C19   C23   A    
C20   C24   A    
C1    C12   S    
C15   C24   A    
