data_mof_unit_60010.cif
_audit_creation_date              2013-03-05T16:23:53-0500
_audit_creation_method            fapswitch 2.2
_symmetry_space_group_name_H-M    P1
_symmetry_Int_Tables_number       1
_space_group_crystal_system       triclinic
_cell_length_a                    30.799888
_cell_length_b                    31.868421
_cell_length_c                    21.680152
_cell_angle_alpha                 90.334959
_cell_angle_beta                  135.30894
_cell_angle_gamma                 89.1462
_cell_volume                      14963.8895368

loop_
_atom_site_label
_atom_site_type_symbol
_atom_site_description
_atom_site_fract_x
_atom_site_fract_y
_atom_site_fract_z
_atom_type_partial_charge
O1    O     O_R   0.448310 0.000000 0.356640 -0.632532
O2    O     O_R   0.948310 0.500000 0.356640 -0.632978
O3    O     O_R   0.551720 0.000000 0.460130 -0.621194
O4    O     O_R   0.051720 0.500000 0.460130 -0.621701
C1    C     C_R   0.499659 0.001109 0.379899 0.914346
C2    C     C_R   0.999712 0.501152 0.380026 0.916011
O5    O     O_R   0.448310 0.938390 0.448250 -0.602237
O6    O     O_R   0.448310 0.061610 0.448250 -0.621755
O7    O     O_R   0.948310 0.438390 0.448250 -0.616279
O8    O     O_R   0.948310 0.561610 0.448250 -0.608944
O9    O     O_R   0.551720 0.938410 0.551740 -0.619868
O10   O     O_R   0.551720 0.061590 0.551740 -0.617470
O11   O     O_R   0.051720 0.438410 0.551740 -0.620946
O12   O     O_R   0.051720 0.561590 0.551740 -0.616909
C3    C     C_R   0.500465 0.918817 0.500444 0.903252
C4    C     C_R   0.499593 0.081172 0.499500 0.883105
C5    C     C_R   0.000457 0.418820 0.500387 0.890082
C6    C     C_R   0.999586 0.581167 0.499503 0.908147
Zn1   Zn    Zn3+2 0.430960 0.000000 0.430900 1.009427
Zn2   Zn    Zn3+2 0.930960 0.500000 0.430900 0.999160
Zn3   Zn    Zn3+2 0.569060 0.000000 0.569100 0.969244
Zn4   Zn    Zn3+2 0.069060 0.500000 0.569100 0.972192
O13   O     O_R   0.448310 0.000000 0.539870 -0.564540
O14   O     O_R   0.948310 0.500000 0.539870 -0.584375
O15   O     O_R   0.551720 1.000000 0.643360 -0.632329
O16   O     O_R   0.051720 0.500000 0.643360 -0.630085
C7    C     C_R   0.500372 0.000360 0.620530 0.915215
C8    C     C_R   0.000325 0.499939 0.620279 0.922345
C9    C     C_3   0.478207 0.736171 0.426593 0.394477
C10   C     C_3   0.443798 0.264478 0.424681 0.394703
C11   C     C_3   0.960436 0.236450 0.420727 0.394655
C12   C     C_3   0.942009 0.764406 0.428008 0.395076
C13   C     C_3   0.536292 0.763323 0.489289 0.086566
C14   C     C_3   0.485530 0.235805 0.426715 0.101363
C15   C     C_3   0.015983 0.263526 0.459327 0.086704
C16   C     C_3   0.980071 0.735786 0.422796 0.099440
C17   C     C_1   0.501536 0.874442 0.501714 -0.171898
C18   C     C_1   0.498683 0.125525 0.498082 -0.188911
C19   C     C_1   0.001466 0.374450 0.501416 -0.182478
C20   C     C_1   0.998635 0.625509 0.498152 -0.172351
C21   C     C_1   0.500816 0.625514 0.501355 -0.163054
C22   C     C_1   0.499718 0.374449 0.499034 -0.164460
C23   C     C_1   0.000667 0.125524 0.501117 -0.164835
C24   C     C_1   0.999424 0.874438 0.498759 -0.166967
C25   C     C_3   0.444360 0.764505 0.439607 -0.002388
C26   C     C_3   0.455859 0.236904 0.493814 -0.000549
C27   C     C_3   0.946287 0.264611 0.462760 0.001155
C28   C     C_3   0.959203 0.736810 0.501043 -0.005062
C29   C     C_3   0.502768 0.791616 0.503361 -0.005599
C30   C     C_3   0.498346 0.208310 0.496862 -0.004646
C31   C     C_3   0.002413 0.291634 0.502505 -0.004922
C32   C     C_3   0.998044 0.708284 0.496797 -0.005026
C33   C     C_3   0.469918 0.736783 0.517713 0.395336
C34   C     C_3   0.512078 0.263877 0.566524 0.394673
C35   C     C_3   0.989229 0.236620 0.545405 0.394472
C36   C     C_3   0.016549 0.763831 0.569785 0.394625
C37   C     C_3   0.502887 0.708242 0.503740 0.002765
C38   C     C_3   0.499399 0.291667 0.497377 0.002079
C39   C     C_3   0.002539 0.208260 0.502777 0.003023
C40   C     C_3   0.998800 0.791643 0.496853 0.002949
C41   C     C_3   0.527889 0.763949 0.581696 0.090523
C42   C     C_3   0.554751 0.235238 0.570533 0.090791
C43   C     C_3   0.045186 0.263706 0.585761 0.094402
C44   C     C_3   0.055633 0.735253 0.566540 0.089627
C45   C     C_3   0.561164 0.735372 0.567349 0.111203
C46   C     C_3   0.541765 0.263011 0.500394 0.107895
C47   C     C_3   0.058524 0.235320 0.542416 0.109667
C48   C     C_3   0.037516 0.763034 0.492589 0.104651
C49   C     C_1   0.502306 0.837005 0.502686 0.027891
C50   C     C_1   0.498287 0.162945 0.497211 0.025463
C51   C     C_1   0.002093 0.337016 0.502089 0.023284
C52   C     C_1   0.998142 0.662926 0.497275 0.029862
C53   C     C_1   0.501740 0.662924 0.502493 0.096172
C54   C     C_1   0.499478 0.337018 0.498184 0.093335
C55   C     C_1   0.001477 0.162938 0.501946 0.093853
C56   C     C_1   0.998993 0.837003 0.497746 0.093995
C57   C     C_R   0.483635 0.036244 0.265565 -0.002662
C58   C     C_R   0.982172 0.536041 0.264396 -0.004048
C59   C     C_R   0.499762 0.000540 0.314784 -0.171377
C60   C     C_R   0.000048 0.500673 0.315270 -0.175914
C61   C     C_R   0.526022 0.965965 0.310901 -0.200913
C62   C     C_R   0.027247 0.466402 0.312464 -0.197861
H1    H     H_    0.542593 0.939099 0.353672 0.169866
H2    H     H_    0.044725 0.439847 0.356277 0.171492
C63   C     C_R   0.529755 0.965159 0.250634 0.431878
C64   C     C_R   0.030538 0.465319 0.251803 0.434298
C65   C     C_R   0.506180 0.000180 0.192926 -0.243153
C66   C     C_R   0.005621 0.499872 0.192595 -0.236279
C67   C     C_R   0.486827 0.036147 0.205768 0.006958
C68   C     C_R   0.984008 0.535329 0.203032 0.011033
C69   C     C_3   0.433499 0.066927 0.145370 0.361303
C70   C     C_3   0.926260 0.562147 0.139110 0.357174
C71   C     C_3   0.430551 0.067218 0.214703 0.332795
C72   C     C_3   0.926702 0.565054 0.211649 0.334977
C73   C     C_R   0.460811 0.974914 0.678973 0.086798
C74   C     C_R   0.957630 0.520461 0.677022 0.075477
C75   C     C_R   0.502390 0.999171 0.688474 -0.202353
C76   C     C_R   0.001542 0.498941 0.687023 -0.167421
C77   C     C_R   0.550981 0.018524 0.769111 -0.202842
C78   C     C_R   0.048198 0.476383 0.765441 -0.207265
H3    H     H_    0.586148 0.034992 0.779190 0.169043
H4    H     H_    0.082954 0.458966 0.774586 0.164610
C79   C     C_R   0.552103 0.018826 0.834745 0.179240
C80   C     C_R   0.049050 0.475616 0.831230 0.165129
C81   C     C_R   0.504149 0.998726 0.818277 -0.084679
C82   C     C_R   0.003377 0.499067 0.817970 -0.067160
C83   C     C_R   0.462263 0.974212 0.743742 -0.038504
C84   C     C_R   0.959278 0.521248 0.740548 -0.070582
C85   C     C_3   0.393636 0.971726 0.680524 -0.632711
C86   C     C_3   0.903392 0.548851 0.690879 -0.603597
C87   C     C_3   0.391658 0.973242 0.608198 0.850372
C88   C     C_3   0.901669 0.548350 0.617806 0.843860
H5    H     H_    0.372909 0.999777 0.682577 0.180910
H6    H     H_    0.379309 0.941192 0.685562 0.218769
H7    H     H_    0.914651 0.579859 0.722751 0.219900
H8    H     H_    0.864521 0.532339 0.673918 0.185303
O17   O     O_R   0.408300 0.500000 0.356580 -0.623674
O18   O     O_R   0.908300 0.000000 0.356580 -0.616234
O19   O     O_R   0.408400 0.500000 0.460120 -0.612280
O20   O     O_R   0.908400 0.000000 0.460120 -0.614225
C89   C     C_R   0.380128 0.498759 0.379913 0.902434
C90   C     C_R   0.880014 0.998982 0.379628 0.895342
O21   O     O_R   0.499900 0.561630 0.448170 -0.610544
O22   O     O_R   0.499900 0.438370 0.448170 -0.618210
O23   O     O_R   0.999900 0.061630 0.448170 -0.618967
O24   O     O_R   0.999900 0.938370 0.448170 -0.613322
O25   O     O_R   0.500000 0.561620 0.551710 -0.610479
O26   O     O_R   0.500000 0.438380 0.551710 -0.610863
O27   O     O_R   1.000000 0.061620 0.551710 -0.606780
O28   O     O_R   1.000000 0.938380 0.551710 -0.612248
C91   C     C_R   0.499931 0.581179 0.500089 0.892537
C92   C     C_R   0.500021 0.418810 0.499835 0.877505
C93   C     C_R   0.999923 0.081182 0.500070 0.880501
C94   C     C_R   0.999958 0.918807 0.499776 0.881677
Zn5   Zn    Zn3+2 0.499870 0.500000 0.430790 0.971696
Zn6   Zn    Zn3+2 0.999870 1.000000 0.430790 0.974169
Zn7   Zn    Zn3+2 0.500010 0.500000 0.569060 0.984799
Zn8   Zn    Zn3+2 0.000010 0.000000 0.569060 0.981819
O29   O     O_R   0.591480 0.500000 0.539730 -0.628048
O30   O     O_R   0.091480 1.000000 0.539730 -0.617332
O31   O     O_R   0.591580 0.500000 0.643270 -0.618359
O32   O     O_R   0.091580 0.000000 0.643270 -0.617266
C95   C     C_R   0.619575 0.499146 0.619813 0.916459
C96   C     C_R   0.119881 0.001868 0.620229 0.895190
O33   O     O_R   0.591630 0.965220 0.091680 -0.620550
O34   O     O_R   0.591630 0.034780 0.091680 -0.625076
O35   O     O_R   0.091630 0.465220 0.091680 -0.624172
O36   O     O_R   0.091630 0.534780 0.091680 -0.617741
C97   C     C_R   0.620362 0.999630 0.122899 0.904939
C98   C     C_R   0.120442 0.499738 0.122159 0.899752
O37   O     O_R   0.500040 0.965230 0.091630 -0.618285
O38   O     O_R   0.500040 0.034770 0.091630 -0.621607
O39   O     O_R   0.000040 0.465230 0.091630 -0.614805
O40   O     O_R   0.000040 0.534770 0.091630 -0.624071
C99   C     C_R   0.501646 0.999988 0.122124 0.892841
C100  C     C_R   0.001817 0.499921 0.122353 0.886272
Zn9   Zn    Zn3+2 0.500030 0.953570 0.000010 0.963023
Zn10  Zn    Zn3+2 0.500030 0.046430 0.000010 0.933570
Zn11  Zn    Zn3+2 0.000030 0.453570 0.000010 0.949425
Zn12  Zn    Zn3+2 0.000030 0.546430 0.000010 0.945314
O41   O     O_R   0.408450 0.965250 0.908360 -0.627388
O42   O     O_R   0.408450 0.034750 0.908360 -0.624551
O43   O     O_R   0.908450 0.465250 0.908360 -0.623309
O44   O     O_R   0.908450 0.534750 0.908360 -0.625785
O45   O     O_R   0.500040 0.965230 0.908410 -0.610588
O46   O     O_R   0.500040 0.034770 0.908410 -0.631524
O47   O     O_R   0.000040 0.465230 0.908410 -0.631455
O48   O     O_R   0.000040 0.534770 0.908410 -0.613498
C101  C     C_R   0.379767 0.000293 0.876740 0.908844
C102  C     C_R   0.879426 0.500661 0.881592 0.909307
C103  C     C_R   0.500340 0.999816 0.880131 0.912151
C104  C     C_R   0.000946 0.499796 0.880919 0.913869
C105  C     C_R   0.281497 0.529725 0.256144 0.062366
C106  C     C_R   0.780576 0.019152 0.237698 0.098525
C107  C     C_R   0.314525 0.496522 0.315015 -0.141214
C108  C     C_R   0.814494 0.994381 0.312527 -0.147364
C109  C     C_R   0.284459 0.466763 0.322045 0.155444
C110  C     C_R   0.784361 0.965818 0.321145 0.154009
C111  C     C_R   0.719497 0.969263 0.261671 0.163545
C112  C     C_R   0.219595 0.469800 0.263011 0.156717
C113  C     C_R   0.686600 0.997922 0.190208 -0.152705
C114  C     C_R   0.186664 0.499511 0.193519 -0.164161
C115  C     C_R   0.717502 0.020739 0.177010 0.058500
C116  C     C_R   0.218561 0.530915 0.195784 0.106162
C117  C     C_3   0.715622 0.066952 0.163103 -0.447828
C118  C     C_3   0.211749 0.547932 0.125242 -0.464285
C119  C     C_3   0.281747 0.546388 0.192102 -0.444869
C120  C     C_3   0.785483 0.064915 0.229774 -0.460877
H9    H     H_    0.698260 0.085540 0.185718 0.216480
H10   H     H_    0.693443 0.074741 0.095957 0.208840
H11   H     H_    0.192286 0.580408 0.105643 0.215845
H12   H     H_    0.189107 0.525745 0.070171 0.193215
H13   H     H_    0.302653 0.577973 0.210721 0.212393
H14   H     H_    0.299690 0.523135 0.175946 0.215862
H15   H     H_    0.808768 0.082405 0.291019 0.202745
H16   H     H_    0.803421 0.070909 0.200771 0.215975
C121  C     C_R   0.718136 0.464546 0.715329 -0.044275
C122  C     C_R   0.219616 0.984402 0.764687 -0.000466
C123  C     C_R   0.684710 0.501601 0.686587 -0.114611
C124  C     C_R   0.185518 0.007144 0.687464 -0.137740
C125  C     C_R   0.713590 0.539767 0.729682 0.167248
C126  C     C_R   0.216018 0.034106 0.676855 0.158872
C127  C     C_R   0.281036 0.030354 0.736534 0.167573
C128  C     C_R   0.778704 0.540043 0.801191 0.184737
C129  C     C_R   0.313640 0.001713 0.808163 -0.170306
C130  C     C_R   0.812893 0.502377 0.820439 -0.201194
C131  C     C_R   0.282296 0.980922 0.822886 0.046282
C132  C     C_R   0.781201 0.465043 0.779075 0.094625
C133  C     C_3   0.282443 0.935975 0.844495 0.366465
C134  C     C_3   0.785156 0.431881 0.733066 0.389309
C135  C     C_3   0.714626 0.431364 0.663066 -0.485394
C136  C     C_3   0.212327 0.940768 0.780603 -0.449142
H17   H     H_    0.694626 0.402011 0.661202 0.189865
H18   H     H_    0.691891 0.442934 0.597285 0.204623
H19   H     H_    0.195572 0.940638 0.812167 0.200986
H20   H     H_    0.184822 0.921055 0.720763 0.181164
C137  C     C_3   0.573405 0.778604 0.472018 -0.837910
H21   H     H_    0.591493 0.751268 0.463586 0.256160
H22   H     H_    0.543412 0.798179 0.411558 0.238543
H23   H     H_    0.612601 0.797605 0.528276 0.244609
C138  C     C_3   0.469580 0.219536 0.346582 -0.867983
H24   H     H_    0.462479 0.246364 0.307669 0.256479
H25   H     H_    0.507859 0.199222 0.367730 0.246045
H26   H     H_    0.426667 0.201034 0.305473 0.236700
C139  C     C_3   0.030441 0.279017 0.409407 -0.835227
H27   H     H_    0.037462 0.251783 0.385018 0.255452
H28   H     H_    0.991479 0.298751 0.352978 0.237503
H29   H     H_    0.073037 0.297912 0.453596 0.245672
C140  C     C_3   0.958602 0.719468 0.338769 -0.867322
H30   H     H_    0.948229 0.746283 0.297370 0.257515
H31   H     H_    0.995449 0.699443 0.355036 0.245994
H32   H     H_    0.916386 0.700631 0.302178 0.237378
C141  C     C_3   0.371116 0.049465 0.183253 -0.832700
H33   H     H_    0.364491 0.016080 0.163570 0.232709
H34   H     H_    0.372611 0.051480 0.235823 0.259551
H35   H     H_    0.330431 0.068292 0.126938 0.232280
C142  C     C_3   0.449687 0.108084 0.266860 -0.894568
H36   H     H_    0.451930 0.103164 0.319747 0.239756
H37   H     H_    0.496042 0.118498 0.298922 0.231441
H38   H     H_    0.415228 0.133394 0.222713 0.247381
C143  C     C_3   0.869775 0.546986 0.187164 -0.823539
H39   H     H_    0.872017 0.552943 0.239849 0.258354
H40   H     H_    0.827085 0.562748 0.126988 0.231652
H41   H     H_    0.866104 0.512599 0.176306 0.234681
C144  C     C_3   0.944546 0.607730 0.258066 -0.897221
H42   H     H_    0.989101 0.619084 0.284745 0.231695
H43   H     H_    0.907789 0.631547 0.211786 0.249577
H44   H     H_    0.950141 0.604796 0.314449 0.236996
C145  C     C_3   0.603577 0.040664 0.920111 -0.897478
H45   H     H_    0.626542 0.018436 0.975546 0.236901
H46   H     H_    0.639052 0.052223 0.923456 0.233798
H47   H     H_    0.584933 0.068034 0.927523 0.254606
C146  C     C_3   0.098572 0.450519 0.913886 -0.872174
H48   H     H_    0.122879 0.470712 0.972110 0.223194
H49   H     H_    0.077577 0.423868 0.917344 0.258019
H50   H     H_    0.133333 0.437494 0.916136 0.233831
O49   O     O_3   0.362259 0.009297 0.554208 -0.749992
H51   H     H_    0.380480 0.034405 0.592460 0.308948
O50   O     O_3   0.370672 0.936131 0.559727 -0.742999
H52   H     H_    0.325617 0.935414 0.522340 0.343741
O51   O     O_3   0.914277 0.587212 0.603809 -0.752158
H53   H     H_    0.877361 0.605265 0.574399 0.343203
O52   O     O_3   0.849610 0.529139 0.539124 -0.749387
H54   H     H_    0.844791 0.501253 0.553763 0.309709
C147  C     C_3   0.319974 0.430385 0.386549 -0.825666
H55   H     H_    0.366425 0.425584 0.412958 0.233421
H56   H     H_    0.325203 0.435772 0.442175 0.243937
H57   H     H_    0.295210 0.400610 0.353314 0.246015
C148  C     C_3   0.820403 0.932114 0.391784 -0.821450
H58   H     H_    0.866801 0.926235 0.418521 0.236997
H59   H     H_    0.825617 0.941227 0.446250 0.243459
H60   H     H_    0.796188 0.901723 0.363924 0.245824
C149  C     C_3   0.685921 0.946213 0.278193 -0.857385
H61   H     H_    0.656724 0.969166 0.274555 0.210235
H62   H     H_    0.657006 0.921192 0.228826 0.259019
H63   H     H_    0.716985 0.931593 0.344104 0.249500
C150  C     C_3   0.185875 0.443453 0.275423 -0.845908
H64   H     H_    0.155567 0.464658 0.272379 0.214172
H65   H     H_    0.158363 0.419072 0.224037 0.258683
H66   H     H_    0.216849 0.427637 0.340206 0.247829
C151  C     C_3   0.674083 0.579541 0.695348 -0.893284
H67   H     H_    0.641442 0.581516 0.622972 0.230812
H68   H     H_    0.647277 0.578965 0.711890 0.248420
H69   H     H_    0.700572 0.608931 0.720594 0.245251
C152  C     C_3   0.180343 0.066223 0.603106 -0.850296
H70   H     H_    0.133298 0.072384 0.573956 0.235942
H71   H     H_    0.203833 0.096917 0.628340 0.235102
H72   H     H_    0.176842 0.055360 0.550982 0.249211
O53   O     O_3   0.452550 0.720714 0.346067 -0.738730
H73   H     H_    0.440943 0.745873 0.310049 0.340523
O54   O     O_3   0.386205 0.280711 0.348752 -0.743216
H74   H     H_    0.360140 0.255908 0.314911 0.338965
O55   O     O_3   0.916512 0.221261 0.334945 -0.742255
H75   H     H_    0.896809 0.246538 0.296714 0.339765
O56   O     O_3   0.883012 0.780589 0.355863 -0.741645
H76   H     H_    0.856461 0.755761 0.323874 0.339807
C153  C     C_3   0.313645 0.055002 0.719787 -0.870951
H77   H     H_    0.314541 0.088711 0.733754 0.246317
H78   H     H_    0.361626 0.044045 0.759776 0.235403
H79   H     H_    0.289223 0.051478 0.650423 0.239557
C154  C     C_3   0.808594 0.580447 0.852678 -0.863145
H80   H     H_    0.854596 0.576382 0.919536 0.254549
H81   H     H_    0.811315 0.602727 0.816386 0.243994
H82   H     H_    0.781461 0.594920 0.863514 0.232792
C155  C     C_3   0.316634 0.930064 0.940443 -0.846301
H83   H     H_    0.301226 0.953880 0.959470 0.220222
H84   H     H_    0.307608 0.898357 0.949956 0.245535
H85   H     H_    0.367121 0.933330 0.984374 0.255548
C156  C     C_3   0.300614 0.903089 0.813549 -0.821039
H86   H     H_    0.351447 0.899429 0.861472 0.260132
H87   H     H_    0.281768 0.872115 0.807334 0.230331
H88   H     H_    0.281895 0.911918 0.748695 0.223918
C157  C     C_3   0.814757 0.390419 0.784680 -0.820370
H89   H     H_    0.797167 0.381594 0.813155 0.224620
H90   H     H_    0.803763 0.364922 0.740393 0.229601
H91   H     H_    0.865679 0.393071 0.838795 0.254446
C158  C     C_3   0.811183 0.447352 0.697580 -0.873595
H92   H     H_    0.862080 0.450375 0.751532 0.249054
H93   H     H_    0.800281 0.424561 0.649338 0.240902
H94   H     H_    0.790780 0.478390 0.664569 0.223237
C159  C     C_3   0.626915 0.718351 0.639270 -0.867124
H95   H     H_    0.659498 0.744831 0.674812 0.250110
H96   H     H_    0.631312 0.699093 0.686011 0.243294
H97   H     H_    0.638251 0.698583 0.609834 0.244232
C160  C     C_3   0.590196 0.278161 0.504151 -0.862972
H98   H     H_    0.613681 0.250758 0.505832 0.249166
H99   H     H_    0.567702 0.297655 0.445362 0.244888
H100  H     H_    0.624781 0.297203 0.564006 0.240327
C161  C     C_3   0.121745 0.218298 0.587289 -0.864124
H101  H     H_    0.152961 0.244781 0.609339 0.250116
H102  H     H_    0.141413 0.198886 0.644890 0.242632
H103  H     H_    0.117313 0.198704 0.540610 0.244213
C162  C     C_3   0.081659 0.778210 0.487827 -0.855469
H104  H     H_    0.103101 0.750819 0.485459 0.248969
H105  H     H_    0.055980 0.797708 0.427965 0.245701
H106  H     H_    0.118321 0.797247 0.546554 0.241477
C163  C     C_3   0.555445 0.779946 0.669550 -0.840598
H107  H     H_    0.568863 0.752960 0.712576 0.254072
H108  H     H_    0.596866 0.798784 0.701287 0.244512
H109  H     H_    0.520882 0.799859 0.659339 0.241135
C164  C     C_3   0.617671 0.218470 0.654078 -0.849306
H110  H     H_    0.648764 0.245076 0.695082 0.253873
H111  H     H_    0.612656 0.199424 0.691355 0.235629
H112  H     H_    0.637820 0.198580 0.637140 0.245553
C165  C     C_3   0.092862 0.279401 0.679679 -0.853992
H113  H     H_    0.116136 0.252268 0.725676 0.255083
H114  H     H_    0.127716 0.298244 0.690336 0.245251
H115  H     H_    0.069781 0.299235 0.692017 0.234532
C166  C     C_3   0.120135 0.718536 0.646006 -0.843617
H116  H     H_    0.151884 0.745168 0.684848 0.252670
H117  H     H_    0.118975 0.699461 0.687465 0.239530
H118  H     H_    0.136931 0.698685 0.624046 0.245184
O57   O     O_3   0.435578 0.721971 0.532754 -0.738082
H119  H     H_    0.420126 0.747415 0.539053 0.341893
O58   O     O_3   0.526100 0.279463 0.639371 -0.738869
H120  H     H_    0.531710 0.254375 0.671369 0.338467
O59   O     O_3   0.975509 0.221620 0.590375 -0.739563
H121  H     H_    0.969182 0.246982 0.610034 0.338137
O60   O     O_3   0.035721 0.779401 0.646336 -0.739785
H122  H     H_    0.043724 0.754304 0.680165 0.340994
C167  C     C_3   0.378283 0.780774 0.367342 -0.825814
H123  H     H_    0.346357 0.753921 0.332531 0.264098
H124  H     H_    0.366513 0.800450 0.396311 0.243888
H125  H     H_    0.373439 0.799931 0.320099 0.238274
C168  C     C_3   0.407281 0.222301 0.490072 -0.835281
H126  H     H_    0.384154 0.249954 0.488446 0.265935
H127  H     H_    0.372460 0.203336 0.430193 0.239652
H128  H     H_    0.429543 0.202855 0.548823 0.236836
C169  C     C_3   0.882795 0.280978 0.417691 -0.837929
H129  H     H_    0.852114 0.254172 0.395978 0.264751
H130  H     H_    0.886851 0.300476 0.464126 0.237386
H131  H     H_    0.862778 0.300337 0.359859 0.239753
C170  C     C_3   0.914959 0.722073 0.505851 -0.816360
H132  H     H_    0.893803 0.749663 0.508261 0.262554
H133  H     H_    0.878108 0.703104 0.447132 0.241050
H134  H     H_    0.940455 0.702586 0.565682 0.246582
O61   O     O_3   0.554339 0.929208 0.248973 -0.752133
H135  H     H_    0.574424 0.936619 0.230165 0.344727
O62   O     O_3   0.055703 0.429369 0.251200 -0.754155
H136  H     H_    0.073116 0.436043 0.228222 0.346042
C171  C     C_3   0.377384 0.047921 0.055066 -0.878989
H137  H     H_    0.335560 0.067715 0.021073 0.241959
H138  H     H_    0.385315 0.046608 0.012565 0.256161
H139  H     H_    0.368521 0.015422 0.061550 0.222775
C172  C     C_3   0.453293 0.108335 0.135150 -0.836525
H140  H     H_    0.499754 0.118037 0.197768 0.223321
H141  H     H_    0.455311 0.104949 0.086265 0.255734
H142  H     H_    0.419160 0.133625 0.111664 0.233288
C173  C     C_3   0.872414 0.537317 0.056159 -0.885784
H143  H     H_    0.865897 0.506738 0.072672 0.233622
H144  H     H_    0.828837 0.556035 0.014788 0.247150
H145  H     H_    0.882245 0.529669 0.017257 0.236713
C174  C     C_3   0.937493 0.603480 0.115854 -0.844411
H146  H     H_    0.937995 0.598132 0.065833 0.252852
H147  H     H_    0.899831 0.626427 0.088374 0.232708
H148  H     H_    0.982543 0.617332 0.173788 0.228297

loop_
_geom_bond_atom_site_label_1
_geom_bond_atom_site_label_2
_geom_bond_distance
_ccdc_geom_bond_type
C77   C79   1.398594 A    
O59   H121  0.991084 S    
C17   C49   1.192958 T    
C153  H78   1.106357 S    
O54   H74   0.991090 S    
Zn6   O30   2.016044 S    
C43   C165  1.520270 S    
C163  H107  1.109599 S    
C117  H10   1.110266 S    
C107  C109  1.417292 A    
C154  H80   1.096359 S    
C151  H69   1.106478 S    
Zn5   O29   2.016044 S    
C127  C129  1.423061 A    
C57   C67   1.368024 A    
C35   C39   1.535207 S    
C101  C129  1.432940 S    
C64   C66   1.428256 A    
C34   O58   1.398201 S    
C154  H82   1.110249 S    
C9    C13   1.540055 S    
C78   C80   1.408121 A    
C139  H29   1.109664 S    
O36   Zn12  2.013070 S    
C11   C39   1.535305 S    
C23   C93   1.413434 S    
C6    C20   1.413016 S    
C126  C152  1.516271 S    
C75   C77   1.404053 A    
O9    C3    1.282130 A    
O10   C4    1.281732 A    
O8    Zn2   2.004714 S    
C28   C170  1.519858 S    
O37   C99   1.270058 A    
C169  H131  1.109672 S    
C105  C107  1.386070 A    
C74   C84   1.341746 A    
O24   Zn6   2.001897 S    
O6    C4    1.282201 A    
C29   C49   1.446381 S    
C144  H42   1.110145 S    
C119  H13   1.111636 S    
C125  C128  1.416091 A    
O28   C94   1.283188 A    
C31   C51   1.446167 S    
C112  C114  1.417920 A    
C113  C115  1.388101 A    
C23   C55   1.192728 T    
C167  H125  1.109669 S    
C14   C30   1.545364 S    
C126  C127  1.417499 A    
O52   H54   0.993324 S    
O35   C98   1.273203 A    
C170  H134  1.109735 S    
C21   C91   1.413314 S    
C42   C46   1.547918 S    
C162  H104  1.109625 S    
C40   C56   1.445622 S    
C9    C25   1.539117 S    
C158  H94   1.111670 S    
Zn1   O13   2.017898 S    
C140  H30   1.109511 S    
C121  C135  1.492973 S    
C109  C147  1.517365 S    
O33   Zn9   2.024260 S    
C2    C60   1.411301 S    
O58   H120  0.991093 S    
C96   C124  1.434366 S    
C73   C75   1.390181 A    
O39   C100  1.268970 A    
O27   C93   1.283115 A    
C77   H3    1.084175 S    
C62   H2    1.084885 S    
C148  H59   1.110074 S    
C15   C31   1.545534 S    
C173  H143  1.109148 S    
O32   C96   1.278211 A    
C168  H128  1.109673 S    
O20   Zn8   2.016043 S    
O28   Zn8   1.997236 S    
C86   H8    1.111763 S    
C163  H109  1.109694 S    
O18   Zn6   2.022670 S    
C59   C61   1.394441 A    
C162  H106  1.109705 S    
C7    C75   1.430220 S    
C81   C103  1.426973 S    
O22   Zn5   2.001897 S    
C15   C139  1.520335 S    
C82   C104  1.418989 S    
C117  C120  1.515990 S    
C16   C48   1.548534 S    
C58   C72   1.506297 S    
C13   C137  1.520274 S    
C174  H146  1.107661 S    
C45   C159  1.521234 S    
O31   C95   1.274937 A    
C30   C50   1.445800 S    
C152  H71   1.109785 S    
C168  H126  1.109608 S    
C89   C107  1.424214 S    
O42   C101  1.270908 A    
O8    C6    1.281976 A    
C90   C108  1.429137 S    
Zn11  O47   2.022717 S    
Zn12  O48   2.018445 S    
C72   C144  1.544132 S    
O25   C91   1.282865 A    
C41   C45   1.548731 S    
C28   C32   1.545720 S    
O24   C94   1.282861 A    
C124  C126  1.416755 A    
C159  H95   1.109574 S    
C144  H44   1.110877 S    
O60   H122  0.991094 S    
C19   C51   1.192838 T    
C121  C132  1.366385 A    
C122  C124  1.386628 A    
C33   O57   1.398183 S    
C118  C119  1.518538 S    
C172  H141  1.109455 S    
O45   C103  1.267705 A    
C166  H116  1.109625 S    
O44   C102  1.264927 A    
C14   C46   1.548551 S    
C110  C111  1.413651 A    
C81   C83   1.391780 A    
C145  H45   1.110347 S    
C138  H24   1.109513 S    
C22   C54   1.192953 T    
C44   C48   1.547771 S    
C128  C154  1.519487 S    
O36   C98   1.271451 A    
C140  H32   1.109718 S    
C85   C87   1.526350 S    
C134  C158  1.539698 S    
C5    C19   1.413832 S    
O51   H53   0.992145 S    
C58   C60   1.386603 A    
C157  H90   1.110673 S    
C111  C149  1.513164 S    
C118  H11   1.111536 S    
O22   C92   1.282708 A    
C121  C123  1.379470 A    
C143  H39   1.109575 S    
O18   C90   1.276612 A    
Zn9   O41   2.012803 S    
C37   C53   1.444793 S    
C27   C169  1.519783 S    
O43   C102  1.284282 A    
C3    C17   1.414033 S    
C39   C47   1.544108 S    
O29   C95   1.275802 A    
C105  C116  1.364954 A    
C71   C142  1.542779 S    
C155  H84   1.110485 S    
C74   C76   1.379756 A    
C127  C153  1.517517 S    
C173  H145  1.104965 S    
C36   C44   1.539650 S    
C67   C69   1.511151 S    
C122  C136  1.492715 S    
C141  H33   1.110434 S    
C16   C32   1.545242 S    
C110  C148  1.515859 S    
O41   C101  1.271243 A    
C109  C112  1.413796 A    
C108  C110  1.413705 A    
C25   C33   1.539192 S    
C142  H36   1.110489 S    
C161  H102  1.109709 S    
C61   H1    1.084763 S    
C139  H27   1.109595 S    
C164  H111  1.109676 S    
C24   C94   1.414165 S    
C174  H148  1.109769 S    
C12   O56   1.398144 S    
O6    Zn1   2.004714 S    
C10   C14   1.540716 S    
C79   C145  1.506335 S    
C60   C62   1.393825 A    
C26   C168  1.519691 S    
Zn9   O45   2.022717 S    
C64   O62   1.378852 S    
C137  H21   1.109601 S    
C173  H144  1.110181 S    
O9    Zn3   2.004045 S    
C80   C146  1.507159 S    
O21   Zn5   1.997594 S    
O55   H75   0.991086 S    
O4    Zn4   2.018071 S    
C70   C173  1.546805 S    
C136  H19   1.112107 S    
C15   C47   1.548440 S    
C159  H97   1.109742 S    
O53   H73   0.991096 S    
C79   C81   1.412453 A    
C147  H56   1.109993 S    
C85   H6    1.111786 S    
C10   O54   1.398171 S    
C44   C166  1.520371 S    
C166  H118  1.109662 S    
C46   C160  1.520892 S    
C38   C54   1.445286 S    
C171  H138  1.108915 S    
Zn3   O15   2.024791 S    
C142  H38   1.110102 S    
C105  C119  1.494585 S    
C145  H47   1.109500 S    
C20   C52   1.192373 T    
C122  C131  1.364988 A    
C10   C26   1.539696 S    
O14   C8    1.278546 A    
C146  H50   1.110711 S    
C12   C16   1.540840 S    
C63   O61   1.378292 S    
O34   Zn10  2.013070 S    
C151  H68   1.110029 S    
O11   C5    1.282214 A    
C143  H41   1.109928 S    
O12   Zn4   1.992731 S    
C150  H65   1.109121 S    
C133  C155  1.534805 S    
C82   C84   1.380462 A    
C70   C174  1.542200 S    
O5    C3    1.282136 A    
C149  H62   1.109236 S    
C84   C86   1.492214 S    
C65   C99   1.439051 S    
C141  H35   1.109859 S    
C114  C116  1.388986 A    
C21   C53   1.192644 T    
C135  H18   1.112982 S    
C150  H66   1.107097 S    
C131  C133  1.508587 S    
C61   C63   1.390728 A    
C169  H130  1.109673 S    
C18   C50   1.192552 T    
C83   C85   1.495746 S    
C80   C82   1.419948 A    
O57   H119  0.991087 S    
O62   H136  0.982641 S    
C98   C114  1.437638 S    
C58   C68   1.371204 A    
C137  H23   1.109652 S    
C167  H124  1.109676 S    
O1    C1    1.274481 A    
O37   Zn9   2.018442 S    
C72   C143  1.546181 S    
C102  C130  1.447290 S    
C138  H26   1.109574 S    
C170  H133  1.109672 S    
C130  C132  1.396457 A    
C156  H88   1.111638 S    
C13   C29   1.545653 S    
C133  C136  1.531397 S    
C161  H101  1.109587 S    
C48   C162  1.520783 S    
C158  H93   1.110500 S    
C120  H15   1.112372 S    
C16   C140  1.520806 S    
C165  H114  1.109642 S    
C35   O59   1.398171 S    
O40   C100  1.278687 A    
C14   C138  1.520518 S    
C88   O51   1.401067 S    
C162  H105  1.109651 S    
C11   C27   1.539208 S    
C148  H58   1.108502 S    
C97   C113  1.435007 S    
C12   C28   1.539877 S    
C87   O50   1.401186 S    
C163  H108  1.109652 S    
C154  H81   1.110103 S    
O38   Zn10  2.022711 S    
O1    Zn1   2.025041 S    
C29   C41   1.545706 S    
O2    Zn2   2.025041 S    
C31   C43   1.545527 S    
O4    C2    1.275511 A    
Zn8   O32   2.022669 S    
C143  H40   1.110059 S    
O56   H76   0.991090 S    
C33   C37   1.535182 S    
C27   C31   1.546057 S    
C34   C42   1.539709 S    
C71   C141  1.545227 S    
C62   C64   1.389231 A    
C36   C40   1.535420 S    
C152  H70   1.108350 S    
C69   C71   1.568980 S    
O34   C97   1.274255 A    
C174  H147  1.110191 S    
O7    Zn2   1.993395 S    
C149  H63   1.106816 S    
O38   C99   1.276177 A    
C25   C29   1.546018 S    
C26   C34   1.539359 S    
C57   C59   1.387004 A    
C117  H9    1.112302 S    
C73   C83   1.373057 A    
O23   Zn6   1.997594 S    
C66   C68   1.399959 A    
C76   C78   1.407868 A    
C144  H43   1.110268 S    
C119  H14   1.112293 S    
C32   C44   1.545336 S    
C11   C15   1.540035 S    
C137  H22   1.109694 S    
C12   C40   1.535847 S    
C66   C100  1.441919 S    
C9    O53   1.398197 S    
Zn10  O46   2.018445 S    
C172  H140  1.110165 S    
C8    C76   1.421143 S    
Zn7   O31   2.022669 S    
O21   C91   1.282729 A    
O16   C8    1.276708 A    
O30   C96   1.282313 A    
C37   C45   1.543998 S    
C112  C150  1.510633 S    
O3    C1    1.277250 A    
C106  C115  1.367959 A    
O47   C104  1.265571 A    
C168  H127  1.109667 S    
C140  H31   1.109733 S    
C157  H89   1.111671 S    
C146  H48   1.108697 S    
C57   C71   1.504886 S    
C116  C118  1.492342 S    
O11   Zn4   2.004045 S    
C160  H98   1.109616 S    
C106  C108  1.388214 A    
C88   O52   1.408469 S    
C25   C167  1.519810 S    
O48   C104  1.270126 A    
C40   C48   1.544356 S    
C155  H83   1.111482 S    
Zn4   O16   2.024791 S    
C148  H60   1.110536 S    
C123  C125  1.407422 A    
C22   C92   1.413818 S    
C86   H7    1.111660 S    
C87   O49   1.409957 S    
O33   C97   1.269794 A    
C11   O55   1.398206 S    
C153  H77   1.109785 S    
O12   C6    1.281792 A    
C133  C156  1.539449 S    
O35   Zn11  2.024260 S    
C13   C45   1.548668 S    
C156  H86   1.107914 S    
C74   C88   1.493436 S    
C32   C52   1.445525 S    
O49   H51   0.993404 S    
C152  H72   1.109870 S    
C115  C117  1.496995 S    
Zn12  O44   2.024021 S    
C160  H99   1.109649 S    
O17   C89   1.278948 A    
C69   C171  1.547014 S    
C139  H28   1.109683 S    
C68   C70   1.509441 S    
C38   C46   1.544257 S    
O27   Zn8   2.001543 S    
Zn2   O14   2.017898 S    
C36   O60   1.398210 S    
C159  H96   1.109757 S    
C69   C172  1.543250 S    
O13   C7    1.281715 A    
C147  H55   1.108105 S    
C85   H5    1.109736 S    
C172  H142  1.110184 S    
C106  C120  1.491869 S    
O46   C103  1.271457 A    
C166  H117  1.109673 S    
C41   C163  1.520253 S    
O2    C2    1.274776 A    
C33   C41   1.540199 S    
O26   C92   1.283205 A    
C70   C72   1.565208 S    
C42   C164  1.520374 S    
O20   C90   1.281266 A    
C86   C88   1.546959 S    
C63   C65   1.427807 A    
C43   C47   1.548566 S    
C145  H46   1.110753 S    
O19   Zn7   2.016043 S    
C136  H20   1.113145 S    
C125  C151  1.522697 S    
C146  H49   1.109590 S    
C157  H91   1.109050 S    
C153  H79   1.110008 S    
C151  H67   1.110473 S    
O10   Zn3   1.992731 S    
C35   C43   1.540263 S    
C165  H115  1.109699 S    
O39   Zn11  2.018442 S    
C160  H100  1.109770 S    
O26   Zn7   1.997236 S    
O40   Zn12  2.022711 S    
C171  H139  1.109793 S    
C155  H85   1.110801 S    
C78   H4    1.084066 S    
C149  H61   1.109135 S    
C141  H34   1.108981 S    
O61   H135  0.984316 S    
O19   C89   1.277063 A    
O7    C5    1.281957 A    
C135  H17   1.112427 S    
C128  C130  1.437798 A    
C142  H37   1.109988 S    
C30   C42   1.545547 S    
C161  H103  1.109717 S    
Zn11  O43   2.012803 S    
O3    Zn3   2.018071 S    
C1    C59   1.413996 S    
O50   H52   0.992312 S    
C39   C55   1.444893 S    
C27   C35   1.539307 S    
C169  H129  1.109601 S    
C34   C38   1.535277 S    
C164  H112  1.109660 S    
O23   C93   1.282582 A    
C28   C36   1.539453 S    
C9    C37   1.535267 S    
C47   C161  1.521042 S    
O15   C7    1.277828 A    
C95   C123  1.414399 S    
C167  H123  1.109602 S    
C26   C30   1.545753 S    
O5    Zn1   1.993395 S    
C65   C67   1.399482 A    
C138  H25   1.109707 S    
C73   C87   1.499813 S    
C170  H132  1.109591 S    
C171  H137  1.109884 S    
C156  H87   1.110735 S    
C10   C38   1.535631 S    
C118  H12   1.110305 S    
C158  H92   1.109502 S    
C147  H57   1.110613 S    
Zn10  O42   2.024021 S    
C134  C157  1.536269 S    
C120  H16   1.111589 S    
C132  C134  1.511055 S    
C134  C135  1.528315 S    
C164  H110  1.109618 S    
O25   Zn7   2.001543 S    
C24   C56   1.193156 T    
C165  H113  1.109604 S    
C150  H64   1.107516 S    
C129  C131  1.390162 A    
C4    C18   1.413369 S    
C111  C113  1.420635 A    
O17   Zn5   2.022670 S    
