data_mof_unit_38580.cif
_audit_creation_date              2012-10-26T20:05:58-0400
_audit_creation_method            fapswitch 2.2
_symmetry_space_group_name_H-M    P1
_symmetry_Int_Tables_number       1
_space_group_crystal_system       triclinic
_cell_length_a                    9.633442
_cell_length_b                    10.831396
_cell_length_c                    13.435278
_cell_angle_alpha                 91.306014
_cell_angle_beta                  74.363945
_cell_angle_gamma                 90.184477
_cell_volume                      1349.64931823

loop_
_atom_site_label
_atom_site_type_symbol
_atom_type_description
_atom_site_fract_x
_atom_site_fract_y
_atom_site_fract_z
_atom_type_partial_charge
C1    C     C_R   0.501170 0.737617 0.498320 0.577804
C2    C     C_R   0.374508 0.543265 0.813346 -0.044784
C3    C     C_R   0.635597 0.936774 0.469115 0.255252
C4    C     C_R   0.422772 0.511952 0.699699 0.538162
C5    C     C_R   0.632483 0.065552 0.470936 -0.115299
C6    C     C_R   0.500836 0.128825 0.497438 -0.003797
C7    C     C_R   0.370846 0.063950 0.521505 -0.132628
C8    C     C_R   0.372291 0.936319 0.520871 -0.173137
C9    C     C_R   0.503673 0.871945 0.495748 0.066237
C10   C     C_R   0.907788 0.592355 0.547285 0.102911
C11   C     C_R   0.052919 0.591184 0.551217 0.361574
C12   C     C_R   0.431235 0.562203 0.979664 -0.025810
C13   C     C_R   0.093188 0.411524 0.445672 0.070030
C14   C     C_R   0.944298 0.409951 0.448472 0.007265
C15   C     C_R   0.500010 0.262590 0.499403 0.560483
C16   C     C_R   0.575930 0.496228 0.300467 0.545589
C17   C     C_R   0.787863 0.492469 0.018983 -0.104111
C18   C     C_R   0.614732 0.496754 0.186768 -0.010949
C19   C     C_R   0.225808 0.547827 0.867514 -0.031946
C20   C     C_R   0.184455 0.585877 0.972537 0.229842
C21   C     C_R   0.284569 0.580299 0.029826 -0.047954
C22   C     C_1   0.869382 0.427844 0.165862 0.277187
C23   C     C_R   0.474957 0.569445 0.870794 -0.008562
C24   C     C_1   0.186185 0.321286 0.380528 0.245116
C25   C     C_1   0.117142 0.501976 0.820190 0.194195
C26   C     C_1   0.636874 0.710625 0.755150 0.200730
C27   C     C_R   0.538057 0.542047 0.032205 0.024723
C28   C     C_R   0.683758 0.536936 0.974154 0.021333
C29   C     C_R   0.722594 0.584015 0.874341 -0.113068
C30   C     C_R   0.615880 0.609327 0.825520 0.014512
C31   C     C_R   0.505604 0.523159 0.138837 -0.125682
C32   C     C_R   0.755675 0.473025 0.124754 0.002376
Cu1   Cu    Cu3+1 0.359340 0.499980 0.500000 0.998519
Cu2   Cu    Cu3+1 0.640660 0.500020 0.500000 1.012943
H1    H     H_    0.733067 0.116162 0.450583 0.116505
H2    H     H_    0.171399 0.656578 0.634070 0.370053
H3    H     H_    0.006475 0.663077 0.967772 0.322034
H4    H     H_    0.846064 0.933354 0.424748 0.325345
H5    H     H_    0.268039 0.111715 0.542153 0.157782
H6    H     H_    0.270179 0.888196 0.541316 0.184298
H7    H     H_    0.840052 0.668141 0.582828 0.179026
H8    H     H_    0.903359 0.337870 0.407027 0.137115
H9    H     H_    0.832386 0.611591 0.839081 0.142266
H10   H     H_    0.894210 0.471605 0.971693 0.161190
H11   H     H_    0.395921 0.529868 0.185926 0.138565
H12   H     H_    0.246248 0.598232 0.112028 0.150720
N1    N     N_R   0.147940 0.499970 0.499970 -0.246266
N2    N     N_R   0.852060 0.500060 0.499990 -0.275362
N3    N     N_1   0.961308 0.391602 0.197880 -0.295521
N4    N     N_1   0.260219 0.248625 0.327486 -0.287263
N5    N     N_1   0.033840 0.461902 0.780244 -0.311380
N6    N     N_1   0.650608 0.794463 0.701496 -0.281314
O1    O     O_R   0.381250 0.680340 0.500010 -0.524354
O2    O     O_3   0.048972 0.630186 0.021319 -0.699819
O3    O     O_3   0.765323 0.873528 0.440299 -0.662625
O4    O     O_R   0.618820 0.680370 0.500010 -0.438228
O5    O     O_R   0.323240 0.499950 0.650980 -0.512946
O6    O     O_R   0.560810 0.499980 0.650980 -0.496460
O7    O     O_R   0.381180 0.319630 0.499990 -0.495293
O8    O     O_R   0.618750 0.319660 0.499990 -0.516845
O9    O     O_R   0.439190 0.500020 0.349020 -0.505802
O10   O     O_R   0.676760 0.500050 0.349020 -0.484258
O11   O     O_3   0.093586 0.686394 0.606421 -0.720219

loop_
_geom_bond_atom_site_label_1
_geom_bond_atom_site_label_2
_ccdc_geom_bond_type
C4    O5    A    
C2    C4    S    
C31   H11   S    
C25   N5    T    
C20   O2    S    
Cu2   O4    S    
C6    C7    A    
C3    C9    A    
C26   N6    T    
H2    O11   S    
C15   O8    A    
C11   N1    A    
C19   C20   A    
C14   H8    S    
C20   C21   A    
Cu1   Cu2   S    
C6    C15   S    
C17   H10   S    
C1    C9    S    
C7    C8    A    
Cu1   O7    S    
C13   C14   A    
C29   H9    S    
C10   H7    S    
Cu2   O8    S    
C12   C23   A    
C29   C30   A    
C22   C32   S    
C22   N3    T    
C19   C25   S    
H3    O2    S    
C5    H1    S    
C7    H5    S    
C16   C18   S    
C28   C29   A    
C1    O4    A    
Cu1   O5    S    
C3    O3    S    
C26   C30   S    
C10   N2    A    
C11   O11   S    
C24   N4    T    
C5    C6    A    
Cu1   N1    S    
C15   O7    A    
C18   C32   A    
C16   O9    A    
C12   C27   A    
C27   C31   A    
C23   C30   A    
Cu2   O10   S    
Cu2   N2    S    
Cu1   O1    S    
Cu1   O9    S    
C21   H12   S    
C10   C11   A    
C4    O6    A    
C2    C23   A    
Cu2   O6    S    
C17   C32   A    
C1    O1    A    
C14   N2    A    
C18   C31   A    
C8    H6    S    
C3    C5    A    
C2    C19   A    
C17   C28   A    
C13   N1    A    
C12   C21   A    
C16   O10   A    
H4    O3    S    
C13   C24   S    
C8    C9    A    
C27   C28   A    
