data_mof_unit_45630.cif
_audit_creation_date              2012-12-11T15:52:18-0500
_audit_creation_method            fapswitch 2.2
_symmetry_space_group_name_H-M    P1
_symmetry_Int_Tables_number       1
_space_group_crystal_system       triclinic
_cell_length_a                    8.363356
_cell_length_b                    18.992001
_cell_length_c                    18.939683
_cell_angle_alpha                 97.315125
_cell_angle_beta                  94.4186
_cell_angle_gamma                 91.679803
_cell_volume                      2972.63713036

loop_
_atom_site_label
_atom_site_type_symbol
_atom_type_description
_atom_site_fract_x
_atom_site_fract_y
_atom_site_fract_z
_atom_type_partial_charge
Ba1   Ba    Ba6+2 0.152000 0.534910 0.469330 1.691915
Ba2   Ba    Ba6+2 0.658180 0.465080 0.530610 1.682322
C1    C     C_3   0.394463 0.799402 0.238298 -0.028186
C2    C     C_R   0.979601 0.273942 0.479202 0.035507
C3    C     C_R   0.130917 0.187090 0.569684 -0.142162
C4    C     C_3   0.908123 0.731928 0.332201 0.413944
C5    C     C_R   0.192765 0.256154 0.567461 -0.028182
C6    C     C_R   0.650839 0.815698 0.445504 -0.161906
C7    C     C_R   0.585890 0.748867 0.453027 0.003770
C8    C     C_R   0.858171 0.801542 0.537072 -0.153231
C9    C     C_R   0.819259 0.727601 0.528128 0.031128
C10   C     C_R   0.012228 0.154964 0.516451 0.027696
C11   C     C_R   0.102042 0.301472 0.530403 -0.221616
C12   C     C_3   0.414083 0.741307 0.289158 0.324242
C13   C     C_R   0.779899 0.847720 0.492036 -0.004618
C14   C     C_R   0.676536 0.703043 0.489505 -0.252146
C15   C     C_R   0.220496 0.032971 0.549944 -0.075639
C16   C     C_3   0.927281 0.808664 0.317212 -0.354675
C17   C     C_R   0.314362 0.978460 0.570520 0.063194
C18   C     C_R   0.266382 0.909177 0.543837 -0.039549
C19   C     C_R   0.117677 0.895460 0.506274 -0.104073
C20   C     C_R   0.001527 0.947323 0.508172 0.017611
C21   C     C_R   0.057405 0.020176 0.523474 0.023130
C22   C     C_R   0.836305 0.926590 0.491939 -0.004183
C23   C     C_3   0.529388 0.682501 0.653102 0.324587
C24   C     C_R   0.730170 0.982532 0.478538 0.035944
C25   C     C_R   0.787275 0.055710 0.489617 0.032444
C26   C     C_R   0.952226 0.076306 0.511205 0.014485
C27   C     C_R   0.565237 0.969214 0.455239 -0.089761
C28   C     C_3   0.919872 0.326199 0.291653 0.148316
C29   C     C_R   0.468120 0.021748 0.433505 -0.078285
C30   C     C_R   0.520034 0.091695 0.449290 -0.056232
C31   C     C_R   0.672308 0.107909 0.482577 -0.031600
C32   C     C_R   0.607350 0.536070 0.303891 -0.250732
C33   C     C_R   0.459188 0.501999 0.279032 0.112355
C34   C     C_3   0.604386 0.753954 0.690449 -0.214736
C35   C     C_R   0.407427 0.498717 0.206011 -0.104462
C36   C     C_R   0.505474 0.526130 0.157335 -0.027700
C37   C     C_R   0.659078 0.554929 0.183206 -0.011088
C38   C     C_R   0.708198 0.561749 0.256177 0.011027
C39   C     C_R   0.452716 0.571898 0.035262 -0.017664
C40   C     C_3   0.907077 0.252368 0.245893 -0.242146
C41   C     C_R   0.394661 0.558342 0.963260 -0.056750
C42   C     C_R   0.342714 0.490343 0.931596 0.060406
C43   C     C_R   0.345978 0.434712 0.973724 -0.047630
C44   C     C_R   0.400037 0.447461 0.046346 -0.033257
C45   C     C_3   0.937929 0.271034 0.697624 0.309327
C46   C     C_R   0.454666 0.515868 0.078775 0.001189
C47   C     C_R   0.137564 0.446743 0.826989 -0.049457
C48   C     C_R   0.093993 0.439598 0.752372 -0.034429
C49   C     C_R   0.341344 0.502701 0.734011 0.017729
C50   C     C_R   0.389296 0.506839 0.806547 -0.142971
C51   C     C_R   0.289458 0.479107 0.853886 -0.051340
C52   C     C_3   0.092476 0.674050 0.700092 0.309676
C53   C     C_R   0.197341 0.466971 0.706962 -0.280004
C54   C     C_3   0.078685 0.638807 0.767682 -0.349013
C55   C     C_3   0.336438 0.298242 0.330253 0.278604
C56   C     C_3   0.925762 0.201711 0.730460 -0.152165
C57   C     C_3   0.456705 0.240193 0.314585 -0.285660
C58   C     C_2   0.915038 0.190060 0.287088 0.855734
C59   C     C_2   0.142906 0.751245 0.721619 0.826097
C60   C     C_3   0.315654 0.313265 0.409488 -0.280057
C61   C     C_3   0.242857 0.781620 0.187054 -0.338256
C62   C     C_2   0.537467 0.802456 0.193840 0.842645
C63   C     C_3   0.537390 0.817181 0.657923 -0.478902
C64   C     C_3   0.383959 0.873809 0.281214 -0.371786
C65   C     C_2   0.768065 0.162664 0.708711 0.902453
C66   C     C_2   0.374273 0.260155 0.830822 0.864529
C67   C     C_3   0.447059 0.325158 0.729572 0.294894
C68   C     C_3   0.472347 0.994945 0.613599 -0.397143
C69   C     C_2   0.506392 0.646055 0.059823 0.853439
C70   C     C_2   0.020476 0.427426 0.876973 0.889333
C71   C     C_2   0.892966 0.379364 0.239228 0.896228
C72   C     C_3   0.493493 0.310268 0.805900 -0.151982
C73   C     C_R   0.949308 0.200127 0.467207 -0.112141
H1    H     H_    0.402890 0.687464 0.257814 0.024527
H2    H     H_    0.570262 0.251182 0.347961 0.163152
H3    H     H_    0.482324 0.235030 0.257501 0.140243
H4    H     H_    0.537295 0.747578 0.314505 -0.049578
H5    H     H_    0.624844 0.652547 0.626472 0.029541
H6    H     H_    0.433272 0.690440 0.611245 0.032917
H7    H     H_    0.735899 0.755494 0.686947 0.139154
H8    H     H_    0.584984 0.760776 0.748285 0.190446
H9    H     H_    0.852117 0.844040 0.350269 0.064340
H10   H     H_    0.901255 0.261336 0.639486 0.038641
H11   H     H_    0.065591 0.289864 0.705798 -0.025108
H12   H     H_    0.790828 0.247138 0.212477 0.087682
H13   H     H_    0.023132 0.166753 0.712964 -0.005324
H14   H     H_    0.942088 0.213371 0.789619 0.156992
H15   H     H_    0.318459 0.337458 0.724597 -0.067892
H16   H     H_    0.518729 0.372336 0.719577 0.089189
H17   H     H_    0.499715 0.360954 0.842514 -0.003888
H18   H     H_    0.614471 0.287847 0.809072 0.156353
H19   H     H_    0.983853 0.726326 0.381894 0.065826
H20   H     H_    0.866053 0.179383 0.422921 0.072686
H21   H     H_    0.176953 0.160185 0.613305 0.071615
H22   H     H_    0.601983 0.840544 0.401411 0.055493
H23   H     H_    0.003647 0.248380 0.208516 0.053554
H24   H     H_    0.954014 0.821541 0.576443 0.132824
H25   H     H_    0.138368 0.357180 0.536041 0.065522
H26   H     H_    0.633604 0.648740 0.489407 0.068579
H27   H     H_    0.284018 0.082684 0.551289 0.083816
H28   H     H_    0.346818 0.866639 0.549121 0.095557
H29   H     H_    0.781475 0.720562 0.340851 -0.073010
H30   H     H_    0.089809 0.843411 0.478027 0.116882
H31   H     H_    0.500357 0.921042 0.458751 0.072624
H32   H     H_    0.345164 0.008747 0.412540 0.084349
H33   H     H_    0.438196 0.133353 0.440383 0.097241
H34   H     H_    0.182466 0.645851 0.668897 0.007066
H35   H     H_    0.698431 0.162061 0.503695 0.148437
H36   H     H_    0.502177 0.534339 0.826623 0.100188
H37   H     H_    0.391324 0.601570 0.930870 0.100735
H38   H     H_    0.294128 0.471471 0.186413 0.136560
H39   H     H_    0.307450 0.381348 0.950453 0.102305
H40   H     H_    0.053001 0.828018 0.330500 0.110630
H41   H     H_    0.400717 0.403287 0.077336 0.096913
H42   H     H_    0.744538 0.568423 0.146683 0.137875
H43   H     H_    0.160226 0.464755 0.650681 0.068014
H44   H     H_    0.649618 0.537871 0.359549 0.071480
H45   H     H_    0.998113 0.668679 0.803696 0.128968
H46   H     H_    0.892673 0.813624 0.260529 0.173051
H47   H     H_    0.037487 0.339115 0.320352 -0.022026
H48   H     H_    0.799247 0.103346 0.313132 0.307823
H49   H     H_    0.297223 0.822393 0.781806 0.317925
H50   H     H_    0.214769 0.348624 0.418031 0.025322
H51   H     H_    0.291497 0.262142 0.429838 0.052852
H52   H     H_    0.422173 0.339844 0.439678 0.185266
H53   H     H_    0.228068 0.821041 0.148638 0.150889
H54   H     H_    0.134911 0.781422 0.216844 0.164768
H55   H     H_    0.248881 0.728024 0.156422 0.148167
H56   H     H_    0.198459 0.636446 0.796803 0.113287
H57   H     H_    0.651036 0.853111 0.123417 0.325156
H58   H     H_    0.566826 0.814473 0.601706 0.120803
H59   H     H_    0.405336 0.817902 0.659866 0.164051
H60   H     H_    0.591940 0.867001 0.688405 0.158513
H61   H     H_    0.345022 0.913174 0.245368 0.157286
H62   H     H_    0.298410 0.874233 0.322974 0.128084
H63   H     H_    0.503083 0.892904 0.307676 0.098308
H64   H     H_    0.566658 0.119161 0.739467 0.326705
H65   H     H_    0.332620 0.166320 0.866536 0.319012
H66   H     H_    0.530518 0.043587 0.599137 0.177717
H67   H     H_    0.026512 0.584079 0.753378 0.096423
H68   H     H_    0.451823 0.003444 0.671176 0.129935
H69   H     H_    0.555817 0.951091 0.604040 0.116232
H70   H     H_    0.461610 0.748857 0.052668 0.335321
H71   H     H_    0.871384 0.352790 0.905954 0.314464
H72   H     H_    0.650287 0.370012 0.235462 0.294237
H73   H     H_    0.225047 0.273464 0.302833 0.089125
H74   H     H_    0.406279 0.188204 0.325384 0.102327
O1    O     O_2   0.116570 0.673370 0.549300 -0.481212
O2    O     O_2   0.765772 0.452501 0.744621 -0.482355
O3    O     O_3   0.837628 0.320700 0.730702 -0.569104
O4    O     O_3   0.869340 0.584760 0.542960 -0.457516
O5    O     O_3   0.436600 0.464450 0.413780 -0.492332
O6    O     O_2   0.628980 0.533090 0.672420 -0.432121
O7    O     O_3   0.462950 0.645959 0.704600 -0.636700
O8    O     O_2   0.508973 0.237501 0.544871 -0.486706
O9    O     O_3   0.479276 0.266541 0.680480 -0.571089
O10   O     O_3   0.352540 0.630870 0.419750 -0.463297
O11   O     O_2   0.267023 0.751925 0.476724 -0.504760
O12   O     O_3   0.374401 0.357055 0.295206 -0.630974
O13   O     O_3   0.940801 0.667499 0.662456 -0.648098
O14   O     O_3   0.297261 0.746219 0.339404 -0.599721
O15   O     O_2   0.181320 0.466870 0.327560 -0.450084
O16   O     O_3   0.937730 0.595370 0.381630 -0.502567
O17   O     O_2   0.043051 0.553864 0.255177 -0.432181
O18   O     O_2   0.042159 0.175474 0.316989 -0.664656
O19   O     O_R   0.778259 0.145824 0.286774 -0.757213
O20   O     O_2   0.063994 0.798097 0.699289 -0.638795
O21   O     O_R   0.277565 0.769142 0.769660 -0.759985
O22   O     O_2   0.642384 0.759243 0.196606 -0.605713
O23   O     O_3   0.954766 0.685195 0.274358 -0.567317
O24   O     O_R   0.550041 0.855922 0.149856 -0.745394
O25   O     O_2   0.727084 0.145120 0.645520 -0.635822
O26   O     O_R   0.670084 0.145246 0.760834 -0.708574
O27   O     O_2   0.235198 0.276917 0.835419 -0.626632
O28   O     O_R   0.423642 0.195299 0.850523 -0.709102
O29   O     O_2   0.644375 0.660341 0.084223 -0.571964
O30   O     O_R   0.405444 0.700271 0.043977 -0.754832
O31   O     O_2   0.987545 0.471367 0.926175 -0.601016
O32   O     O_R   0.949393 0.359134 0.868640 -0.709458
O33   O     O_2   0.007193 0.402656 0.211820 -0.571789
O34   O     O_2   0.693730 0.326590 0.450680 -0.473406
O35   O     O_R   0.738667 0.396903 0.215360 -0.759179
O36   O     O_3   0.940960 0.415230 0.456980 -0.471451
O37   O     O_3   0.457750 0.369120 0.580200 -0.482238
O38   O     O_3   0.799169 0.332178 0.339078 -0.646772
O39   O     O_3   0.373690 0.535540 0.586160 -0.482869
O40   O     O_3   0.872560 0.404620 0.618320 -0.477943
P1    P     P_3+3 0.945400 0.662120 0.569160 0.995051
P2    P     P_3+3 0.355390 0.445380 0.336430 1.031192
P3    P     P_3+3 0.910681 0.597964 0.290038 1.028947
P4    P     P_3+3 0.864900 0.337880 0.430780 0.978305
P5    P     P_3+3 0.894299 0.405031 0.711457 0.998204
P6    P     P_3+3 0.378362 0.721431 0.420548 0.930066
P7    P     P_3+3 0.449552 0.554565 0.675768 0.956218
P8    P     P_3+3 0.405533 0.282872 0.595320 0.951434

loop_
_geom_bond_atom_site_label_1
_geom_bond_atom_site_label_2
_ccdc_geom_bond_type
H72   O35   S    
O5    P2    S    
Ba1   O1    S    
Ba2   O6    S    
C23   H5    S    
C39   C41   A    
H64   O26   S    
C17   C18   A    
Ba2   O40   S    
C41   C42   A    
C57   H2    S    
C66   O27   D    
C73   H20   S    
C55   C60   S    
C18   H28   S    
C4    O23   S    
C43   C44   A    
C25   C31   A    
O10   P6    S    
C68   H68   S    
C58   O19   S    
C10   C26   S    
C32   C38   A    
C45   H10   S    
C69   O29   D    
O7    P7    S    
C7    C14   A    
C22   C24   A    
C70   O32   S    
C32   C33   A    
C49   P7    S    
C40   H23   S    
C60   H52   S    
C55   C57   S    
C35   H38   S    
C65   O25   D    
C66   C72   S    
C62   O22   D    
C66   O28   S    
C12   O14   S    
O16   P3    S    
Ba1   Ba2   S    
C61   H55   S    
C72   H17   S    
C2    C11   A    
C63   H58   S    
C2    C73   A    
O6    P7    D    
O34   P4    D    
C42   C51   S    
C28   H47   S    
Ba1   O15   S    
C65   O26   S    
C6    C7    A    
C4    H19   S    
C47   C70   S    
C38   P3    S    
C16   H9    S    
O37   P8    S    
C4    H29   S    
O15   P2    D    
C49   C53   A    
C63   H59   S    
O12   P2    S    
C39   C69   S    
C54   H67   S    
Ba1   P1    S    
Ba2   O5    S    
C19   C20   A    
O38   P4    S    
C23   O7    S    
C23   H6    S    
C54   H45   S    
C72   H18   S    
C8    H24   S    
O40   P5    S    
C57   H3    S    
H57   O24   S    
C36   C46   S    
C67   O9    S    
C52   C54   S    
O4    P1    S    
C57   H74   S    
C2    P4    S    
C4    C16   S    
C44   C46   A    
C58   O18   D    
C49   C50   A    
C54   H56   S    
C45   H11   S    
Ba1   O10   S    
C3    C10   A    
C40   C58   S    
C37   C38   A    
C3    C5    A    
C71   O35   S    
C34   C63   S    
C23   C34   S    
C50   H36   S    
C43   H39   S    
O23   P3    S    
C52   H34   S    
C12   H1    S    
C5    P8    S    
C15   H27   S    
Ba2   O37   S    
C35   C36   A    
O1    P1    D    
C9    C14   A    
C14   H26   S    
C29   C30   A    
C64   H63   S    
O14   P6    S    
H70   O30   S    
H65   O28   S    
C24   C25   A    
H49   O21   S    
C67   C72   S    
C15   C21   A    
C12   H4    S    
C52   O13   S    
Ba1   O4    S    
C63   H60   S    
C1    C12   S    
O11   P6    D    
C64   H61   S    
H48   O19   S    
Ba1   P2    S    
C13   C22   S    
Ba2   O4    S    
C1    C61   S    
C30   H33   S    
C20   C22   A    
C27   H31   S    
C55   H73   S    
C1    C64   S    
C59   O20   D    
C21   C26   A    
C70   O31   D    
C67   H15   S    
O13   P1    S    
C3    H21   S    
C42   C43   A    
O2    P5    D    
C60   H51   S    
Ba1   O39   S    
C32   H44   S    
C28   C71   S    
C31   H35   S    
C68   H66   S    
C33   P2    S    
H71   O32   S    
C33   C35   A    
Ba1   O16   S    
C29   H32   S    
C61   H53   S    
O36   P4    S    
C56   H13   S    
C16   H40   S    
C60   H50   S    
C7    P6    S    
O9    P8    S    
C40   H12   S    
C52   C59   S    
Ba1   O36   S    
C6    C13   A    
C68   H69   S    
C48   C53   A    
C44   H41   S    
C8    C13   A    
Ba2   P4    S    
C30   C31   A    
C9    P1    S    
C11   H25   S    
Ba2   O36   S    
C27   C29   A    
C37   H42   S    
C28   O38   S    
C45   C56   S    
C71   O33   D    
C48   P5    S    
C36   C37   A    
C64   H62   S    
O3    P5    S    
C6    H22   S    
C47   C51   A    
C15   C17   A    
C39   C46   A    
O8    P8    D    
Ba2   O34   S    
C61   H54   S    
C1    C62   S    
Ba1   O5    S    
C56   H14   S    
Ba2   O39   S    
O17   P3    D    
C8    C9    A    
C16   H46   S    
C69   O30   S    
C56   C65   S    
C5    C11   A    
C55   O12   S    
C45   O3    S    
O39   P7    S    
C24   C27   A    
C18   C19   A    
C47   C48   A    
C41   H37   S    
C10   C73   A    
C25   C26   A    
C20   C21   A    
C28   C40   S    
C17   C68   S    
C59   O21   S    
C34   H8    S    
C34   H7    S    
C62   O24   S    
C67   H16   S    
C19   H30   S    
C50   C51   A    
C53   H43   S    
