data_mof_unit_51423.cif
_audit_creation_date              2012-12-11T18:45:10-0500
_audit_creation_method            fapswitch 2.2
_symmetry_space_group_name_H-M    P1
_symmetry_Int_Tables_number       1
_space_group_crystal_system       triclinic
_cell_length_a                    8.48318
_cell_length_b                    14.312371
_cell_length_c                    18.890818
_cell_angle_alpha                 97.710458
_cell_angle_beta                  91.846973
_cell_angle_gamma                 91.915559
_cell_volume                      2270.04894042

loop_
_atom_site_label
_atom_site_type_symbol
_atom_type_description
_atom_site_fract_x
_atom_site_fract_y
_atom_site_fract_z
_atom_type_partial_charge
Ba1   Ba    Ba6+2 0.843240 0.541620 0.463500 1.730707
Ba2   Ba    Ba6+2 0.346570 0.458460 0.536510 1.687348
C1    C     C_3   0.696569 0.782739 0.142977 -0.149589
C2    C     C_R   0.954118 0.380507 0.091128 -0.029965
C3    C     C_R   0.844327 0.310053 0.059417 -0.006798
C4    C     C_3   0.165300 0.762268 0.274934 0.236788
C5    C     C_R   0.768855 0.321338 0.993980 -0.043449
C6    C     C_R   0.825722 0.389157 0.952265 0.007767
C7    C     C_R   0.965486 0.440439 0.975217 0.031025
C8    C     C_R   0.750543 0.402232 0.886634 0.073485
C9    C     C_R   0.833755 0.448135 0.835133 -0.032606
C10   C     C_R   0.984536 0.492717 0.856124 -0.028964
C11   C     C_R   0.045942 0.491295 0.927435 0.023208
C12   C     C_3   0.627160 0.753899 0.211061 0.286487
C13   C     C_R   0.775217 0.449866 0.763356 0.011890
C14   C     C_R   0.867674 0.493851 0.715319 -0.298506
C15   C     C_R   0.017767 0.536287 0.733657 0.016511
C16   C     C_3   0.126912 0.759859 0.194647 -0.297857
C17   C     C_R   0.074739 0.538668 0.806635 -0.076733
C18   C     C_R   0.164442 0.490375 0.070648 0.007137
C19   C     C_R   0.218641 0.494725 0.143302 0.002686
C20   C     C_R   0.125802 0.452452 0.193138 0.002749
C21   C     C_R   0.998572 0.391222 0.164824 -0.009744
C22   C     C_R   0.221676 0.582576 0.831560 -0.023820
C23   C     C_3   0.548080 0.274363 0.309826 0.191249
C24   C     C_R   0.285458 0.576485 0.900911 0.055790
C25   C     C_R   0.194303 0.534115 0.949820 -0.006901
C26   C     C_R   0.254114 0.532136 0.020986 0.020778
C27   C     C_R   0.441692 0.608476 0.921999 0.165890
C28   C     C_3   0.185587 0.754124 0.619084 0.390612
C29   C     C_R   0.501680 0.602118 0.991127 -0.129108
C30   C     C_R   0.407544 0.567061 0.041416 0.004043
C31   C     C_R   0.368942 0.537210 0.164449 -0.007910
C32   C     C_R   0.466226 0.565120 0.111405 -0.070538
C33   C     C_R   0.419681 0.547370 0.237184 -0.008128
C34   C     C_3   0.617176 0.230733 0.237549 -0.182696
C35   C     C_R   0.319465 0.512640 0.287262 -0.294124
C36   C     C_R   0.171479 0.466599 0.267852 0.051549
C37   C     C_R   0.699042 0.938340 0.536504 -0.037438
C38   C     C_R   0.506585 0.802681 0.503290 0.075974
C39   C     C_R   0.353722 0.772680 0.478355 -0.180721
C40   C     C_3   0.163894 0.860664 0.632987 -0.094690
C41   C     C_R   0.249778 0.832634 0.450369 0.006735
C42   C     C_R   0.297105 0.926482 0.449792 -0.148129
C43   C     C_R   0.448591 0.959720 0.475412 0.021102
C44   C     C_R   0.553805 0.899207 0.504890 -0.017684
C45   C     C_3   0.078380 0.233301 0.742962 0.388056
C46   C     C_R   0.637433 0.092607 0.504096 -0.052918
C47   C     C_R   0.741885 0.033994 0.535944 0.002333
C48   C     C_R   0.677168 0.189462 0.506786 0.085719
C49   C     C_R   0.813573 0.227810 0.545155 -0.094557
C50   C     C_R   0.926030 0.168503 0.570069 -0.001503
C51   C     C_R   0.888691 0.071727 0.566037 -0.156209
C52   C     C_3   0.033519 0.216750 0.354705 0.535523
C53   C     C_R   0.493499 0.053703 0.472705 -0.037462
C54   C     C_3   0.090910 0.124410 0.311839 -0.063096
C55   C     C_3   0.714263 0.702068 0.679246 0.328657
C56   C     C_3   0.006126 0.151796 0.778337 -0.062265
C57   C     C_3   0.734997 0.755258 0.756048 -0.053404
C58   C     C_2   0.581951 0.793239 0.784472 0.589974
C59   C     C_2   0.379216 0.293309 0.301671 0.406370
C60   C     C_2   0.573774 0.126771 0.220392 0.518128
C61   C     C_2   0.565809 0.280119 0.175227 0.442788
C62   C     C_2   0.174500 0.302577 0.795470 0.586241
C63   C     C_2   0.539288 0.101044 0.785153 0.488410
C64   C     C_2   0.829932 0.217733 0.086854 0.493716
C65   C     C_2   0.321950 0.812355 0.294735 0.338541
C66   C     C_2   0.378243 0.515166 0.360603 0.581963
C67   C     C_3   0.593248 0.216070 0.697515 0.280164
C68   C     C_2   0.119626 0.856908 0.172732 0.476934
C69   C     C_3   0.540038 0.115566 0.708038 -0.250213
C70   C     C_R   0.025566 0.439277 0.046300 0.018289
H1    H     H_    0.623637 0.819332 0.249659 0.111424
H2    H     H_    0.505637 0.724515 0.198477 -0.037734
H3    H     H_    0.614364 0.341883 0.328190 0.028190
H4    H     H_    0.747528 0.239909 0.242303 0.073343
H5    H     H_    0.738397 0.720223 0.108528 0.102194
H6    H     H_    0.217008 0.719192 0.163471 0.066679
H7    H     H_    0.980944 0.272774 0.721604 -0.209076
H8    H     H_    0.102160 0.107674 0.795392 0.123844
H9    H     H_    0.927355 0.106233 0.738750 0.068020
H10   H     H_    0.723136 0.223915 0.705044 -0.054284
H11   H     H_    0.559857 0.223579 0.641418 0.073663
H12   H     H_    0.200319 0.894670 0.586502 -0.001912
H13   H     H_    0.619377 0.064899 0.678672 0.061009
H14   H     H_    0.419718 0.099261 0.684193 0.106692
H15   H     H_    0.171312 0.687247 0.284070 0.058583
H16   H     H_    0.675102 0.271191 0.973326 0.115432
H17   H     H_    0.820141 0.496460 0.661862 0.060586
H18   H     H_    0.933118 0.351676 0.199499 0.110016
H19   H     H_    0.289521 0.620529 0.796825 0.174930
H20   H     H_    0.622613 0.625707 0.005361 0.076755
H21   H     H_    0.587969 0.586497 0.124105 0.074480
H22   H     H_    0.310186 0.703910 0.485847 0.094987
H23   H     H_    0.036842 0.873752 0.640196 0.069925
H24   H     H_    0.216119 0.973567 0.429557 0.089138
H25   H     H_    0.973000 0.026448 0.587172 0.063465
H26   H     H_    0.779044 0.896367 0.563182 0.087463
H27   H     H_    0.411699 0.096305 0.447537 0.113854
H28   H     H_    0.011664 0.721737 0.181085 0.111134
H29   H     H_    0.311776 0.740321 0.611354 0.015071
H30   H     H_    0.112230 0.725798 0.570673 -0.027820
H31   H     H_    0.374201 0.906233 0.683511 0.202054
H32   H     H_    0.221760 0.972847 0.708602 0.170098
H33   H     H_    0.810860 0.163438 0.331742 0.212223
H34   H     H_    0.045167 0.117898 0.255353 0.132243
H35   H     H_    0.829744 0.271229 0.381821 0.160755
H36   H     H_    0.077364 0.291955 0.453560 0.166365
H37   H     H_    0.127380 0.180223 0.445505 0.182166
H38   H     H_    0.106297 0.985120 0.318925 0.174304
H39   H     H_    0.923513 0.022128 0.326366 0.222973
H40   H     H_    0.962313 0.809359 0.753967 0.225243
H41   H     H_    0.824590 0.874973 0.718660 0.193521
H42   H     H_    0.585095 0.848415 0.829967 0.067991
H43   H     H_    0.540330 0.887881 0.135917 0.241557
H44   H     H_    0.485043 0.783649 0.087049 0.206977
H45   H     H_    0.221865 0.127477 0.310886 0.107239
H46   H     H_    0.325272 0.323373 0.349277 0.002303
H47   H     H_    0.450662 0.102884 0.214575 0.035133
H48   H     H_    0.495167 0.242490 0.130710 0.073841
H49   H     H_    0.209932 0.369415 0.779492 0.016885
H50   H     H_    0.881530 0.129859 0.865765 0.246563
H51   H     H_    0.815453 0.217417 0.823146 0.168860
H52   H     H_    0.465319 0.143023 0.821841 0.078642
H53   H     H_    0.900474 0.204436 0.133100 0.015604
H54   H     H_    0.571110 0.302997 0.874292 0.199943
H55   H     H_    0.525029 0.408473 0.919120 0.190515
H56   H     H_    0.831426 0.687829 0.656793 -0.017788
H57   H     H_    0.593491 0.708183 0.898150 0.163985
H58   H     H_    0.636246 0.597855 0.864404 0.169483
H59   H     H_    0.345823 0.883125 0.282123 0.007508
H60   H     H_    0.463504 0.465868 0.374873 -0.041687
H61   H     H_    0.859022 0.343409 0.617077 0.141580
H62   H     H_    0.914559 0.355334 0.531863 0.194015
H63   H     H_    0.040529 0.907643 0.198632 0.041930
H64   H     H_    0.646899 0.634345 0.680436 0.025057
H65   H     H_    0.799578 0.831656 0.157763 0.129143
H66   H     H_    0.779341 0.705400 0.791695 0.004707
N1    N     N_3   0.255415 0.903061 0.696615 -0.420666
N2    N     N_3   0.829688 0.327865 0.562734 -0.455269
N3    N     N_3   0.872749 0.203566 0.374245 -0.524259
N4    N     N_3   0.129680 0.239936 0.419321 -0.437435
N5    N     N_3   0.040664 0.040485 0.342662 -0.524772
N6    N     N_3   0.849193 0.834820 0.759775 -0.496980
N7    N     N_3   0.581398 0.830208 0.102521 -0.457648
N8    N     N_3   0.917472 0.187378 0.840696 -0.469624
N9    N     N_3   0.586276 0.375888 0.876002 -0.449319
N10   N     N_3   0.543958 0.644029 0.872753 -0.487785
O1    O     O_2   0.887710 0.436190 0.327560 -0.462390
O2    O     O_2   0.253697 0.171650 0.558925 -0.494489
O3    O     O_3   0.180864 0.194944 0.690489 -0.630646
O4    O     O_3   0.135370 0.443490 0.416520 -0.488534
O5    O     O_3   0.551980 0.615210 0.532020 -0.455785
O6    O     O_2   0.394410 0.269100 0.474240 -0.453437
O7    O     O_3   0.558608 0.211044 0.360768 -0.678686
O8    O     O_2   0.446271 0.461232 0.756243 -0.464287
O9    O     O_3   0.519763 0.284077 0.745079 -0.587965
O10   O     O_3   0.634420 0.609440 0.364670 -0.427181
O11   O     O_2   0.732775 0.515863 0.247517 -0.431596
O12   O     O_3   0.628677 0.759146 0.639099 -0.649049
O13   O     O_3   0.043168 0.286512 0.308489 -0.621751
O14   O     O_3   0.727029 0.691445 0.240613 -0.574604
O15   O     O_2   0.795290 0.730930 0.525800 -0.486294
O16   O     O_3   0.044470 0.660110 0.398750 -0.435888
O17   O     O_2   0.915968 0.825978 0.438571 -0.466527
O18   O     O_2   0.454192 0.761428 0.758888 -0.563901
O19   O     O_2   0.302516 0.272162 0.245612 -0.637107
O20   O     O_2   0.676284 0.068761 0.212743 -0.591863
O21   O     O_2   0.600116 0.363191 0.174468 -0.594104
O22   O     O_2   0.215461 0.284877 0.854680 -0.592043
O23   O     O_3   0.045561 0.807371 0.315359 -0.599535
O24   O     O_2   0.618648 0.040440 0.806773 -0.590620
O25   O     O_2   0.742622 0.154006 0.056750 -0.552504
O26   O     O_2   0.422005 0.774437 0.327533 -0.635462
O27   O     O_2   0.337075 0.576494 0.405902 -0.564302
O28   O     O_2   0.202752 0.879437 0.125804 -0.569211
O29   O     O_2   0.301980 0.563840 0.672490 -0.441717
O30   O     O_3   0.054330 0.556590 0.583490 -0.502083
O31   O     O_3   0.555270 0.390630 0.635330 -0.455925
O32   O     O_3   0.137855 0.713925 0.678468 -0.615377
O33   O     O_3   0.637720 0.384870 0.467990 -0.471053
O34   O     O_3   0.145220 0.339960 0.601250 -0.478209
P1    P     P_3+3 0.061800 0.409390 0.339760 0.999092
P2    P     P_3+3 0.622760 0.718740 0.547830 0.999794
P3    P     P_3+3 0.064010 0.782817 0.403920 1.030474
P4    P     P_3+3 0.127890 0.590690 0.660240 0.995870
P5    P     P_3+3 0.123149 0.218316 0.604955 0.938517
P6    P     P_3+3 0.622101 0.596321 0.270425 1.062374
P7    P     P_3+3 0.569686 0.265226 0.451040 0.941504
P8    P     P_3+3 0.578397 0.397128 0.726837 0.992687

loop_
_geom_bond_atom_site_label_1
_geom_bond_atom_site_label_2
_ccdc_geom_bond_type
C16   C68   S    
C46   C53   A    
C60   O20   D    
O13   P1    S    
C23   O7    S    
C54   H45   S    
C58   H42   S    
C32   H21   S    
C45   H7    S    
C55   H56   S    
H36   N4    S    
Ba1   P1    S    
O33   P7    S    
C5    C6    A    
H32   N1    S    
C43   C44   A    
C42   C43   A    
O3    P5    S    
C24   C25   A    
C67   H11   S    
C12   H2    S    
C18   C70   A    
Ba1   O10   S    
C33   C35   A    
C22   C24   A    
H33   N3    S    
H44   N7    S    
C47   C51   A    
C61   O21   D    
C19   C31   A    
C41   P3    S    
C65   O26   D    
C62   H49   S    
C20   C36   A    
C35   C66   S    
Ba1   O15   S    
C10   C17   A    
Ba1   O4    S    
C66   H60   S    
Ba1   Ba2   S    
Ba2   O34   S    
C63   H52   S    
C67   C69   S    
C48   P7    S    
C7    C11   A    
O9    P8    S    
H57   N10   S    
C67   H10   S    
C34   H4    S    
C15   C17   A    
C69   H13   S    
C54   N5    S    
C9    C13   A    
Ba1   P2    S    
C5    H16   S    
Ba1   O16   S    
C14   C15   A    
C67   O9    S    
C7    C70   A    
C55   H64   S    
Ba1   O1    S    
H37   N4    S    
C1    H65   S    
C50   P5    S    
H35   N3    S    
C34   C61   S    
O7    P7    S    
H39   N5    S    
C8    N9    S    
C49   N2    S    
C46   C48   A    
C40   N1    S    
C14   H17   S    
Ba2   O6    S    
C19   C20   A    
C39   C41   A    
C16   H28   S    
C27   N10   S    
C34   C60   S    
C66   O27   D    
H61   N2    S    
C48   C49   A    
C4    O23   S    
Ba2   O4    S    
C4    C16   S    
C52   C54   S    
O23   P3    S    
C63   O24   D    
H58   N10   S    
C40   H23   S    
C12   H1    S    
C26   C30   A    
C40   H12   S    
O16   P3    S    
C56   H9    S    
C45   C62   S    
C3    C5    A    
C2    C21   A    
Ba1   O33   S    
C33   P6    S    
C37   H26   S    
C18   C26   A    
C57   H66   S    
C51   H25   S    
C63   C69   S    
O17   P3    D    
C4    H15   S    
C49   C50   A    
C59   O19   D    
Ba2   O33   S    
C30   C32   A    
O11   P6    D    
C12   O14   S    
C38   C44   A    
C41   C42   A    
Ba2   P4    S    
C35   C36   A    
C42   H24   S    
H31   N1    S    
C69   H14   S    
O2    P5    D    
Ba1   O30   S    
O6    P7    D    
C39   H22   S    
C52   N4    S    
O5    P2    S    
C15   P4    S    
C16   H6    S    
C28   H30   S    
C31   C32   A    
C6    C7    A    
C21   H18   S    
C64   O25   D    
C23   C59   S    
C10   C11   A    
O4    P1    S    
Ba1   O5    S    
C2    C3    A    
C54   H34   S    
C60   H47   S    
C1    C12   S    
O32   P4    S    
C36   P1    S    
C37   C44   A    
O15   P2    D    
C38   C39   A    
Ba2   O29   S    
C13   P8    S    
C45   O3    S    
C57   N6    S    
C1    N7    S    
H51   N8    S    
C68   H63   S    
Ba2   O31   S    
C1    H5    S    
C22   H19   S    
C2    C70   A    
C50   C51   A    
C4    C65   S    
C37   C47   A    
C59   H46   S    
C55   O12   S    
C29   C30   A    
C65   H59   S    
C3    C64   S    
O10   P6    S    
H54   N9    S    
C56   N8    S    
H62   N2    S    
C56   H8    S    
Ba2   O5    S    
H43   N7    S    
H41   N6    S    
H40   N6    S    
C17   C22   A    
C27   C29   A    
C45   C56   S    
O14   P6    S    
C61   H48   S    
O31   P8    S    
C46   C47   A    
C64   H53   S    
C28   H29   S    
C31   C33   A    
C28   C40   S    
O34   P5    S    
H50   N8    S    
C52   O13   S    
C62   O22   D    
H38   N5    S    
C58   O18   D    
C55   C57   S    
C8    C9    A    
O29   P4    D    
C23   C34   S    
O30   P4    S    
C57   C58   S    
C52   N3    S    
C18   C19   A    
C43   C53   A    
C24   C27   A    
C6    C8    A    
C29   H20   S    
C53   H27   S    
C25   C26   A    
O1    P1    D    
C28   O32   S    
C20   C21   A    
C11   C25   A    
Ba2   O30   S    
C23   H3    S    
C68   O28   D    
O12   P2    S    
C13   C14   A    
C9    C10   A    
H55   N9    S    
C38   P2    S    
O8    P8    D    
