data_mof_unit_23930.cif
_audit_creation_date              2012-12-11T16:26:29-0500
_audit_creation_method            fapswitch 2.2
_symmetry_space_group_name_H-M    P1
_symmetry_Int_Tables_number       1
_space_group_crystal_system       triclinic
_cell_length_a                    6.927785
_cell_length_b                    17.549113
_cell_length_c                    19.566829
_cell_angle_alpha                 108.769547
_cell_angle_beta                  89.488685
_cell_angle_gamma                 90.60741
_cell_volume                      2252.19435381

loop_
_atom_site_label
_atom_site_type_symbol
_atom_type_description
_atom_site_fract_x
_atom_site_fract_y
_atom_site_fract_z
_atom_type_partial_charge
O1    O     O_R   0.494330 0.415720 0.413720 -0.550099
O2    O     O_R   0.819330 0.430070 0.560210 -0.515720
O3    O     O_R   0.994320 0.584280 0.586280 -0.541450
C1    C     C_R   0.650167 0.414632 0.581516 0.896161
O4    O     O_R   0.823730 0.406300 0.412670 -0.527595
O5    O     O_R   0.998760 0.560340 0.437690 -0.499878
C2    C     C_R   0.655176 0.383434 0.384961 0.909323
O6    O     O_R   0.489890 0.439660 0.562310 -0.500545
O7    O     O_3   0.662340 0.550560 0.508380 -0.375089
V1    V     V_3+5 0.935370 0.490620 0.498450 1.711733
O8    O     O_R   0.328750 0.569930 0.439790 -0.533276
C3    C     C_R   0.160658 0.584181 0.417352 0.820341
O9    O     O_R   0.324340 0.593700 0.587330 -0.530104
C4    C     C_R   0.155197 0.616298 0.615308 0.910763
V2    V     V_3+5 0.435940 0.509380 0.501550 1.692838
O10   O     O_3   0.159100 0.449440 0.491620 -0.365716
C5    C     C_R   0.008468 0.592806 0.750439 0.146186
C6    C     C_R   0.927011 0.584555 0.814098 0.490647
C7    C     C_R   0.914010 0.650113 0.876328 0.636845
C8    C     C_R   0.980194 0.724955 0.876784 -0.348219
C9    C     C_R   0.055228 0.737448 0.813707 -0.069817
C10   C     C_R   0.068680 0.670805 0.748525 -0.039910
C11   C     C_R   0.121500 0.814984 0.816130 -0.018256
C12   C     C_R   0.200763 0.827192 0.753348 -0.074913
C13   C     C_R   0.207064 0.762776 0.686913 -0.158410
C14   C     C_R   0.143895 0.684053 0.684527 -0.090571
C15   C     C_R   0.269206 0.904214 0.755398 -0.177510
C16   C     C_R   0.345337 0.918779 0.694702 0.219316
C17   C     C_R   0.351934 0.855311 0.628523 0.279217
C18   C     C_R   0.275147 0.779942 0.624319 0.557141
H1    H     H_    0.972153 0.772801 0.927876 0.184128
H2    H     H_    0.261752 0.955440 0.804118 0.194191
C19   C     C_R   0.300542 0.626531 0.314745 0.376349
C20   C     C_R   0.152209 0.632306 0.366642 -0.184028
C21   C     C_R   0.992888 0.682945 0.369234 0.436447
C22   C     C_R   0.986251 0.731658 0.323641 -0.083846
C23   C     C_R   0.138721 0.727812 0.273962 -0.136493
C24   C     C_R   0.297252 0.676109 0.270269 -0.068443
C25   C     C_R   0.834128 0.786310 0.328242 0.643865
C26   C     C_R   0.827408 0.833539 0.282835 0.286618
C27   C     C_R   0.972964 0.826293 0.229877 0.015469
C28   C     C_R   0.131971 0.775204 0.227139 -0.078268
C29   C     C_R   0.283902 0.771026 0.177127 -0.180991
C30   C     C_R   0.441729 0.720691 0.175174 0.605802
C31   C     C_R   0.448251 0.673889 0.220693 0.590051
C32   C     C_R   0.962567 0.868139 0.179307 -0.171945
C33   C     C_R   0.113588 0.865140 0.130357 -0.212169
C34   C     C_R   0.275034 0.817072 0.129972 0.677087
H3    H     H_    0.838018 0.904107 0.177612 0.158763
C35   C     C_R   0.477738 0.192333 0.873492 0.372796
C36   C     C_R   0.622867 0.135270 0.869530 -0.202900
C37   C     C_R   0.774706 0.126230 0.819547 0.596540
C38   C     C_R   0.779878 0.171110 0.771003 -0.087077
C39   C     C_R   0.633214 0.228198 0.774836 -0.092311
C40   C     C_R   0.478753 0.237194 0.824770 -0.126436
C41   C     C_R   0.930444 0.161540 0.719483 0.388161
C42   C     C_R   0.943890 0.211985 0.677029 0.391925
C43   C     C_R   0.793780 0.266677 0.677992 -0.110854
C44   C     C_R   0.639133 0.275500 0.727899 -0.084820
C45   C     C_R   0.489378 0.331105 0.730506 -0.145373
C46   C     C_R   0.336392 0.339213 0.780797 0.314574
C47   C     C_R   0.327527 0.290226 0.824365 0.651246
C48   C     C_R   0.790322 0.310069 0.628365 0.564678
C49   C     C_R   0.642761 0.365243 0.630738 -0.271697
C50   C     C_R   0.492428 0.374829 0.681130 0.548558
H4    H     H_    0.423554 0.134658 0.427282 0.177386
C51   C     C_R   0.777215 0.404254 0.248785 0.453717
C52   C     C_R   0.837827 0.415677 0.184876 0.498298
C53   C     C_R   0.813686 0.354723 0.118874 0.244046
C54   C     C_R   0.727715 0.281814 0.117280 0.263111
C55   C     C_R   0.682005 0.265029 0.182607 -0.156860
C56   C     C_R   0.702320 0.328620 0.249794 -0.208159
C57   C     C_R   0.617440 0.187311 0.182437 -0.060416
C58   C     C_R   0.564330 0.174709 0.248227 0.020561
C59   C     C_R   0.578274 0.238614 0.315037 -0.063124
C60   C     C_R   0.646017 0.315803 0.315714 -0.112545
C61   C     C_R   0.498680 0.097980 0.248620 -0.196797
C62   C     C_R   0.446856 0.084413 0.312489 -0.226834
C63   C     C_R   0.461806 0.146033 0.377636 -0.095802
C64   C     C_R   0.527610 0.222052 0.379727 0.583407
H5    H     H_    0.486599 0.047167 0.199677 0.128412
H6    H     H_    0.396268 0.025455 0.311444 0.177475
O11   O     O_R   0.775200 0.060470 0.937800 -0.495137
O12   O     O_R   0.441110 0.093720 0.087350 -0.558244
O13   O     O_R   0.266330 0.939630 0.062280 -0.519771
C65   C     C_R   0.609764 0.117540 0.114465 0.702318
O14   O     O_R   0.445750 0.069950 0.939820 -0.527753
O15   O     O_R   0.271000 0.915700 0.913700 -0.545949
C66   C     C_R   0.614873 0.084910 0.918052 0.838455
O16   O     O_R   0.770530 0.084400 0.086380 -0.534468
O17   O     O_3   0.602830 0.949510 0.991680 -0.364105
V3    V     V_3+5 0.329710 0.009370 0.001550 1.573411
O18   O     O_R   0.940990 0.906170 0.912570 -0.541660
C67   C     C_R   0.110162 0.883581 0.884827 0.696259
O19   O     O_R   0.936350 0.929940 0.060100 -0.542562
C68   C     C_R   0.104612 0.914334 0.081196 0.729996
V4    V     V_3+5 0.829160 0.990450 0.998310 1.597739
O20   O     O_3   0.105910 0.050480 0.008320 -0.355860
O21   O     O_3   0.432339 0.863941 0.566602 -0.569577
H7    H     H_    0.536704 0.904909 0.580395 0.314401
O22   O     O_3   0.846479 0.684981 0.417846 -0.576561
H8    H     H_    0.725882 0.670765 0.389462 0.378650
F1    F     F_    0.693401 0.798023 0.379298 -0.628956
O23   O     O_3   0.675834 0.886506 0.292775 -0.620439
H9    H     H_    0.723766 0.936346 0.284894 0.283451
F2    F     F_    0.420307 0.813209 0.081820 -0.611542
F3    F     F_    0.591686 0.715921 0.128812 -0.545051
F4    F     F_    0.605492 0.626821 0.215908 -0.563244
O24   O     O_3   0.341315 0.205865 0.927709 -0.581436
H10   H     H_    0.342407 0.264521 0.953982 0.348429
F5    F     F_    0.919004 0.074497 0.819854 -0.666578
O25   O     O_3   0.070593 0.103977 0.709742 -0.576188
H11   H     H_    0.002397 0.051716 0.700591 0.338628
O26   O     O_3   0.034615 0.525054 0.691104 -0.606363
H12   H     H_    0.984080 0.476627 0.700936 0.370414
O27   O     O_3   0.105328 0.204333 0.633752 -0.587038
H13   H     H_    0.154066 0.259319 0.639737 0.353526
F6    F     F_    0.921813 0.294852 0.573740 -0.634782
F7    F     F_    0.347491 0.425763 0.680272 -0.662050
O28   O     O_3   0.190262 0.393855 0.788447 -0.555932
H14   H     H_    0.252955 0.447317 0.798230 0.369902
F8    F     F_    0.166762 0.295122 0.865819 -0.609056
F9    F     F_    0.793572 0.469116 0.309114 -0.654827
F10   F     F_    0.914173 0.488193 0.187485 -0.594573
O29   O     O_3   0.863882 0.365449 0.054021 -0.557169
H15   H     H_    0.923059 0.419439 0.063258 0.381518
O30   O     O_3   0.681025 0.230077 0.050319 -0.604804
H16   H     H_    0.539791 0.220958 0.051627 0.287986
F11   F     F_    0.862413 0.512026 0.816346 -0.620026
F12   F     F_    0.544231 0.277680 0.446054 -0.708294
F13   F     F_    0.839728 0.640839 0.937592 -0.552392
O31   O     O_3   0.405762 0.996281 0.702301 -0.621203
H17   H     H_    0.398425 0.005263 0.655000 0.327737
F14   F     F_    0.267956 0.724738 0.557438 -0.668413
O32   O     O_3   0.446268 0.570787 0.304616 -0.564546
H18   H     H_    0.391347 0.521046 0.310776 0.294820

loop_
_geom_bond_atom_site_label_1
_geom_bond_atom_site_label_2
_ccdc_geom_bond_type
C54   O30   S    
O18   C67   A    
C57   C58   A    
O19   C68   A    
C12   C15   A    
C1    O6    A    
C52   F10   S    
O26   H12   S    
C6    F11   S    
V3    O20   S    
O32   H18   S    
C61   C62   A    
C41   C42   A    
H4    C63   S    
C32   H3    S    
O22   H8    S    
C16   C17   A    
O12   C65   A    
C51   C56   A    
O5    C3    A    
C20   C21   A    
O13   C68   A    
C38   C41   A    
V2    O10   S    
C40   C47   A    
C43   C48   A    
O27   H13   S    
C6    C7    A    
C27   C28   A    
C23   C28   A    
C19   O32   S    
O23   H9    S    
C24   C31   A    
C32   C33   A    
O8    V2    S    
C34   F2    S    
O15   V3    S    
C52   C53   A    
C18   F14   S    
C58   C61   A    
C27   C32   A    
C54   C55   A    
O1    V2    S    
O9    C4    A    
C17   C18   A    
C59   C64   A    
O16   V4    S    
C31   F4    S    
C56   C60   A    
C53   O29   S    
C44   C45   A    
C9    C10   A    
C46   O28   S    
C53   C54   A    
O25   H11   S    
O13   V3    S    
C5    O26   S    
V4    O20   S    
C42   O27   S    
C39   C44   A    
C7    F13   S    
O11   C66   A    
O15   C67   A    
C64   F12   S    
C58   C59   A    
C17   O21   S    
C51   C52   A    
C12   C13   A    
C65   O16   A    
C33   C68   S    
O17   V3    S    
O4    C2    A    
C48   F6    S    
C62   C63   A    
O31   H17   S    
C37   F5    S    
C35   C36   A    
C43   C44   A    
C38   C39   A    
C35   O24   S    
C4    C14   S    
C36   C37   A    
C45   C46   A    
C16   O31   S    
C21   C22   A    
O2    C1    A    
C59   C60   A    
C23   C24   A    
C26   O23   S    
C62   H6    S    
C33   C34   A    
C61   H5    S    
C11   C12   A    
C29   C34   A    
C5    C6    A    
C50   F7    S    
O17   V4    S    
O3    C4    A    
C26   C27   A    
C45   C50   A    
O6    V2    S    
O9    V2    S    
C29   C30   A    
C10   C14   A    
O29   H15   S    
C28   C29   A    
C3    C20   S    
O30   H16   S    
O2    V1    S    
O18   V4    S    
C47   F8    S    
C37   C38   A    
C55   C57   A    
O7    V1    S    
C30   F3    S    
C13   C18   A    
C39   C40   A    
C22   C23   A    
C15   H2    S    
O1    C2    A    
C22   C25   A    
C30   C31   A    
C5    C10   A    
C48   C49   A    
C21   O22   S    
C51   F9    S    
O5    V1    S    
O8    C3    A    
O19   V4    S    
C25   F1    S    
C2    C60   S    
C1    C49   S    
C35   C40   A    
O21   H7    S    
C49   C50   A    
C7    C8    A    
C9    C11   A    
C13   C14   A    
C55   C56   A    
O3    V1    S    
V1    O10   S    
O24   H10   S    
C36   C66   S    
C42   C43   A    
C19   C20   A    
O7    V2    S    
C46   C47   A    
C57   C65   S    
C63   C64   A    
C25   C26   A    
C11   C67   S    
O4    V1    S    
C8    C9    A    
O11   V4    S    
C15   C16   A    
O14   C66   A    
O28   H14   S    
C19   C24   A    
O12   V3    S    
O14   V3    S    
C41   O25   S    
C8    H1    S    
