data_mof_unit_19286.cif
_audit_creation_date              2012-12-11T14:03:58-0500
_audit_creation_method            fapswitch 2.2
_symmetry_space_group_name_H-M    P1
_symmetry_Int_Tables_number       1
_space_group_crystal_system       triclinic
_cell_length_a                    19.134361
_cell_length_b                    10.924863
_cell_length_c                    18.945811
_cell_angle_alpha                 89.314033
_cell_angle_beta                  89.316189
_cell_angle_gamma                 90.272035
_cell_volume                      3959.82424876

loop_
_atom_site_label
_atom_site_type_symbol
_atom_type_description
_atom_site_fract_x
_atom_site_fract_y
_atom_site_fract_z
_atom_type_partial_charge
C1    C     C_R   0.240780 0.466137 0.647732 0.536817
C2    C     C_R   0.758994 0.464369 0.351887 0.566520
C3    C     C_R   0.740779 0.966139 0.647731 0.536826
C4    C     C_R   0.258995 0.964372 0.351888 0.568264
C5    C     C_2   0.275155 0.862217 0.535723 0.089246
C6    C     C_2   0.716459 0.828750 0.469431 0.080758
C7    C     C_2   0.775149 0.362203 0.535716 0.089221
C8    C     C_2   0.216460 0.328746 0.469432 0.080667
C9    C     C_R   0.998617 0.657146 0.424361 -0.013883
C10   C     C_R   0.041005 0.659401 0.563942 -0.022874
C11   C     C_R   0.498622 0.157144 0.424359 -0.013907
C12   C     C_R   0.541008 0.159401 0.563941 -0.022994
C13   C     C_R   0.018731 0.882166 0.418052 -0.076565
C14   C     C_R   0.004728 0.882277 0.563764 -0.071123
C15   C     C_R   0.518742 0.382160 0.418046 -0.076658
C16   C     C_R   0.504736 0.382279 0.563758 -0.071092
C17   C     C_R   0.004699 0.990768 0.452549 -0.094737
C18   C     C_R   0.993826 0.989329 0.525057 -0.123844
C19   C     C_R   0.504708 0.490764 0.452540 -0.094725
C20   C     C_R   0.493834 0.489329 0.525049 -0.123722
C21   C     C_R   0.022128 0.771258 0.529465 0.003860
C22   C     C_R   0.016391 0.769719 0.455728 -0.013763
C23   C     C_R   0.522135 0.271257 0.529462 0.003819
C24   C     C_R   0.516399 0.269716 0.455724 -0.013688
C25   C     C_R   0.037528 0.547710 0.526409 0.008969
C26   C     C_R   0.999806 0.546806 0.465203 0.036206
C27   C     C_R   0.537530 0.047709 0.526409 0.008927
C28   C     C_R   0.499810 0.046805 0.465202 0.036230
C29   C     C_R   0.059522 0.433527 0.553463 -0.066727
C30   C     C_R   0.962445 0.436727 0.450430 -0.044926
C31   C     C_R   0.559523 0.933526 0.553464 -0.066722
C32   C     C_R   0.462448 0.936726 0.450430 -0.044941
C33   C     C_R   0.026154 0.325579 0.536765 -0.076119
C34   C     C_R   0.975302 0.327666 0.486128 -0.094365
C35   C     C_R   0.526156 0.825579 0.536765 -0.076028
C36   C     C_R   0.475305 0.827665 0.486128 -0.094394
C37   C     C_2   0.252341 0.923136 0.918057 -0.095710
C38   C     C_2   0.776041 0.854839 0.065990 -0.093464
C39   C     C_2   0.739511 0.398818 0.927457 -0.093174
C40   C     C_2   0.276098 0.354527 0.065940 -0.102609
C41   C     C_2   0.255212 0.935733 0.074255 -0.095191
C42   C     C_2   0.753692 0.890611 0.913366 -0.106779
C43   C     C_2   0.749584 0.402611 0.083651 -0.101590
C44   C     C_2   0.253707 0.390227 0.913276 -0.106530
C45   C     C_R   0.206857 0.822847 0.642789 0.571685
C46   C     C_R   0.773386 0.871507 0.353581 0.577603
C47   C     C_R   0.706856 0.322844 0.642789 0.571974
C48   C     C_R   0.273386 0.371505 0.353582 0.578128
C49   C     C_2   0.222379 0.015031 0.030913 -0.155021
C50   C     C_2   0.816168 0.899315 0.944789 -0.142603
C51   C     C_2   0.691305 0.425045 0.047671 -0.159417
C52   C     C_2   0.316210 0.398613 0.944672 -0.140627
C53   C     C_2   0.210270 0.992986 0.956720 -0.164155
C54   C     C_2   0.828029 0.861110 0.018245 -0.164510
C55   C     C_2   0.684914 0.399457 0.972867 -0.157819
C56   C     C_2   0.328051 0.360311 0.018136 -0.162573
C57   C     C_2   0.041962 0.654787 0.932359 -0.098348
C58   C     C_2   0.015063 0.665204 0.085772 -0.111734
C59   C     C_2   0.541919 0.154770 0.932371 -0.106118
C60   C     C_2   0.515191 0.165364 0.085828 -0.110838
C61   C     C_2   0.038024 0.565349 0.052014 -0.147765
C62   C     C_2   0.062172 0.567965 0.978110 -0.166275
C63   C     C_2   0.538288 0.065602 0.052090 -0.143928
C64   C     C_2   0.562470 0.068324 0.978193 -0.163811
C65   C     C_R   0.059926 0.652079 0.638062 0.531665
C66   C     C_R   0.968838 0.653658 0.354770 0.548843
C67   C     C_R   0.559926 0.152079 0.638062 0.531587
C68   C     C_R   0.468840 0.153658 0.354768 0.548617
C69   C     C_R   0.239116 0.462921 0.849921 0.549566
C70   C     C_R   0.761269 0.464969 0.149855 0.542989
C71   C     C_R   0.739106 0.963006 0.849939 0.549706
C72   C     C_R   0.262578 0.971071 0.147443 0.543219
C73   C     C_R   0.227600 0.874089 0.852121 0.566374
C74   C     C_R   0.790790 0.828151 0.139516 0.563685
C75   C     C_R   0.725420 0.369435 0.854493 0.564350
C76   C     C_R   0.290823 0.328046 0.139517 0.560450
C77   C     C_R   0.061555 0.647397 0.858273 0.574968
C78   C     C_R   0.972482 0.653172 0.149987 0.546999
C79   C     C_R   0.561544 0.147399 0.858283 0.571137
C80   C     C_R   0.472503 0.153199 0.149991 0.546875
C81   C     C_2   0.215220 0.826096 0.566686 -0.072417
C82   C     C_2   0.754593 0.904195 0.426065 -0.083531
C83   C     C_2   0.715216 0.326084 0.566684 -0.072845
C84   C     C_2   0.254596 0.404190 0.426067 -0.083569
C85   C     C_2   0.238433 0.902167 0.417388 -0.116663
C86   C     C_2   0.759855 0.910274 0.580964 -0.119146
C87   C     C_2   0.738428 0.402149 0.417381 -0.116597
C88   C     C_2   0.259857 0.410267 0.580967 -0.119183
C89   C     C_2   0.284566 0.849474 0.459479 -0.166758
C90   C     C_2   0.715960 0.838701 0.546781 -0.136407
C91   C     C_2   0.784559 0.349452 0.459472 -0.166638
C92   C     C_2   0.215960 0.338696 0.546783 -0.136479
Cr1   Cr    Cr6+3 0.113970 0.508630 0.747920 1.014372
Cr2   Cr    Cr6+3 0.886030 0.508630 0.252080 1.019874
Cr3   Cr    Cr6+3 0.613970 0.008630 0.747920 1.016271
Cr4   Cr    Cr6+3 0.386030 0.008630 0.252080 1.020973
Cr5   Cr    Cr6+3 0.269200 0.666740 0.749850 1.040591
Cr6   Cr    Cr6+3 0.730800 0.666740 0.250150 1.054999
Cr7   Cr    Cr6+3 0.769200 0.166740 0.749850 1.041581
Cr8   Cr    Cr6+3 0.230800 0.166740 0.250150 1.053483
Cr9   Cr    Cr6+3 0.112300 0.820070 0.749800 1.017324
Cr10  Cr    Cr6+3 0.887700 0.820070 0.250200 1.019884
Cr11  Cr    Cr6+3 0.612300 0.320070 0.749800 1.017262
Cr12  Cr    Cr6+3 0.387700 0.320070 0.250200 1.017687
H1    H     H_    0.334149 0.819831 0.439103 0.122910
H2    H     H_    0.675728 0.789708 0.576486 0.154669
H3    H     H_    0.834144 0.319819 0.439097 0.122908
H4    H     H_    0.175727 0.289706 0.576488 0.154452
H5    H     H_    0.162888 0.031544 0.934757 0.155411
H6    H     H_    0.881779 0.849446 0.034952 0.132098
H7    H     H_    0.631861 0.388056 0.954017 0.146489
H8    H     H_    0.381788 0.348382 0.034819 0.132170
H9    H     H_    0.279645 0.852624 0.055468 0.101710
H10   H     H_    0.710943 0.838724 0.937346 0.097679
H11   H     H_    0.792353 0.351213 0.060473 0.112397
H12   H     H_    0.210951 0.338308 0.937237 0.090849
H13   H     H_    0.301400 0.889412 0.938808 0.113509
H14   H     H_    0.721940 0.868611 0.051411 0.106558
H15   H     H_    0.793110 0.408900 0.944626 0.104288
H16   H     H_    0.222012 0.368451 0.051356 0.101971
H17   H     H_    0.034521 0.475715 0.077290 0.157977
H18   H     H_    0.091922 0.490044 0.959351 0.132692
H19   H     H_    0.534841 0.975957 0.077358 0.158318
H20   H     H_    0.592478 0.990675 0.959485 0.134239
H21   H     H_    0.021942 0.756189 0.063090 0.098328
H22   H     H_    0.010908 0.732409 0.948928 0.104868
H23   H     H_    0.522075 0.256370 0.063149 0.090608
H24   H     H_    0.510629 0.232129 0.948910 0.100908
H25   H     H_    0.187619 0.926937 0.439107 0.151500
H26   H     H_    0.807031 0.944947 0.555276 0.116988
H27   H     H_    0.687612 0.426915 0.439098 0.151606
H28   H     H_    0.307034 0.444937 0.555280 0.117035
H29   H     H_    0.174372 0.783802 0.535913 0.040005
H30   H     H_    0.783837 0.980264 0.447211 0.072139
H31   H     H_    0.674367 0.283783 0.535914 0.039895
H32   H     H_    0.283841 0.480256 0.447214 0.072185
H33   H     H_    0.999538 0.074739 0.422388 0.137074
H34   H     H_    0.976926 0.070773 0.551812 0.110197
H35   H     H_    0.499547 0.574734 0.422378 0.136923
H36   H     H_    0.476934 0.570773 0.551802 0.110292
H37   H     H_    0.028082 0.887167 0.361755 0.141662
H38   H     H_    0.992939 0.889135 0.619107 0.163073
H39   H     H_    0.528093 0.387157 0.361749 0.140922
H40   H     H_    0.492947 0.389141 0.619101 0.163218
H41   H     H_    0.918817 0.434212 0.416222 0.167843
H42   H     H_    0.097660 0.427249 0.592657 0.161394
H43   H     H_    0.418821 0.934209 0.416221 0.167770
H44   H     H_    0.597661 0.927248 0.592659 0.161362
H45   H     H_    0.039691 0.241877 0.564103 0.122421
H46   H     H_    0.945653 0.246052 0.474663 0.097790
H47   H     H_    0.539693 0.741877 0.564104 0.122620
H48   H     H_    0.445656 0.746050 0.474662 0.097813
H49   H     H_    0.198877 0.098122 0.051181 0.153359
H50   H     H_    0.859753 0.944620 0.917884 0.159533
H51   H     H_    0.647121 0.470444 0.072427 0.155394
H52   H     H_    0.359816 0.443857 0.917771 0.158505
O1    O     O_R   0.043230 0.549300 0.667990 -0.487558
O2    O     O_R   0.956770 0.549300 0.332010 -0.532281
O3    O     O_R   0.543230 0.049300 0.667990 -0.487391
O4    O     O_R   0.456770 0.049300 0.332010 -0.532429
O5    O     O_R   0.262920 0.788600 0.824420 -0.489064
O6    O     O_R   0.737080 0.788600 0.175580 -0.496963
O7    O     O_R   0.762920 0.288600 0.824420 -0.484543
O8    O     O_R   0.237080 0.288600 0.175580 -0.502382
O9    O     O_R   0.167530 0.905110 0.830340 -0.519426
O10   O     O_R   0.832470 0.905110 0.169660 -0.503099
O11   O     O_R   0.667530 0.405110 0.830340 -0.516525
O12   O     O_R   0.332470 0.405110 0.169660 -0.501106
O13   O     O_R   0.054010 0.748440 0.822860 -0.490529
O14   O     O_R   0.945990 0.748440 0.177140 -0.518691
O15   O     O_R   0.554010 0.248440 0.822860 -0.494731
O16   O     O_R   0.445990 0.248440 0.177140 -0.520216
O17   O     O_3   0.165160 0.665150 0.749190 -0.323018
O18   O     O_3   0.834840 0.665150 0.250810 -0.272077
O19   O     O_3   0.665160 0.165150 0.749190 -0.324755
O20   O     O_3   0.334840 0.165150 0.250810 -0.272965
O21   O     O_R   0.178620 0.457600 0.674100 -0.540379
O22   O     O_R   0.821380 0.457600 0.325900 -0.512143
O23   O     O_R   0.678620 0.957600 0.674100 -0.540096
O24   O     O_R   0.321380 0.957600 0.325900 -0.511573
O25   O     O_R   0.284680 0.542100 0.669460 -0.515274
O26   O     O_R   0.715320 0.542100 0.330540 -0.480326
O27   O     O_R   0.784680 0.042100 0.669460 -0.515609
O28   O     O_R   0.215320 0.042100 0.330540 -0.478824
O29   O     O_R   0.262860 0.790390 0.676650 -0.457562
O30   O     O_R   0.737140 0.790390 0.323350 -0.450109
O31   O     O_R   0.762860 0.290390 0.676650 -0.456747
O32   O     O_R   0.237140 0.290390 0.323350 -0.449549
O33   O     O_R   0.167460 0.907030 0.670940 -0.494694
O34   O     O_R   0.832540 0.907030 0.329060 -0.517637
O35   O     O_R   0.667460 0.407030 0.670940 -0.492963
O36   O     O_R   0.332540 0.407030 0.329060 -0.517424
O37   O     O_R   0.053950 0.750220 0.675100 -0.522083
O38   O     O_R   0.946050 0.750220 0.324900 -0.509650
O39   O     O_R   0.553950 0.250220 0.675100 -0.521715
O40   O     O_R   0.446050 0.250220 0.324900 -0.509780
O41   O     O_R   0.043300 0.547370 0.827390 -0.485009
O42   O     O_R   0.956700 0.547370 0.172610 -0.507378
O43   O     O_R   0.543300 0.047370 0.827390 -0.481774
O44   O     O_R   0.456700 0.047370 0.172610 -0.506893
O45   O     O_R   0.178690 0.455820 0.821860 -0.515526
O46   O     O_R   0.821310 0.455820 0.178140 -0.501348
O47   O     O_R   0.678690 0.955820 0.821860 -0.514406
O48   O     O_R   0.321310 0.955820 0.178140 -0.497885
O49   O     O_R   0.284750 0.540170 0.828860 -0.507566
O50   O     O_R   0.715250 0.540170 0.171140 -0.523613
O51   O     O_R   0.784750 0.040170 0.828860 -0.507579
O52   O     O_R   0.215250 0.040170 0.171140 -0.524671
I1    I     I_    0.348691 0.974640 0.589238 -0.304472
I2    I     I_    0.643063 0.697802 0.435464 -0.407877
I3    I     I_    0.848684 0.474641 0.589220 -0.303620
I4    I     I_    0.143060 0.197806 0.435463 -0.407452

loop_
_geom_bond_atom_site_label_1
_geom_bond_atom_site_label_2
_ccdc_geom_bond_type
C70   O46   A    
C7    C83   D    
C14   H38   S    
Cr10  O14   S    
C6    C82   D    
C87   C91   D    
Cr3   O23   S    
C14   C18   A    
Cr9   O17   S    
C35   C36   A    
C74   O10   A    
C43   C51   D    
Cr7   O31   S    
Cr8   O52   S    
C57   C62   D    
Cr12  O20   S    
C32   H43   S    
Cr11  O11   S    
C75   O11   A    
C12   C23   A    
C51   H51   S    
C59   C64   D    
C50   C54   S    
Cr11  O39   S    
C60   C63   D    
Cr3   O3    S    
C32   C36   A    
C14   C21   A    
C75   O7    A    
C16   H40   S    
C46   O34   A    
C48   O32   A    
Cr9   O33   S    
C2    O26   A    
Cr6   O18   S    
C49   C53   S    
C9    C22   A    
Cr5   O29   S    
Cr3   O47   S    
C80   O44   A    
C29   C33   A    
C11   C24   A    
C78   O14   A    
C54   H6    S    
C61   H17   S    
Cr2   O22   S    
C79   O15   A    
C18   H34   S    
C3    O23   A    
C9    C66   S    
Cr3   O19   S    
C43   H11   S    
C46   C82   S    
C1    O21   A    
C92   H4    S    
C39   C55   D    
C88   C92   D    
C40   C56   D    
C71   O47   A    
Cr8   O20   S    
C73   O5    A    
C23   C24   A    
C29   H42   S    
Cr9   O13   S    
C8    C92   S    
C13   H37   S    
Cr1   O45   S    
Cr7   O27   S    
C72   O48   A    
C37   C53   D    
C69   O49   A    
C44   C52   D    
C1    C88   S    
C71   O51   A    
Cr10  O10   S    
C21   C22   A    
C3    C86   S    
Cr11  O15   S    
Cr8   O32   S    
C61   C62   S    
C35   H47   S    
C4    O24   A    
C67   O39   A    
Cr10  O38   S    
C41   C49   D    
Cr6   O6    S    
Cr9   O37   S    
C9    C26   A    
Cr4   O48   S    
C65   O37   A    
C10   C21   A    
C25   C29   A    
C69   O45   A    
C12   C67   S    
C45   C81   S    
C79   O43   A    
C30   C34   A    
C12   C27   A    
C27   C31   A    
C57   C77   S    
C28   C32   A    
Cr5   O17   S    
C90   H2    S    
C72   O52   A    
C86   C90   D    
C59   C79   S    
C57   H22   S    
C74   O6    A    
Cr1   O21   S    
C86   H26   S    
C4    C85   S    
C51   C55   S    
C59   H24   S    
C64   H20   S    
Cr4   O24   S    
C48   C84   S    
C53   H5    S    
Cr7   O51   S    
Cr2   O42   S    
C88   H28   S    
C82   H30   S    
C15   C19   A    
C42   H10   S    
Cr8   O8    S    
C15   H39   S    
C85   H25   S    
Cr12  O12   S    
C5    C81   D    
C7    I3    S    
C38   C54   D    
C16   C20   A    
C7    C91   S    
Cr11  O19   S    
C17   C18   A    
Cr12  O40   S    
Cr7   O19   S    
C2    C87   S    
C68   O40   A    
C85   C89   D    
C46   O30   A    
Cr1   O1    S    
C66   O2    A    
C87   H27   S    
C42   C50   D    
C41   C72   S    
Cr2   O46   S    
C31   H44   S    
C50   H50   S    
C10   C25   A    
C65   O1    A    
C15   C24   A    
C40   H16   S    
C73   O9    A    
Cr2   O18   S    
C26   C30   A    
C16   C23   A    
C39   C75   S    
C6    C90   S    
Cr7   O7    S    
C76   O8    A    
Cr11  O35   S    
C80   O16   A    
C47   O31   A    
C68   O4    A    
Cr12  O16   S    
C62   H18   S    
C11   C68   S    
C30   H41   S    
C38   C74   S    
C10   C65   S    
C49   H49   S    
Cr4   O44   S    
C77   O13   A    
C37   C73   S    
C60   C80   S    
C1    O25   A    
Cr4   O20   S    
C55   H7    S    
C8    C84   D    
C83   H31   S    
C81   H29   S    
C60   H23   S    
C36   H48   S    
C48   O36   A    
C41   H9    S    
C47   C83   S    
Cr2   O2    S    
C63   H19   S    
Cr5   O25   S    
Cr10  O18   S    
C6    I2    S    
C70   O50   A    
Cr6   O26   S    
C43   C70   S    
C5    I1    S    
Cr5   O5    S    
C13   C17   A    
C20   H36   S    
C19   C20   A    
C17   H33   S    
Cr4   O4    S    
C25   C26   A    
Cr6   O30   S    
C8    I4    S    
Cr9   O9    S    
C45   O29   A    
C3    O27   A    
C11   C28   A    
C58   C61   D    
C39   H15   S    
Cr1   O41   S    
Cr1   O17   S    
C42   C71   S    
Cr10  O34   S    
C33   H45   S    
C33   C34   A    
C13   C22   A    
C76   O12   A    
C78   O42   A    
C31   C35   A    
C34   H46   S    
C47   O35   A    
C52   H52   S    
Cr8   O28   S    
C4    O28   A    
C58   C78   S    
C63   C64   S    
C38   H14   S    
C40   C76   S    
C37   H13   S    
C44   H12   S    
C58   H21   S    
Cr3   O43   S    
C89   H1    S    
C27   C28   A    
C45   O33   A    
C44   C69   S    
Cr6   O50   S    
C67   O3    A    
C2    O22   A    
Cr5   O49   S    
C66   O38   A    
C77   O41   A    
C56   H8    S    
C19   H35   S    
C5    C89   S    
C52   C56   S    
C84   H32   S    
C91   H3    S    
Cr12  O36   S    
