data_mof_unit_61922.cif
_audit_creation_date              2012-12-10T18:26:59-0500
_audit_creation_method            fapswitch 2.2
_symmetry_space_group_name_H-M    P1
_symmetry_Int_Tables_number       1
_space_group_crystal_system       triclinic
_cell_length_a                    24.137802
_cell_length_b                    24.560686
_cell_length_c                    16.102041
_cell_angle_alpha                 90.241119
_cell_angle_beta                  100.861858
_cell_angle_gamma                 89.967751
_cell_volume                      9374.84478451

loop_
_atom_site_label
_atom_site_type_symbol
_atom_type_description
_atom_site_fract_x
_atom_site_fract_y
_atom_site_fract_z
_atom_type_partial_charge
C1    C     C_R   0.425556 0.076020 0.488726 0.875165
C2    C     C_R   0.576445 0.926135 0.511714 0.799916
C3    C     C_R   0.574184 0.076244 0.511585 0.862793
C4    C     C_R   0.423801 0.925932 0.488083 0.801580
C5    C     C_R   0.925554 0.576019 0.488725 0.875093
C6    C     C_R   0.076446 0.426137 0.511714 0.799929
C7    C     C_R   0.074185 0.576244 0.511585 0.862753
C8    C     C_R   0.923802 0.425932 0.488083 0.801599
C9    C     C_R   0.463183 0.996911 0.830390 -0.235632
C10   C     C_R   0.536323 0.004706 0.169211 -0.239071
C11   C     C_R   0.963183 0.496910 0.830389 -0.235636
C12   C     C_R   0.036322 0.504712 0.169211 -0.239080
C13   C     C_R   0.515583 0.997281 0.886166 0.168763
C14   C     C_R   0.483828 0.004037 0.113717 0.169617
C15   C     C_R   0.015582 0.497282 0.886166 0.168756
C16   C     C_R   0.983827 0.504037 0.113717 0.169617
C17   C     C_R   0.565030 0.998710 0.852167 -0.247779
C18   C     C_R   0.434545 0.001988 0.148061 -0.249015
C19   C     C_R   0.065029 0.498713 0.852167 -0.247779
C20   C     C_R   0.934544 0.501982 0.148061 -0.249015
C21   C     C_R   0.561367 0.000224 0.764583 0.107133
C22   C     C_R   0.438507 0.999867 0.235695 0.106331
C23   C     C_R   0.061367 0.500226 0.764583 0.107152
C24   C     C_R   0.938507 0.499861 0.235695 0.106345
C25   C     C_2   0.520651 0.994263 0.979418 -0.175932
C26   C     C_2   0.478594 0.007239 0.020443 -0.175433
C27   C     C_2   0.020651 0.494265 0.979418 -0.175932
C28   C     C_2   0.978592 0.507238 0.020443 -0.175435
C29   C     C_R   0.375373 0.889683 0.478821 -0.102445
C30   C     C_R   0.614214 0.121644 0.519891 -0.101393
C31   C     C_R   0.624467 0.889256 0.520560 -0.108648
C32   C     C_R   0.383751 0.119842 0.481638 -0.129705
C33   C     C_R   0.875374 0.389681 0.478821 -0.102447
C34   C     C_R   0.114220 0.621641 0.519892 -0.101415
C35   C     C_R   0.124474 0.389265 0.520562 -0.108647
C36   C     C_R   0.883742 0.619834 0.481634 -0.129740
C37   C     C_R   0.383905 0.833690 0.473325 -0.175893
C38   C     C_R   0.655271 0.121357 0.469221 -0.179091
C39   C     C_R   0.617450 0.835373 0.544047 -0.175233
C40   C     C_R   0.344804 0.118626 0.535904 -0.151350
C41   C     C_R   0.883912 0.333688 0.473347 -0.175899
C42   C     C_R   0.155259 0.621365 0.469193 -0.179049
C43   C     C_R   0.117467 0.335381 0.544052 -0.175233
C44   C     C_R   0.844795 0.618614 0.535898 -0.151274
C45   C     C_R   0.338650 0.798189 0.468603 -0.115006
C46   C     C_R   0.696759 0.160996 0.479497 -0.142651
C47   C     C_R   0.662443 0.799227 0.552438 -0.115072
C48   C     C_R   0.302170 0.156989 0.528528 -0.115979
C49   C     C_R   0.838658 0.298185 0.468619 -0.115003
C50   C     C_R   0.196751 0.661001 0.479468 -0.142686
C51   C     C_R   0.162466 0.299242 0.552447 -0.115110
C52   C     C_R   0.802154 0.656970 0.528516 -0.115984
C53   C     C_R   0.284679 0.818346 0.471175 0.096617
C54   C     C_R   0.696004 0.203602 0.537131 0.106324
C55   C     C_R   0.714843 0.816710 0.537364 0.096539
C56   C     C_R   0.299121 0.198741 0.469187 0.095059
C57   C     C_R   0.784682 0.318341 0.471162 0.096622
C58   C     C_R   0.196018 0.703590 0.537138 0.106331
C59   C     C_R   0.214863 0.316732 0.537372 0.096540
C60   C     C_R   0.799099 0.698720 0.469169 0.095047
C61   C     C_R   0.275295 0.874777 0.475655 0.174408
C62   C     C_R   0.653792 0.206005 0.586742 0.181845
C63   C     C_R   0.723310 0.871443 0.517516 0.181737
C64   C     C_R   0.338391 0.201454 0.414649 0.180372
C65   C     C_R   0.775293 0.374771 0.475621 0.174425
C66   C     C_R   0.153824 0.705981 0.586782 0.181803
C67   C     C_R   0.223321 0.371466 0.517521 0.181776
C68   C     C_R   0.838367 0.701435 0.414630 0.180366
C69   C     C_R   0.320836 0.910762 0.477850 -0.054321
C70   C     C_R   0.612950 0.164378 0.579101 -0.071261
C71   C     C_R   0.677928 0.908085 0.509559 -0.044857
C72   C     C_R   0.380886 0.161526 0.420309 -0.070944
C73   C     C_R   0.820834 0.410758 0.477825 -0.054338
C74   C     C_R   0.112976 0.664360 0.579133 -0.071236
C75   C     C_R   0.177933 0.408102 0.509562 -0.044878
C76   C     C_R   0.880869 0.661515 0.420298 -0.070942
C77   C     C_2   0.238497 0.779486 0.471856 -0.144502
C78   C     C_2   0.738120 0.247274 0.540708 -0.138253
C79   C     C_2   0.759472 0.776307 0.535711 -0.149564
C80   C     C_2   0.256227 0.241335 0.468669 -0.137891
C81   C     C_2   0.738501 0.279480 0.471835 -0.144507
C82   C     C_2   0.238134 0.747262 0.540715 -0.138245
C83   C     C_2   0.259498 0.276334 0.535719 -0.149569
C84   C     C_2   0.756203 0.741313 0.468654 -0.137890
C85   C     C_R   0.461499 0.998549 0.743419 0.101628
C86   C     C_R   0.538292 0.002439 0.256182 0.104161
C87   C     C_R   0.961498 0.498547 0.743419 0.101619
C88   C     C_R   0.038292 0.502445 0.256181 0.104143
Cu1   Cu    Cu3+1 0.495980 1.000000 0.415120 1.016733
Cu2   Cu    Cu3+1 0.504020 1.000000 0.584880 0.989539
Cu3   Cu    Cu3+1 0.995980 0.500000 0.415120 1.016733
Cu4   Cu    Cu3+1 0.004020 0.500000 0.584880 0.989530
H1    H     H_    0.425715 0.817522 0.473564 0.140193
H2    H     H_    0.656014 0.089712 0.422557 0.192703
H3    H     H_    0.576813 0.821120 0.554342 0.142828
H4    H     H_    0.346719 0.087160 0.583277 0.188042
H5    H     H_    0.925724 0.317521 0.473605 0.140188
H6    H     H_    0.155987 0.589732 0.422505 0.192719
H7    H     H_    0.076832 0.321122 0.554348 0.142826
H8    H     H_    0.846715 0.587150 0.583276 0.188019
H9    H     H_    0.575607 0.008284 0.146747 0.142556
H10   H     H_    0.423767 0.994073 0.852644 0.141254
H11   H     H_    0.075605 0.508295 0.146746 0.142554
H12   H     H_    0.923767 0.494070 0.852644 0.141252
H13   H     H_    0.728819 0.159436 0.440623 0.145372
H14   H     H_    0.345786 0.754754 0.465033 0.142572
H15   H     H_    0.272169 0.155081 0.570740 0.149381
H16   H     H_    0.656088 0.757100 0.568016 0.144777
H17   H     H_    0.228797 0.659451 0.440569 0.145378
H18   H     H_    0.845797 0.254750 0.465066 0.142572
H19   H     H_    0.772153 0.655060 0.570728 0.149381
H20   H     H_    0.156118 0.257114 0.568027 0.144771
H21   H     H_    0.421259 0.997966 0.700357 0.142799
H22   H     H_    0.578566 0.003495 0.298848 0.179571
H23   H     H_    0.921259 0.497962 0.700356 0.142783
H24   H     H_    0.078565 0.503505 0.298847 0.179573
H25   H     H_    0.400620 0.998568 0.262396 0.159715
H26   H     H_    0.599371 0.001182 0.738152 0.138812
H27   H     H_    0.900620 0.498558 0.262396 0.159738
H28   H     H_    0.099371 0.501186 0.738153 0.138823
H29   H     H_    0.438181 0.020457 0.984948 0.152038
H30   H     H_    0.561013 0.980958 0.014981 0.152974
H31   H     H_    0.938178 0.520452 0.984948 0.152038
H32   H     H_    0.061013 0.480964 0.014982 0.152975
H33   H     H_    0.606168 0.998646 0.893077 0.147936
H34   H     H_    0.393320 0.001992 0.107394 0.150186
H35   H     H_    0.106168 0.498652 0.893077 0.147941
H36   H     H_    0.893319 0.501981 0.107395 0.150188
N1    N     N_R   0.510090 1.000000 0.712400 -0.189834
N2    N     N_R   0.489910 1.000000 0.287600 -0.193884
N3    N     N_R   0.010090 0.500000 0.712400 -0.189836
N4    N     N_R   0.989910 0.500000 0.287600 -0.193885
O1    O     O_R   0.439420 0.056820 0.420010 -0.575715
O2    O     O_R   0.560580 0.943180 0.579990 -0.588391
O3    O     O_R   0.560580 0.056820 0.579990 -0.591947
O4    O     O_R   0.439420 0.943180 0.420010 -0.564715
O5    O     O_R   0.939420 0.556820 0.420010 -0.575707
O6    O     O_R   0.060580 0.443180 0.579990 -0.588394
O7    O     O_R   0.060580 0.556820 0.579990 -0.591948
O8    O     O_R   0.939420 0.443180 0.420010 -0.564700
O9    O     O_R   0.446220 0.056810 0.563370 -0.574839
O10   O     O_R   0.553780 0.943190 0.436630 -0.554862
O11   O     O_R   0.553780 0.056810 0.436630 -0.558289
O12   O     O_R   0.446220 0.943190 0.563370 -0.587143
O13   O     O_R   0.946220 0.556810 0.563370 -0.574853
O14   O     O_R   0.053780 0.443190 0.436630 -0.554846
O15   O     O_R   0.053780 0.556810 0.436630 -0.558304
O16   O     O_R   0.946220 0.443190 0.563370 -0.587150
C89   C     C_2   0.567694 0.167325 0.629685 0.904978
O17   O     O_2   0.518212 0.166530 0.594287 -0.551222
O18   O     O_R   0.581715 0.170434 0.717844 -0.728846
H37   H     H_    0.547222 0.171802 0.745277 0.346335
C90   C     C_2   0.310978 0.970098 0.474890 0.829167
O19   O     O_2   0.294436 0.993114 0.533096 -0.582821
O20   O     O_R   0.319453 0.999275 0.404052 -0.756776
H38   H     H_    0.307437 0.038710 0.405836 0.337446
C91   C     C_2   0.423488 0.165162 0.365229 0.909064
O21   O     O_2   0.473688 0.167061 0.396703 -0.546843
O22   O     O_R   0.406197 0.165671 0.277366 -0.730950
H39   H     H_    0.439136 0.167712 0.246641 0.345380
C92   C     C_2   0.687089 0.965873 0.491339 0.825932
O23   O     O_2   0.662202 0.986066 0.425654 -0.623331
O24   O     O_R   0.725301 0.996752 0.548731 -0.725625
H40   H     H_    0.729621 0.035206 0.528392 0.338920
C93   C     C_2   0.067733 0.667299 0.629739 0.904992
O25   O     O_2   0.018248 0.666552 0.594356 -0.551171
O26   O     O_R   0.081771 0.670343 0.717902 -0.728868
H41   H     H_    0.047285 0.671705 0.745353 0.346316
C94   C     C_2   0.810972 0.470094 0.474846 0.829159
O27   O     O_2   0.794408 0.493114 0.533029 -0.582794
O28   O     O_R   0.819470 0.499267 0.404017 -0.756780
H42   H     H_    0.807448 0.538701 0.405784 0.337453
C95   C     C_2   0.923470 0.665153 0.365217 0.909064
O29   O     O_2   0.973667 0.667088 0.396692 -0.546829
O30   O     O_R   0.906179 0.665623 0.277353 -0.730958
H43   H     H_    0.939117 0.667667 0.246629 0.345371
C96   C     C_2   0.187085 0.465892 0.491342 0.825934
O31   O     O_2   0.162188 0.486086 0.425666 -0.623347
O32   O     O_R   0.225303 0.496773 0.548724 -0.725607
H44   H     H_    0.229616 0.535228 0.528385 0.338937
C97   C     C_2   0.280615 0.751827 0.621059 0.891017
O33   O     O_2   0.304949 0.794792 0.642095 -0.565017
O34   O     O_R   0.290936 0.706725 0.674488 -0.737032
H45   H     H_    0.319792 0.714588 0.727592 0.349710
C98   C     C_2   0.694214 0.277108 0.393282 0.892285
O35   O     O_2   0.646005 0.262863 0.395773 -0.542650
O36   O     O_R   0.707661 0.293759 0.316520 -0.741478
H46   H     H_    0.674326 0.291286 0.267820 0.351474
C99   C     C_2   0.709489 0.742044 0.392954 0.894809
O37   O     O_2   0.682391 0.783461 0.371984 -0.568145
O38   O     O_R   0.698161 0.694947 0.343534 -0.736652
H47   H     H_    0.666327 0.700173 0.293290 0.350010
C100  C     C_2   0.307413 0.277329 0.609643 0.895821
O39   O     O_2   0.354315 0.261039 0.603200 -0.545550
O40   O     O_R   0.298871 0.299480 0.686394 -0.739117
H48   H     H_    0.334279 0.298864 0.731697 0.351677
C101  C     C_2   0.780579 0.251860 0.621072 0.891027
O41   O     O_2   0.804911 0.294829 0.642090 -0.565025
O42   O     O_R   0.790881 0.206774 0.674539 -0.737036
H49   H     H_    0.819722 0.214652 0.727653 0.349706
C102  C     C_2   0.194190 0.777135 0.393327 0.892291
O43   O     O_2   0.145983 0.762895 0.395844 -0.542628
O44   O     O_R   0.207613 0.793800 0.316557 -0.741475
H50   H     H_    0.174266 0.791339 0.267875 0.351479
C103  C     C_2   0.209508 0.242057 0.392975 0.894796
O45   O     O_2   0.182413 0.283475 0.371993 -0.568137
O46   O     O_R   0.198171 0.194952 0.343578 -0.736667
H51   H     H_    0.166331 0.200172 0.293339 0.350008
C104  C     C_2   0.807382 0.777292 0.609642 0.895801
O47   O     O_2   0.854289 0.761015 0.603197 -0.545523
O48   O     O_R   0.798829 0.799417 0.686404 -0.739128
H52   H     H_    0.834235 0.798795 0.731712 0.351676
I1    I     I_    0.192767 0.905338 0.480554 -0.154419
I2    I     I_    0.647679 0.276034 0.664372 -0.155007
I3    I     I_    0.802914 0.897346 0.490911 -0.163987
I4    I     I_    0.337276 0.269335 0.331205 -0.161933
I5    I     I_    0.692755 0.405329 0.480468 -0.154417
I6    I     I_    0.147747 0.775981 0.664488 -0.155039
I7    I     I_    0.302920 0.397380 0.490909 -0.163991
I8    I     I_    0.837241 0.769307 0.331166 -0.161946

loop_
_geom_bond_atom_site_label_1
_geom_bond_atom_site_label_2
_ccdc_geom_bond_type
C8    O8    A    
C16   C28   S    
C22   H25   S    
C65   I5    S    
O28   H42   S    
C46   H13   S    
C83   C100  S    
C93   O25   D    
Cu4   O16   S    
C62   I2    S    
C94   O27   D    
C14   C18   A    
C53   C77   S    
O24   H40   S    
C34   C42   A    
C48   C56   A    
O44   H50   S    
Cu4   O6    S    
Cu3   O15   S    
C92   O23   D    
C98   O35   D    
C28   H31   S    
C65   C73   A    
C32   C72   A    
C103  O45   D    
C15   C19   A    
C82   C97   S    
C62   C70   A    
C2    O2    A    
C61   I1    S    
C47   C55   A    
C76   C95   S    
C68   I8    S    
C43   H7    S    
C20   H36   S    
C42   H6    S    
C79   C84   D    
Cu2   O2    S    
C98   O36   S    
C48   H15   S    
C101  O41   D    
Cu1   O10   S    
C66   C74   A    
C5    C36   S    
C97   O33   D    
C74   C93   S    
C49   C57   A    
C6    C35   S    
C30   C38   A    
C79   C104  S    
C102  O43   D    
C87   N3    A    
C101  O42   S    
C9    C13   A    
C36   C76   A    
C59   C67   A    
Cu3   O5    S    
Cu2   N1    S    
C11   C15   A    
C58   C66   A    
C91   O21   D    
O22   H39   S    
C11   C87   A    
C9    H10   S    
C96   O32   S    
C55   C63   A    
O18   H37   S    
C56   C64   A    
C11   H12   S    
C78   C101  S    
C90   O20   S    
C52   C60   A    
C25   H30   S    
C30   C70   A    
C87   H23   S    
C4    C29   S    
Cu3   Cu4   S    
C4    O4    A    
C9    C85   A    
C44   C52   A    
C31   C71   A    
C80   C103  S    
C45   C53   A    
O42   H49   S    
C93   O26   S    
Cu1   O4    S    
C22   N2    A    
C102  O44   S    
C89   O18   S    
C46   C54   A    
C8    O16   A    
C70   C89   S    
C53   C61   A    
C40   H4    S    
C80   C83   D    
C1    O1    A    
C81   C98   S    
C92   O24   S    
C29   C69   A    
C103  O46   S    
O20   H38   S    
Cu1   O1    S    
C12   C88   A    
C23   N3    A    
O38   H47   S    
C50   C58   A    
C12   C16   A    
Cu4   N3    S    
C5    O13   A    
C58   C82   S    
C10   C14   A    
C97   O34   S    
C57   C65   A    
C23   H28   S    
C86   N2    A    
O40   H48   S    
Cu3   N4    S    
C54   C62   A    
C52   H19   S    
C100  O40   S    
C25   C26   D    
C95   O29   D    
C7    O15   A    
C69   C90   S    
Cu1   N2    S    
O46   H51   S    
C2    C31   S    
C88   H24   S    
C3    C30   S    
C19   C23   A    
O34   H45   S    
C21   H26   S    
C85   N1    A    
C55   C79   S    
C24   N4    A    
C47   H16   S    
C15   C27   S    
O48   H52   S    
C51   H20   S    
C16   C20   A    
C21   N1    A    
C38   H2    S    
C104  O47   D    
C37   H1    S    
C84   C99   S    
C14   C26   S    
C6    O6    A    
C39   H3    S    
C63   C71   A    
C95   O30   S    
C42   C50   A    
C33   C73   A    
C26   H29   S    
C34   C74   A    
C50   H17   S    
C2    O10   A    
C7    C34   S    
C41   H5    S    
C36   C44   A    
C51   C59   A    
C60   C84   S    
C88   N4    A    
C37   C45   A    
O26   H41   S    
C32   C40   A    
C35   C43   A    
C45   H14   S    
C39   C47   A    
C94   O28   S    
C61   C69   A    
C40   C48   A    
C10   C86   A    
C24   H27   S    
C71   C92   S    
Cu4   O13   S    
C18   C22   A    
C96   O31   D    
C64   I4    S    
C10   H9    S    
C35   C75   A    
C59   C83   S    
C13   C25   S    
C77   C102  S    
C4    O12   A    
C27   H32   S    
C5    O5    A    
O32   H44   S    
C68   C76   A    
C41   C49   A    
C56   C80   S    
C13   C17   A    
C86   H22   S    
C33   C41   A    
C67   I7    S    
Cu1   Cu2   S    
O36   H46   S    
C66   I6    S    
O30   H43   S    
Cu1   O11   S    
C89   O17   D    
C18   H34   S    
C7    O7    A    
Cu2   O3    S    
C44   H8    S    
C78   C81   D    
C17   H33   S    
C12   H11   S    
C77   C82   D    
C43   C51   A    
C6    O14   A    
C85   H21   S    
C104  O48   S    
C31   C39   A    
C3    O3    A    
C8    C33   S    
C64   C72   A    
C99   O37   D    
C75   C96   S    
C57   C81   S    
C17   C21   A    
C38   C46   A    
Cu2   O9    S    
C1    O9    A    
C72   C91   S    
Cu3   O8    S    
C1    C32   S    
C67   C75   A    
C60   C68   A    
C91   O22   S    
C100  O39   D    
C29   C37   A    
C27   C28   D    
C49   H18   S    
C19   H35   S    
C63   I3    S    
C90   O19   D    
Cu4   O7    S    
C73   C94   S    
C20   C24   A    
Cu3   O14   S    
Cu2   O12   S    
C3    O11   A    
C99   O38   S    
C54   C78   S    
