data_mof_unit_65583.cif
_audit_creation_date              2012-12-10T18:05:45-0500
_audit_creation_method            fapswitch 2.2
_symmetry_space_group_name_H-M    P1
_symmetry_Int_Tables_number       1
_space_group_crystal_system       triclinic
_cell_length_a                    25.981212
_cell_length_b                    25.980445
_cell_length_c                    22.214738
_cell_angle_alpha                 89.999977
_cell_angle_beta                  54.218087
_cell_angle_gamma                 89.999977
_cell_volume                      12164.6904086

loop_
_atom_site_label
_atom_site_type_symbol
_atom_type_description
_atom_site_fract_x
_atom_site_fract_y
_atom_site_fract_z
_atom_type_partial_charge
C1    C     C_R   0.400344 0.250017 0.699356 0.826509
C2    C     C_3   0.229881 0.713874 0.974194 -0.338749
C3    C     C_3   0.247014 0.203951 0.975740 -0.025680
C4    C     C_3   0.747678 0.296261 0.975741 -0.025684
C5    C     C_3   0.252329 0.703741 0.024259 -0.025667
C6    C     C_3   0.252986 0.296048 0.024260 -0.025680
C7    C     C_3   0.748680 0.703437 0.975741 -0.025662
C8    C     C_3   0.690515 0.260273 0.024231 -0.022697
C9    C     C_3   0.309486 0.739733 0.975769 -0.022607
C10   C     C_3   0.309627 0.259591 0.975769 -0.022635
C11   C     C_3   0.690749 0.738707 0.024231 -0.022681
C12   C     C_3   0.190514 0.760267 0.024231 -0.022607
C13   C     C_3   0.230399 0.286592 0.974194 -0.338720
C14   C     C_3   0.809484 0.239726 0.975769 -0.022697
C15   C     C_3   0.809251 0.761293 0.975769 -0.022681
C16   C     C_3   0.190373 0.240409 0.024231 -0.022635
C17   C     C_1   0.639242 0.249986 0.221430 -0.086059
C18   C     C_1   0.360758 0.750014 0.778570 -0.086105
C19   C     C_1   0.360757 0.249985 0.778570 -0.086079
C20   C     C_1   0.639241 0.750012 0.221431 -0.086084
C21   C     C_1   0.139242 0.749986 0.221430 -0.086105
C22   C     C_1   0.860758 0.250014 0.778570 -0.086058
C23   C     C_1   0.860759 0.749988 0.778569 -0.086084
C24   C     C_3   0.770895 0.714600 0.025806 -0.338712
C25   C     C_1   0.139243 0.250015 0.221430 -0.086080
C26   C     C_2   0.624373 0.271817 0.048821 0.385947
C27   C     C_2   0.375630 0.728197 0.951178 0.385808
C28   C     C_2   0.375931 0.270359 0.951179 0.385847
C29   C     C_2   0.624868 0.726002 0.048822 0.385930
C30   C     C_2   0.124369 0.771803 0.048822 0.385807
C31   C     C_2   0.875627 0.228183 0.951178 0.385947
C32   C     C_2   0.875132 0.773998 0.951178 0.385930
C33   C     C_2   0.124069 0.229641 0.048821 0.385847
C34   C     C_2   0.243681 0.848858 0.951116 0.390173
C35   C     C_3   0.270119 0.786125 0.025805 -0.338749
C36   C     C_2   0.756305 0.151137 0.048884 0.390212
C37   C     C_2   0.754166 0.849503 0.048883 0.390118
C38   C     C_2   0.242278 0.151590 0.951114 0.390239
C39   C     C_2   0.743695 0.348863 0.951116 0.390212
C40   C     C_2   0.256319 0.651142 0.048884 0.390173
C41   C     C_2   0.257722 0.348410 0.048886 0.390239
C42   C     C_2   0.745834 0.650497 0.951117 0.390118
C43   C     C_3   0.729876 0.213879 0.974194 -0.338682
C44   C     C_3   0.729104 0.785399 0.974194 -0.338712
C45   C     C_3   0.269601 0.213408 0.025805 -0.338720
C46   C     C_3   0.712813 0.249677 0.073760 0.151082
C47   C     C_3   0.287187 0.750323 0.926240 0.151092
C48   C     C_3   0.287182 0.249673 0.926240 0.151085
C49   C     C_R   0.599656 0.749983 0.300644 0.826546
C50   C     C_3   0.712806 0.750316 0.073760 0.151090
C51   C     C_3   0.212813 0.749677 0.073760 0.151092
C52   C     C_3   0.787187 0.250323 0.926240 0.151082
C53   C     C_3   0.787194 0.749684 0.926240 0.151090
C54   C     C_3   0.212818 0.250327 0.073760 0.151085
C55   C     C_1   0.672477 0.249883 0.154787 0.085040
C56   C     C_1   0.327523 0.750117 0.845213 0.085015
C57   C     C_1   0.327521 0.249881 0.845213 0.085026
C58   C     C_1   0.672473 0.750114 0.154787 0.085030
C59   C     C_1   0.172477 0.749883 0.154787 0.085015
C60   C     C_R   0.599656 0.250017 0.300644 0.826534
C61   C     C_1   0.827523 0.250117 0.845213 0.085040
C62   C     C_1   0.827526 0.749886 0.845213 0.085030
C63   C     C_1   0.172479 0.250119 0.154787 0.085026
C64   C     C_R   0.300333 0.216707 0.452745 -0.174858
C65   C     C_R   0.699667 0.783293 0.547254 -0.174978
C66   C     C_R   0.699667 0.216707 0.547255 -0.174916
C67   C     C_R   0.300332 0.783294 0.452747 -0.174922
C68   C     C_R   0.800333 0.716706 0.452746 -0.174978
C69   C     C_R   0.199667 0.283293 0.547255 -0.174858
C70   C     C_R   0.199668 0.716706 0.547253 -0.174922
C71   C     C_R   0.400344 0.749983 0.699356 0.826519
C72   C     C_R   0.800333 0.283293 0.452745 -0.174916
C73   C     C_R   0.246942 0.216689 0.452741 -0.180373
C74   C     C_R   0.753058 0.783312 0.547258 -0.180587
C75   C     C_R   0.753058 0.216689 0.547259 -0.180493
C76   C     C_R   0.246941 0.783312 0.452743 -0.180432
C77   C     C_R   0.746942 0.716688 0.452742 -0.180587
C78   C     C_R   0.253058 0.283311 0.547259 -0.180373
C79   C     C_R   0.253059 0.716687 0.547257 -0.180432
C80   C     C_R   0.746942 0.283311 0.452741 -0.180493
C81   C     C_R   0.196320 0.249982 0.499995 0.002304
C82   C     C_R   0.900344 0.750017 0.699356 0.826546
C83   C     C_R   0.803680 0.750018 0.500005 0.002352
C84   C     C_R   0.803680 0.249982 0.500005 0.002299
C85   C     C_R   0.196320 0.750018 0.499995 0.002367
C86   C     C_R   0.696320 0.749982 0.499995 0.002352
C87   C     C_R   0.303680 0.250018 0.500005 0.002304
C88   C     C_R   0.303680 0.749982 0.500005 0.002367
C89   C     C_R   0.696320 0.250018 0.499995 0.002299
C90   C     C_R   0.490373 0.026699 0.452703 -0.172720
C91   C     C_R   0.509627 0.973301 0.547297 -0.172802
C92   C     C_R   0.509627 0.026699 0.547297 -0.172812
C93   C     C_R   0.099656 0.249983 0.300644 0.826509
C94   C     C_R   0.490373 0.973301 0.452703 -0.172694
C95   C     C_R   0.990373 0.526699 0.452703 -0.172802
C96   C     C_R   0.009627 0.473301 0.547297 -0.172720
C97   C     C_R   0.009627 0.526699 0.547297 -0.172694
C98   C     C_R   0.990373 0.473301 0.452703 -0.172811
C99   C     C_R   0.500000 0.946311 0.500000 -0.000123
C100  C     C_R   0.500000 0.053689 0.500000 -0.000110
C101  C     C_R   1.000000 0.446311 0.500000 -0.000110
C102  C     C_R   1.000000 0.553689 0.500000 -0.000123
C103  C     C_R   0.640230 0.250032 0.499989 0.795776
C104  C     C_R   0.099656 0.750017 0.300644 0.826519
C105  C     C_R   0.359770 0.749968 0.500011 0.795910
C106  C     C_R   0.359769 0.250032 0.500011 0.795924
C107  C     C_R   0.640230 0.749968 0.499989 0.795712
C108  C     C_R   0.140230 0.750032 0.499989 0.795910
C109  C     C_R   0.859769 0.249968 0.500011 0.795776
C110  C     C_R   0.859770 0.750032 0.500011 0.795712
C111  C     C_R   0.140230 0.249968 0.499989 0.795924
C112  C     C_R   0.500000 0.109790 0.500000 0.797915
C113  C     C_R   0.500000 0.890210 0.500000 0.797845
C114  C     C_R   1.000000 0.609790 0.500000 0.797845
C115  C     C_R   0.900344 0.249983 0.699356 0.826534
C116  C     C_R   0.000000 0.390210 0.500000 0.797915
C117  C     C_R   0.500000 0.390244 0.500000 0.793624
C118  C     C_R   0.500000 0.609755 0.500000 0.793752
C119  C     C_R   0.000000 0.890244 0.500000 0.793752
C120  C     C_R   0.000000 0.109755 0.500000 0.793624
C121  C     C_R   0.556940 0.473305 0.452802 -0.183398
C122  C     C_R   0.443060 0.526694 0.547198 -0.183403
C123  C     C_R   0.443060 0.473305 0.547198 -0.183436
C124  C     C_R   0.556940 0.526694 0.452802 -0.183348
C125  C     C_R   0.056940 0.973306 0.452802 -0.183403
C126  C     C_3   0.770123 0.286121 0.025806 -0.338682
C127  C     C_R   0.943060 0.026694 0.547198 -0.183398
C128  C     C_R   0.943060 0.973306 0.547198 -0.183348
C129  C     C_R   0.056940 0.026694 0.452802 -0.183436
C130  C     C_R   0.500000 0.553674 0.500000 0.005229
C131  C     C_R   0.500000 0.446326 0.500000 0.005235
C132  C     C_R   0.000000 0.053674 0.500000 0.005235
C133  C     C_R   0.000000 0.946326 0.500000 0.005229
C134  C     C_3   0.247671 0.796259 0.975740 -0.025667
C135  C     C_3   0.752322 0.203738 0.024259 -0.025684
C136  C     C_3   0.751320 0.796563 0.024259 -0.025662
H1    H     H_    0.213367 0.684244 0.953055 0.161016
H2    H     H_    0.661117 0.809331 0.584208 0.168311
H3    H     H_    0.661116 0.190670 0.584210 0.168357
H4    H     H_    0.338881 0.809333 0.415794 0.168262
H5    H     H_    0.838883 0.690669 0.415792 0.168311
H6    H     H_    0.161117 0.309330 0.584209 0.168328
H7    H     H_    0.161118 0.690667 0.584206 0.168262
H8    H     H_    0.838884 0.309330 0.415790 0.168357
H9    H     H_    0.245362 0.190639 0.415784 0.165450
H10   H     H_    0.754639 0.809362 0.584215 0.165418
H11   H     H_    0.754638 0.190639 0.584217 0.165452
H12   H     H_    0.786642 0.315747 0.046946 0.161053
H13   H     H_    0.245360 0.809364 0.415787 0.165411
H14   H     H_    0.745361 0.690638 0.415785 0.165418
H15   H     H_    0.254638 0.309361 0.584216 0.165450
H16   H     H_    0.254640 0.690636 0.584213 0.165411
H17   H     H_    0.745362 0.309361 0.415783 0.165452
H18   H     H_    0.601468 0.453239 0.415897 0.164071
H19   H     H_    0.398532 0.546761 0.584103 0.164060
H20   H     H_    0.398532 0.453239 0.584103 0.164059
H21   H     H_    0.601468 0.546761 0.415897 0.164075
H22   H     H_    0.101468 0.953239 0.415897 0.164060
H23   H     H_    0.788046 0.685565 0.046947 0.161057
H24   H     H_    0.898532 0.046761 0.584103 0.164071
H25   H     H_    0.898532 0.953239 0.584103 0.164075
H26   H     H_    0.101468 0.046761 0.415897 0.164059
H27   H     H_    0.615295 0.278562 0.007632 0.074093
H28   H     H_    0.384710 0.721456 0.992368 0.074091
H29   H     H_    0.385104 0.276669 0.992369 0.074079
H30   H     H_    0.615943 0.718612 0.007632 0.074123
H31   H     H_    0.115290 0.778544 0.007632 0.074091
H32   H     H_    0.884705 0.221438 0.992368 0.074093
H33   H     H_    0.884057 0.781388 0.992368 0.074123
H34   H     H_    0.214309 0.316605 0.953055 0.161018
H35   H     H_    0.114896 0.223331 0.007631 0.074079
H36   H     H_    0.213716 0.877817 0.992285 0.071881
H37   H     H_    0.786265 0.122177 0.007714 0.071941
H38   H     H_    0.783486 0.878662 0.007712 0.071904
H39   H     H_    0.211894 0.122769 0.992283 0.071908
H40   H     H_    0.713734 0.377823 0.992286 0.071941
H41   H     H_    0.286284 0.622182 0.007715 0.071881
H42   H     H_    0.288106 0.377231 0.007717 0.071908
H43   H     H_    0.716513 0.621338 0.992288 0.071904
H44   H     H_    0.482845 0.046767 0.415715 0.169264
H45   H     H_    0.713358 0.184253 0.953054 0.161053
H46   H     H_    0.517155 0.953233 0.584285 0.169231
H47   H     H_    0.517155 0.046767 0.584285 0.169214
H48   H     H_    0.482845 0.953233 0.415715 0.169291
H49   H     H_    0.982845 0.546767 0.415715 0.169231
H50   H     H_    0.017155 0.453233 0.584285 0.169264
H51   H     H_    0.017155 0.546767 0.584285 0.169291
H52   H     H_    0.982845 0.453233 0.415715 0.169214
H53   H     H_    0.286633 0.815756 0.046945 0.161016
H54   H     H_    0.285691 0.183395 0.046945 0.161018
H55   H     H_    0.711954 0.814435 0.953053 0.161057
H56   H     H_    0.338883 0.190670 0.415791 0.168328
O1    O     O_3   0.500000 0.250030 0.500000 -0.486034
O2    O     O_R   0.112550 0.219620 0.335580 -0.645775
O3    O     O_R   0.112550 0.780380 0.335580 -0.645803
O4    O     O_R   0.887450 0.219620 0.664420 -0.645771
O5    O     O_R   0.594260 0.219670 0.543090 -0.644548
O6    O     O_R   0.405740 0.780330 0.456910 -0.644563
O7    O     O_R   0.405740 0.219670 0.456910 -0.644543
O8    O     O_R   0.594260 0.780330 0.543090 -0.644563
O9    O     O_R   0.094260 0.719670 0.543090 -0.644563
O10   O     O_R   0.905740 0.280330 0.456910 -0.644548
O11   O     O_R   0.905740 0.719670 0.456910 -0.644563
O12   O     O_3   0.500000 0.749970 0.500000 -0.486019
O13   O     O_R   0.094260 0.280330 0.543090 -0.644543
O14   O     O_R   0.508800 0.134220 0.543090 -0.645064
O15   O     O_R   0.491200 0.865780 0.456910 -0.645036
O16   O     O_R   0.491200 0.134220 0.456910 -0.645038
O17   O     O_R   0.508800 0.865780 0.543090 -0.645068
O18   O     O_R   0.008800 0.634220 0.543090 -0.645036
O19   O     O_R   0.991200 0.365780 0.456910 -0.645063
O20   O     O_R   0.991200 0.634220 0.456910 -0.645068
O21   O     O_R   0.008800 0.365780 0.543090 -0.645039
O22   O     O_R   0.448100 0.365830 0.543110 -0.647744
O23   O     O_3   0.000000 0.750030 0.500000 -0.486019
O24   O     O_R   0.551900 0.634170 0.456890 -0.647664
O25   O     O_R   0.551900 0.365830 0.456890 -0.647710
O26   O     O_R   0.448100 0.634170 0.543110 -0.647715
O27   O     O_R   0.948100 0.865830 0.543110 -0.647663
O28   O     O_R   0.051900 0.134170 0.456890 -0.647745
O29   O     O_R   0.051900 0.865830 0.456890 -0.647715
O30   O     O_R   0.948100 0.134170 0.543110 -0.647709
O31   O     O_R   0.637370 0.280400 0.456880 -0.647923
O32   O     O_R   0.362630 0.719600 0.543120 -0.647899
O33   O     O_R   0.362630 0.280400 0.543120 -0.647870
O34   O     O_3   1.000000 0.249970 0.500000 -0.486034
O35   O     O_R   0.637370 0.719600 0.456880 -0.647972
O36   O     O_R   0.137370 0.780400 0.456880 -0.647899
O37   O     O_R   0.862630 0.219600 0.543120 -0.647923
O38   O     O_R   0.862630 0.780400 0.543120 -0.647972
O39   O     O_R   0.137370 0.219600 0.456880 -0.647870
O40   O     O_R   0.448170 0.219660 0.664410 -0.617283
O41   O     O_R   0.551830 0.780340 0.335590 -0.617291
O42   O     O_R   0.551830 0.219660 0.335590 -0.617283
O43   O     O_R   0.448170 0.780340 0.664410 -0.617284
O44   O     O_R   0.948170 0.719660 0.664410 -0.617291
O45   O     O_R   0.387450 0.280380 0.664420 -0.645775
O46   O     O_R   0.051830 0.280340 0.335590 -0.617283
O47   O     O_R   0.051830 0.719660 0.335590 -0.617284
O48   O     O_R   0.948170 0.280340 0.664410 -0.617283
O49   O     O_2   0.580688 0.273719 0.114647 -0.556485
O50   O     O_2   0.419315 0.726297 0.885353 -0.556613
O51   O     O_2   0.419640 0.272110 0.885354 -0.556499
O52   O     O_2   0.581226 0.723872 0.114647 -0.556621
O53   O     O_2   0.080685 0.773703 0.114647 -0.556613
O54   O     O_2   0.919312 0.226281 0.885353 -0.556485
O55   O     O_2   0.918774 0.776128 0.885353 -0.556621
O56   O     O_R   0.612550 0.719620 0.335580 -0.645794
O57   O     O_2   0.080360 0.227889 0.114646 -0.556499
O58   O     O_2   0.273757 0.859407 0.885284 -0.552263
O59   O     O_2   0.726227 0.140588 0.114716 -0.552267
O60   O     O_2   0.723875 0.860107 0.114715 -0.552204
O61   O     O_2   0.272214 0.141080 0.885282 -0.552306
O62   O     O_2   0.773773 0.359412 0.885284 -0.552267
O63   O     O_2   0.226243 0.640593 0.114716 -0.552263
O64   O     O_2   0.227786 0.358920 0.114718 -0.552306
O65   O     O_2   0.776125 0.639893 0.885285 -0.552204
O66   O     O_R   0.612550 0.280380 0.335580 -0.645771
O67   O     O_R   0.387450 0.719620 0.664420 -0.645803
O68   O     O_R   0.887450 0.780380 0.664420 -0.645794
Zn1   Zn    Zn3+2 0.574170 0.293410 0.438410 0.977753
Zn2   Zn    Zn3+2 0.487410 0.793350 0.438420 0.997710
Zn3   Zn    Zn3+2 0.487410 0.206650 0.438420 0.997763
Zn4   Zn    Zn3+2 0.512590 0.793350 0.561580 0.997609
Zn5   Zn    Zn3+2 0.012590 0.706650 0.561580 0.997710
Zn6   Zn    Zn3+2 0.987410 0.293350 0.438420 0.997679
Zn7   Zn    Zn3+2 0.987410 0.706650 0.438420 0.997609
Zn8   Zn    Zn3+2 0.012590 0.293350 0.561580 0.997763
Zn9   Zn    Zn3+2 0.425830 0.706590 0.561590 0.977836
Zn10  Zn    Zn3+2 0.425830 0.293410 0.561590 0.977806
Zn11  Zn    Zn3+2 0.574170 0.706590 0.438410 0.977764
Zn12  Zn    Zn3+2 0.074170 0.793410 0.438410 0.977836
Zn13  Zn    Zn3+2 0.925830 0.206590 0.561590 0.977753
Zn14  Zn    Zn3+2 0.925830 0.793410 0.561590 0.977764
Zn15  Zn    Zn3+2 0.074170 0.206590 0.438410 0.977806
Zn16  Zn    Zn3+2 0.512590 0.206650 0.561580 0.997679

loop_
_geom_bond_atom_site_label_1
_geom_bond_atom_site_label_2
_ccdc_geom_bond_type
C78   C87   A    
C44   C136  S    
C104  O47   A    
C115  O4    A    
C36   C135  S    
C25   C93   S    
O43   Zn4   S    
C23   C82   S    
C82   O44   A    
C120  O30   A    
C76   H13   S    
C48   C57   S    
C111  O39   A    
C122  H19   S    
O40   Zn16  S    
C93   O2    A    
C8    C43   S    
C74   C83   A    
C4    C8    S    
C2    C12   S    
O12   Zn4   S    
C24   H23   S    
C80   H17   S    
C39   O62   D    
C19   C57   T    
O1    Zn16  S    
C7    C11   S    
C87   C106  S    
C41   O64   D    
C92   C100  A    
O2    Zn15  S    
O1    Zn3   S    
O16   Zn3   S    
C94   H48   S    
C4    C52   S    
C102  C114  S    
C15   C53   S    
C109  O10   A    
C30   O53   D    
C6    C54   S    
C30   H31   S    
C21   C59   T    
C116  O19   A    
C52   C61   S    
C44   H55   S    
C25   C63   T    
C107  O8    A    
O32   Zn9   S    
C43   C52   S    
O8    Zn4   S    
C14   C135  S    
C34   C134  S    
C114  O20   A    
C7    C24   S    
C95   H49   S    
C26   H27   S    
C119  O29   A    
C36   O59   D    
C8    C26   S    
O22   Zn10  S    
C72   H8    S    
C103  O5    A    
C7    C42   S    
C60   O66   A    
C80   C89   A    
O48   Zn8   S    
C127  C132  A    
C121  C124  A    
C49   O41   A    
C110  O38   A    
C103  O31   A    
C37   H38   S    
C40   O63   D    
C109  O37   A    
C44   C53   S    
C104  O3    A    
C23   C62   T    
C14   C52   S    
C66   H3    S    
C81   C111  S    
C3    C38   S    
C68   C83   A    
C6    C41   S    
C107  O35   A    
C46   C55   S    
C118  O26   A    
O23   Zn14  S    
C98   H52   S    
C64   C73   A    
C4    C39   S    
C31   O54   D    
C117  O25   A    
O45   Zn10  S    
O34   Zn13  S    
C71   O43   A    
O23   Zn12  S    
C85   C108  S    
C14   C31   S    
O24   Zn11  S    
C97   C102  A    
O67   Zn9   S    
C95   C102  A    
C18   C56   T    
C129  C132  A    
O68   Zn14  S    
O12   Zn9   S    
C70   H7    S    
C46   C135  S    
C36   H37   S    
C35   H53   S    
C12   C134  S    
C96   C101  A    
O38   Zn14  S    
O28   Zn15  S    
C119  O27   A    
O1    Zn10  S    
C21   C104  S    
C69   C78   A    
O9    Zn5   S    
C121  C131  A    
C105  O6    A    
O3    Zn12  S    
C35   C134  S    
C90   C100  A    
C79   C88   A    
C64   H56   S    
C46   C126  S    
C78   H15   S    
C90   C94   A    
C66   C89   A    
C16   C54   S    
C123  H20   S    
C24   C50   S    
C86   C107  S    
C68   C77   A    
C90   H44   S    
C26   O49   D    
O26   Zn9   S    
C1    C19   S    
C121  H18   S    
C32   O55   D    
O47   Zn7   S    
C50   C58   S    
C96   H50   S    
C41   H42   S    
C65   C86   A    
C60   O42   A    
O20   Zn7   S    
O36   Zn12  S    
C91   C92   A    
O6    Zn2   S    
O5    Zn16  S    
C126  H12   S    
C125  H22   S    
C116  O21   A    
C15   C136  S    
C108  O36   A    
C75   H11   S    
C69   H6    S    
O23   Zn5   S    
C123  C131  A    
C93   O46   A    
C3    C45   S    
O19   Zn6   S    
O1    Zn1   S    
C65   C74   A    
C73   H9    S    
C110  O11   A    
C75   C84   A    
C42   H43   S    
C29   H30   S    
C106  O33   A    
C33   O57   D    
C96   C97   A    
C5    C9    S    
C20   C49   S    
C118  C130  S    
C16   C33   S    
C53   C62   S    
C37   O60   D    
O21   Zn8   S    
O13   Zn8   S    
O46   Zn6   S    
C3    C48   S    
C120  O28   A    
O37   Zn13  S    
C124  H21   S    
O25   Zn1   S    
C67   C88   A    
C37   C136  S    
O39   Zn15  S    
C11   C44   S    
C34   O58   D    
C119  C133  S    
C111  O13   A    
C43   C135  S    
C67   H4    S    
O10   Zn6   S    
C112  O16   A    
C72   C84   A    
O29   Zn12  S    
C27   H28   S    
C73   C81   A    
C65   H2    S    
C28   H29   S    
O35   Zn11  S    
C22   C115  S    
C28   O51   D    
O34   Zn6   S    
C45   C54   S    
C9    C47   S    
O18   Zn5   S    
C47   C134  S    
C10   C48   S    
O44   Zn5   S    
C5    C40   S    
O66   Zn1   S    
C51   C59   S    
O34   Zn15  S    
C7    C53   S    
C20   C58   T    
C127  C128  A    
C33   H35   S    
C27   O50   D    
C113  O15   A    
O31   Zn1   S    
C12   C51   S    
C34   H36   S    
C9    C27   S    
O17   Zn4   S    
C10   C28   S    
C18   C71   S    
C97   H51   S    
O15   Zn2   S    
C17   C55   T    
C83   C110  S    
C15   C24   S    
O12   Zn2   S    
C64   C87   A    
C12   C30   S    
C70   C79   A    
C120  C132  S    
C2    H1    S    
C74   H10   S    
C5    C51   S    
C49   O56   A    
O23   Zn7   S    
C39   H40   S    
C92   H47   S    
C15   C32   S    
C77   H14   S    
C77   C86   A    
C13   C48   S    
C118  O24   A    
O42   Zn3   S    
C4    C126  S    
C2    C47   S    
C42   O65   D    
C105  O32   A    
C125  C133  A    
C84   C109  S    
C14   C126  S    
C98   C101  A    
O14   Zn16  S    
C1    O45   A    
C10   C45   S    
O30   Zn13  S    
C82   O68   A    
C13   C16   S    
C113  O17   A    
C72   C80   A    
C11   C50   S    
O11   Zn7   S    
C128  C133  A    
C124  C130  A    
C6    C13   S    
O7    Zn3   S    
C88   C105  S    
C1    O40   A    
C114  O18   A    
C38   H39   S    
C115  O48   A    
O56   Zn11  S    
C94   C99   A    
C66   C75   A    
C76   C85   A    
C128  H25   S    
C29   O52   D    
C43   H45   S    
C129  H26   S    
C11   C29   S    
O27   Zn14  S    
C13   H34   S    
C117  O22   A    
C117  C131  S    
C8    C46   S    
O33   Zn10  S    
C106  O7    A    
C108  O9    A    
C69   C81   A    
C6    C10   S    
C3    C16   S    
C17   C60   S    
C112  O14   A    
C40   H41   S    
C2    C5    S    
O12   Zn11  S    
C125  C129  A    
C45   H54   S    
C38   O61   D    
C31   H32   S    
C35   C51   S    
C32   H33   S    
C54   C63   S    
C91   H46   S    
C9    C35   S    
C101  C116  S    
C47   C56   S    
C50   C136  S    
C67   C76   A    
C79   H16   S    
C100  C112  S    
C91   C99   A    
C122  C123  A    
C70   C85   A    
C71   O67   A    
C127  H24   S    
C122  C130  A    
C89   C103  S    
O4    Zn13  S    
C68   H5    S    
O34   Zn8   S    
O41   Zn2   S    
C22   C61   T    
C99   C113  S    
C95   C98   A    
