data_mof_unit_9092.cif
_audit_creation_date              2012-12-11T15:49:59-0500
_audit_creation_method            fapswitch 2.2
_symmetry_space_group_name_H-M    P1
_symmetry_Int_Tables_number       1
_space_group_crystal_system       triclinic
_cell_length_a                    16.616691
_cell_length_b                    7.242882
_cell_length_c                    15.21943
_cell_angle_alpha                 89.999838
_cell_angle_beta                  94.665277
_cell_angle_gamma                 89.999861
_cell_volume                      1825.63130559

loop_
_atom_site_label
_atom_site_type_symbol
_atom_type_description
_atom_site_fract_x
_atom_site_fract_y
_atom_site_fract_z
_atom_type_partial_charge
O1    O     O_R   0.663460 0.361880 0.165960 -0.542203
O2    O     O_R   0.336540 0.638120 0.834040 -0.537644
O3    O     O_R   0.836540 0.861880 0.334040 -0.542217
O4    O     O_R   0.163460 0.138120 0.665960 -0.537642
O5    O     O_R   0.827100 0.690020 0.163730 -0.524916
O6    O     O_R   0.172900 0.309980 0.836270 -0.536704
O7    O     O_R   0.672900 0.190020 0.336270 -0.524917
O8    O     O_R   0.327100 0.809980 0.663730 -0.536678
C1    C     C_R   0.853311 0.523039 0.143554 0.733340
C2    C     C_R   0.146664 0.476957 0.856415 0.737871
C3    C     C_R   0.646689 0.023040 0.356446 0.733314
C4    C     C_R   0.353336 0.976957 0.643585 0.737926
O9    O     O_R   0.663490 0.691490 0.155490 -0.506002
O10   O     O_R   0.336510 0.308510 0.844510 -0.504041
O11   O     O_R   0.836510 0.191490 0.344510 -0.505952
O12   O     O_R   0.163490 0.808510 0.655490 -0.504043
O13   O     O_R   0.671770 0.863400 0.325740 -0.542543
O14   O     O_R   0.328230 0.136600 0.674260 -0.538743
O15   O     O_R   0.828230 0.363400 0.174260 -0.542534
O16   O     O_R   0.171770 0.636600 0.825740 -0.538750
C5    C     C_R   0.637111 0.523114 0.131945 0.763780
C6    C     C_R   0.362875 0.476853 0.868114 0.772752
C7    C     C_R   0.862889 0.023113 0.368054 0.763826
C8    C     C_R   0.137125 0.976854 0.631886 0.772774
O17   O     O_3   0.752910 0.528900 0.305870 -0.357530
O18   O     O_3   0.247090 0.471100 0.694130 -0.364915
O19   O     O_3   0.747090 0.028900 0.194130 -0.357534
O20   O     O_3   0.252910 0.971100 0.805870 -0.364935
V1    V     V_3+5 0.749460 0.803130 0.239640 1.627171
V2    V     V_3+5 0.250540 0.196870 0.760360 1.591320
V3    V     V_3+5 0.750540 0.303130 0.260360 1.627244
V4    V     V_3+5 0.249460 0.696870 0.739640 1.591346
C9    C     C_R   0.939830 0.133826 0.511217 0.409288
C10   C     C_R   0.059834 0.865055 0.488996 0.471296
C11   C     C_R   0.560162 0.633844 0.988788 0.409051
C12   C     C_R   0.440173 0.365038 0.010999 0.471328
C13   C     C_R   0.008275 0.120016 0.571479 -0.225316
C14   C     C_R   0.991783 0.880209 0.428273 -0.277344
C15   C     C_R   0.491718 0.620029 0.928526 -0.225237
C16   C     C_R   0.508223 0.380195 0.071722 -0.277188
H1    H     H_    0.013981 0.212242 0.627655 0.185153
H2    H     H_    0.986107 0.788397 0.371944 0.183303
H3    H     H_    0.486008 0.712268 0.872354 0.185181
H4    H     H_    0.513903 0.288375 0.128047 0.183218
C17   C     C_R   0.068344 0.986289 0.562488 -0.208281
C18   C     C_R   0.931637 0.013541 0.437419 -0.203085
C19   C     C_R   0.431656 0.486286 0.937512 -0.208262
C20   C     C_R   0.568363 0.513544 0.062580 -0.203032
C21   C     C_1   0.416028 0.986094 0.581455 -0.135130
C22   C     C_1   0.583972 0.013885 0.418548 -0.109550
C23   C     C_1   0.083972 0.486095 0.918545 -0.135130
C24   C     C_1   0.916028 0.513884 0.081451 -0.109556
C25   C     C_1   0.468818 0.994702 0.530106 0.052176
C26   C     C_1   0.531163 0.005253 0.469878 0.059324
C27   C     C_1   0.031182 0.494702 0.969894 0.052186
C28   C     C_1   0.968837 0.505253 0.030122 0.059330
S1    S     S_3+6 0.864902 0.297703 0.533865 0.065623
O21   O     O_2   0.782347 0.214123 0.516660 -0.308462
O22   O     O_2   0.875599 0.359261 0.628440 -0.303566
O23   O     O_3   0.872368 0.482690 0.468357 -0.473375
H5    H     H_    0.929270 0.523108 0.478916 0.333823
S2    S     S_3+6 0.133821 0.698264 0.467382 0.015823
O24   O     O_2   0.125623 0.534969 0.526966 -0.338819
O25   O     O_2   0.122472 0.634854 0.373119 -0.318947
O26   O     O_3   0.226617 0.789897 0.486040 -0.508735
H6    H     H_    0.264183 0.684872 0.481194 0.363618
S3    S     S_3+6 0.635079 0.797759 0.966150 0.065729
O27   O     O_2   0.717638 0.714186 0.983336 -0.308445
O28   O     O_2   0.624368 0.859366 0.871582 -0.303471
O29   O     O_3   0.627617 0.982704 0.031681 -0.473262
H7    H     H_    0.570635 0.022788 0.021331 0.333683
S4    S     S_3+6 0.366193 0.198222 0.032606 0.015776
O30   O     O_2   0.374398 0.034948 0.973011 -0.338863
O31   O     O_2   0.377549 0.134785 0.126865 -0.318970
O32   O     O_3   0.273392 0.289836 0.013959 -0.508724
H8    H     H_    0.235835 0.184774 0.018717 0.363621

loop_
_geom_bond_atom_site_label_1
_geom_bond_atom_site_label_2
_ccdc_geom_bond_type
O17   V3    S    
C27   C28   S    
O1    C5    A    
O19   V1    S    
O13   V1    S    
O3    C7    A    
O1    V3    S    
O15   V3    S    
C4    C21   S    
C25   C26   S    
O7    C3    A    
C22   C26   T    
C8    C17   S    
O9    V1    S    
C14   H2    S    
O4    C8    A    
S1    O22   D    
C11   C20   A    
C10   S2    S    
C12   C19   A    
O2    V4    S    
O3    V1    S    
S2    O25   D    
C1    O15   A    
C2    O16   A    
O2    C6    A    
O29   H7    S    
O14   V2    S    
C5    C20   S    
O11   C7    A    
C6    C19   S    
O12   C8    A    
C7    C18   S    
C9    C18   A    
C1    C24   S    
O10   V2    S    
S4    O32   S    
C2    C23   S    
O5    V1    S    
O7    V3    S    
S3    O27   D    
O8    V4    S    
C12   C16   A    
S4    O31   D    
O18   V4    S    
S1    O23   S    
C15   H3    S    
C9    C13   A    
O23   H5    S    
S3    O28   D    
C11   C15   A    
O32   H8    S    
O5    C1    A    
S2    O24   D    
C11   S3    S    
O8    C4    A    
O9    C5    A    
C10   C17   A    
O6    V2    S    
C13   C17   A    
C15   C19   A    
O16   V4    S    
C16   C20   A    
C3    O13   A    
C9    S1    S    
S2    O26   S    
C10   C14   A    
S4    O30   D    
O6    C2    A    
O11   V3    S    
O12   V4    S    
S3    O29   S    
O10   C6    A    
O20   V2    S    
C3    C22   S    
S1    O21   D    
C21   C25   T    
C23   C27   T    
C13   H1    S    
C14   C18   A    
C12   S4    S    
C16   H4    S    
O26   H6    S    
C4    O14   A    
O4    V2    S    
C24   C28   T    
