data_mof_unit_41970.cif
_audit_creation_date              2012-12-11T17:06:33-0500
_audit_creation_method            fapswitch 2.2
_symmetry_space_group_name_H-M    P1
_symmetry_Int_Tables_number       1
_space_group_crystal_system       triclinic
_cell_length_a                    6.973552
_cell_length_b                    14.504224
_cell_length_c                    15.976782
_cell_angle_alpha                 90.436819
_cell_angle_beta                  89.934969
_cell_angle_gamma                 89.908908
_cell_volume                      1615.93688827

loop_
_atom_site_label
_atom_site_type_symbol
_atom_type_description
_atom_site_fract_x
_atom_site_fract_y
_atom_site_fract_z
_atom_type_partial_charge
O1    O     O_R   0.494400 0.415450 0.412630 -0.548165
O2    O     O_R   0.823940 0.405730 0.586760 -0.543032
O3    O     O_R   0.994240 0.584550 0.587370 -0.536999
C1    C     C_R   0.655262 0.383791 0.615393 0.690955
O4    O     O_R   0.824110 0.404430 0.413240 -0.547519
O5    O     O_R   0.994420 0.583240 0.412620 -0.536688
C2    C     C_R   0.654766 0.379056 0.386904 0.668169
O6    O     O_R   0.494230 0.416760 0.587380 -0.541691
O7    O     O_3   0.660800 0.558670 0.500000 -0.363991
V1    V     V_3+5 0.935650 0.489120 0.500000 1.367582
O8    O     O_R   0.324140 0.594270 0.413240 -0.537639
C3    C     C_R   0.155119 0.616274 0.384479 0.697654
O9    O     O_R   0.323960 0.595570 0.586760 -0.538988
C4    C     C_R   0.154814 0.617656 0.615560 0.683122
V2    V     V_3+5 0.435660 0.510880 0.500000 1.376959
O10   O     O_3   0.160640 0.441330 0.500000 -0.389151
C5    C     C_3   0.955416 0.720948 0.727116 -0.111334
C6    C     C_3   0.048161 0.709224 0.814484 -0.143611
H1    H     H_    0.978007 0.677564 0.869629 0.099903
H2    H     H_    0.808502 0.698492 0.709722 0.111162
C7    C     C_3   0.122786 0.808874 0.810166 -0.005979
C8    C     C_3   0.030141 0.821389 0.723571 -0.143924
C9    C     C_3   0.217852 0.786936 0.681551 -0.143099
C10   C     C_3   0.310598 0.775211 0.768920 -0.111677
C11   C     C_3   0.235872 0.674767 0.772463 -0.144286
C12   C     C_3   0.143224 0.687288 0.685871 -0.007820
H3    H     H_    0.944966 0.882186 0.703852 0.099097
H4    H     H_    0.287990 0.818606 0.626405 0.102147
H5    H     H_    0.457514 0.797665 0.786314 0.110409
H6    H     H_    0.321019 0.613948 0.792153 0.098670
C13   C     C_R   0.275209 0.750494 0.187501 0.100353
C14   C     C_R   0.118475 0.810200 0.178942 -0.109317
C15   C     C_R   0.965733 0.799837 0.235863 -0.175134
H7    H     H_    0.842236 0.844605 0.232008 0.132978
C16   C     C_R   0.977203 0.736406 0.302163 -0.177795
H8    H     H_    0.861110 0.733394 0.346945 0.131574
C17   C     C_R   0.142414 0.681931 0.313905 -0.110200
C18   C     C_R   0.286970 0.688048 0.253295 0.098816
C19   C     C_3   0.495989 0.704940 0.264424 -0.413863
C20   C     C_3   0.483256 0.772597 0.192512 -0.396789
H9    H     H_    0.583451 0.642834 0.249390 0.172280
H10   H     H_    0.528019 0.738565 0.325561 0.172490
H11   H     H_    0.562799 0.749457 0.135772 0.172630
H12   H     H_    0.508622 0.845372 0.211812 0.170630
C21   C     C_R   0.495803 0.317472 0.742690 0.096572
C22   C     C_R   0.648033 0.317718 0.685407 -0.107800
C23   C     C_R   0.798690 0.254749 0.698877 -0.175783
H13   H     H_    0.920625 0.253203 0.657157 0.129870
C24   C     C_R   0.787223 0.188749 0.762844 -0.179091
H14   H     H_    0.901306 0.138610 0.768693 0.125230
C25   C     C_R   0.624418 0.183648 0.814988 -0.109817
C26   C     C_R   0.483762 0.251780 0.805535 0.100192
C27   C     C_3   0.272247 0.242574 0.795143 -0.404465
C28   C     C_3   0.285259 0.315275 0.727343 -0.399926
H15   H     H_    0.192034 0.266323 0.851487 0.174163
H16   H     H_    0.231498 0.173388 0.770754 0.166865
H17   H     H_    0.214517 0.381388 0.744930 0.165550
H18   H     H_    0.250320 0.288947 0.663792 0.169768
C29   C     C_R   0.477771 0.299448 0.271040 0.027515
C30   C     C_R   0.643021 0.308120 0.319481 -0.085903
C31   C     C_R   0.796299 0.249201 0.299852 -0.166251
H19   H     H_    0.917744 0.246406 0.340599 0.137273
C32   C     C_R   0.786940 0.187879 0.231333 -0.163611
H20   H     H_    0.903937 0.140118 0.221234 0.131157
C33   C     C_R   0.623127 0.183797 0.179858 -0.076905
C34   C     C_R   0.470809 0.243671 0.199151 0.026441
C35   C     C_3   0.268647 0.217005 0.216005 -0.399581
C36   C     C_3   0.285676 0.266588 0.299468 0.287124
H21   H     H_    0.249047 0.141108 0.221051 0.190857
H22   H     H_    0.168254 0.251220 0.171989 0.126103
H23   H     H_    0.181235 0.323897 0.308577 0.037486
O11   O     O_R   0.771650 0.079500 0.908680 -0.539613
O12   O     O_R   0.441690 0.091800 0.082800 -0.539697
O13   O     O_R   0.271460 0.912980 0.083410 -0.536452
C37   C     C_R   0.610520 0.114199 0.111608 0.691892
O14   O     O_R   0.441930 0.090510 0.909280 -0.539516
O15   O     O_R   0.271690 0.911670 0.908660 -0.539320
C38   C     C_R   0.610907 0.112521 0.880664 0.695787
O16   O     O_R   0.771410 0.080810 0.083440 -0.542014
O17   O     O_3   0.605100 0.937580 0.996050 -0.369836
V3    V     V_3+5 0.330220 0.007110 0.996030 1.397037
O18   O     O_R   0.941980 0.900620 0.909250 -0.541381
C39   C     C_R   0.111147 0.878518 0.880477 0.675035
O19   O     O_R   0.941740 0.901920 0.082770 -0.543600
C40   C     C_R   0.110462 0.880198 0.111773 0.692627
V4    V     V_3+5 0.830220 0.985300 0.996000 1.389533
O20   O     O_3   0.105210 0.054870 0.996020 -0.368964
O21   O     O_3   0.300674 0.199021 0.363068 -0.546899
C41   C     C_3   0.250565 0.233669 0.442807 0.137740
H24   H     H_    0.128660 0.282773 0.441158 0.126148
H25   H     H_    0.376695 0.267185 0.472132 0.137745
C42   C     C_3   0.191446 0.153266 0.497621 -0.754305
H26   H     H_    0.311610 0.103288 0.502924 0.228934
H27   H     H_    0.152910 0.178473 0.561114 0.163375
H28   H     H_    0.065127 0.117856 0.469933 0.223822

loop_
_geom_bond_atom_site_label_1
_geom_bond_atom_site_label_2
_ccdc_geom_bond_type
C32   C33   A    
C6    C7    S    
C16   H8    S    
C1    O6    A    
C19   H9    S    
C1    C22   S    
C21   C22   A    
C5    C12   S    
C16   C17   A    
O14   C38   A    
C29   C34   A    
O5    C3    A    
C18   C19   S    
O15   C39   A    
V2    O10   S    
C5    H2    S    
C13   C20   S    
C6    H1    S    
C9    C12   S    
C3    C17   S    
C31   C32   A    
C10   H5    S    
O11   C38   A    
O8    V2    S    
C20   H11   S    
C23   H13   S    
C24   C25   A    
O17   V4    S    
C9    C10   S    
O1    V2    S    
C41   H25   S    
O7    V1    S    
C34   C35   S    
C29   C30   A    
C7    C8    S    
O12   C37   A    
C6    C11   S    
O12   V3    S    
C5    C6    S    
C19   H10   S    
C27   H15   S    
C35   C36   S    
C7    C39   S    
C10   C11   S    
C23   C24   A    
C19   C20   S    
O4    C2    A    
V4    O20   S    
C21   C26   A    
C11   C12   S    
O18   V4    S    
O18   C39   A    
C42   H28   S    
C4    C12   S    
C25   C26   A    
C30   C31   A    
C35   H21   S    
O2    C1    A    
C17   C18   A    
C29   C36   S    
C13   C14   A    
O15   V3    S    
C42   H27   S    
C15   H7    S    
C9    H4    S    
O19   C40   A    
C41   C42   S    
V3    O20   S    
O3    C4    A    
C21   C28   S    
C33   C34   A    
O6    V2    S    
C8    H3    S    
O9    V2    S    
C36   O21   S    
O13   V3    S    
O2    V1    S    
C2    C30   S    
C26   C27   S    
C28   H18   S    
C27   H16   S    
C11   H6    S    
C22   C23   A    
O1    C2    A    
O19   V4    S    
O17   V3    S    
O14   V3    S    
O5    V1    S    
O11   V4    S    
O8    C3    A    
C27   C28   S    
C5    C8    S    
C33   C37   S    
C13   C18   A    
C35   H22   S    
C14   C15   A    
O7    V2    S    
C25   C38   S    
O4    V1    S    
O3    V1    S    
V1    O10   S    
C36   H23   S    
C14   C40   S    
C42   H26   S    
C15   C16   A    
O13   C40   A    
C31   H19   S    
C32   H20   S    
C20   H12   S    
O21   C41   S    
C24   H14   S    
C7    C10   S    
C8    C9    S    
C41   H24   S    
O9    C4    A    
C37   O16   A    
O16   V4    S    
C28   H17   S    
