data_mof_unit_60011.cif
_audit_creation_date              2012-12-10T18:54:03-0500
_audit_creation_method            fapswitch 2.2
_symmetry_space_group_name_H-M    P1
_symmetry_Int_Tables_number       1
_space_group_crystal_system       triclinic
_cell_length_a                    19.374188
_cell_length_b                    19.488042
_cell_length_c                    19.253739
_cell_angle_alpha                 84.976833
_cell_angle_beta                  95.381524
_cell_angle_gamma                 90.258813
_cell_volume                      7209.64899834

loop_
_atom_site_label
_atom_site_type_symbol
_atom_type_description
_atom_site_fract_x
_atom_site_fract_y
_atom_site_fract_z
_atom_type_partial_charge
C1    C     C_R   0.311680 0.493303 0.493426 0.497101
C2    C     C_2   0.460921 0.977240 0.510915 -0.148270
C3    C     C_2   0.497448 0.023379 0.473989 -0.137037
C4    C     C_R   0.688122 0.508399 0.507172 0.488074
C5    C     C_R   0.502141 0.238491 0.499421 0.027048
C6    C     C_R   0.763206 0.516863 0.506357 0.051914
C7    C     C_R   0.791438 0.537920 0.442275 -0.005848
C8    C     C_R   0.863163 0.548771 0.443589 -0.106368
C9    C     C_R   0.905582 0.539519 0.506141 0.025171
C10   C     C_R   0.877762 0.520073 0.568948 -0.116115
C11   C     C_R   0.806709 0.508387 0.570068 -0.002406
C12   C     C_R   0.469167 0.902988 0.505750 0.008215
C13   C     C_R   0.131723 0.482323 0.553620 -0.130124
C14   C     C_R   0.203967 0.485645 0.557356 0.005448
C15   C     C_R   0.195835 0.500739 0.429461 -0.134429
C16   C     C_R   0.507656 0.493315 0.689295 0.494990
C17   C     C_R   0.123474 0.498962 0.426162 0.021823
C18   C     C_R   0.091676 0.489180 0.489184 0.035999
C19   C     C_2   0.981091 0.543885 0.504524 0.012097
C20   C     C_2   0.016016 0.487381 0.489996 -0.011446
C21   C     C_R   0.236274 0.493249 0.493975 0.038566
C22   C     C_R   0.481682 0.507543 0.234230 0.041041
C23   C     C_R   0.413474 0.859260 0.517681 -0.111927
C24   C     C_R   0.458633 0.446665 0.203753 0.008462
C25   C     C_R   0.445161 0.448429 0.130130 0.016056
C26   C     C_R   0.457801 0.509506 0.088080 0.034216
C27   C     C_R   0.475737 0.571402 0.118573 0.015911
C28   C     C_R   0.490968 0.507491 0.310860 0.496601
C29   C     C_R   0.489590 0.570199 0.192177 0.013303
C30   C     C_R   0.535318 0.541609 0.877627 0.033264
C31   C     C_R   0.523736 0.550471 0.803285 0.024415
C32   C     C_R   0.503199 0.426511 0.802553 -0.142012
C33   C     C_R   0.505738 0.418997 0.875286 0.015993
C34   C     C_R   0.419523 0.788347 0.513275 0.001099
C35   C     C_R   0.519755 0.477071 0.912924 0.035697
C36   C     C_2   0.460514 0.506764 0.012167 -0.150391
C37   C     C_2   0.511557 0.471913 0.988410 -0.150402
C38   C     C_R   0.511005 0.490953 0.766145 0.018651
C39   C     C_R   0.507228 0.312045 0.507131 0.500674
C40   C     C_R   0.491160 0.687845 0.492290 0.498850
C41   C     C_R   0.482770 0.761591 0.495266 0.071295
C42   C     C_R   0.539540 0.805466 0.484312 -0.020484
C43   C     C_R   0.532439 0.875608 0.490761 -0.097317
C44   C     C_3   0.607623 0.778514 0.465219 -0.398425
C45   C     C_R   0.507520 0.145427 0.423605 0.029542
C46   C     C_3   0.744256 0.549431 0.374116 -0.263946
C47   C     C_3   0.779115 0.578149 0.309605 -0.469239
C48   C     C_3   0.243728 0.483777 0.629413 -0.258890
C49   C     C_3   0.277343 0.553140 0.642687 -0.429966
C50   C     C_3   0.979964 0.420340 0.475839 -0.395900
C51   C     C_3   0.780012 0.484310 0.639624 -0.264850
C52   C     C_3   0.774075 0.544351 0.684614 -0.422521
C53   C     C_3   0.018565 0.611201 0.517678 -0.272426
C54   C     C_3   0.970711 0.670934 0.528112 -0.444839
C55   C     C_3   0.082243 0.508895 0.355206 -0.275036
C56   C     C_R   0.511855 0.215269 0.434170 -0.113255
C57   C     C_3   0.085450 0.444609 0.315701 -0.442256
C58   C     C_3   0.446932 0.380323 0.249847 -0.272248
C59   C     C_3   0.378150 0.382097 0.282527 -0.434820
C60   C     C_3   0.520581 0.622706 0.764517 -0.257003
C61   C     C_3   0.447977 0.640338 0.729187 -0.433564
C62   C     C_3   0.481656 0.638620 0.073136 -0.409299
C63   C     C_3   0.567690 0.598765 0.919424 -0.278751
C64   C     C_3   0.642175 0.613550 0.902457 -0.448056
C65   C     C_3   0.517494 0.634366 0.225936 -0.270478
C66   C     C_3   0.595486 0.628521 0.245549 -0.451377
C67   C     C_R   0.486549 0.191871 0.554814 -0.140754
C68   C     C_3   0.415103 0.385880 0.096384 -0.404643
C69   C     C_3   0.493521 0.348240 0.911181 -0.273971
C70   C     C_3   0.562050 0.312534 0.937829 -0.442084
C71   C     C_3   0.516331 0.124185 0.350920 -0.279444
C72   C     C_3   0.447933 0.099854 0.315263 -0.438564
C73   C     C_3   0.358926 0.742862 0.531522 -0.270262
C74   C     C_3   0.304353 0.741490 0.469170 -0.418697
C75   C     C_R   0.483583 0.121873 0.545832 -0.129082
C76   C     C_R   0.494306 0.097856 0.480685 0.053787
H1    H     H_    0.475113 0.086509 0.590749 0.105604
H2    H     H_    0.478786 0.209354 0.605406 0.120996
H3    H     H_    0.530217 0.005811 0.436557 0.118513
H4    H     H_    0.365198 0.880428 0.530884 0.102536
H5    H     H_    0.422529 0.994119 0.543461 0.115268
H6    H     H_    0.577025 0.908567 0.485073 0.105773
H7    H     H_    0.644619 0.820820 0.453842 0.110339
H8    H     H_    0.632240 0.743660 0.509165 0.159376
H9    H     H_    0.598680 0.749973 0.417737 0.123143
H10   H     H_    0.803453 0.628719 0.318600 0.146922
H11   H     H_    0.818454 0.541279 0.296496 0.143191
H12   H     H_    0.220863 0.507527 0.381259 0.121511
H13   H     H_    0.739739 0.585793 0.263930 0.136616
H14   H     H_    0.719930 0.499704 0.361766 0.176056
H15   H     H_    0.702461 0.586050 0.382015 0.138057
H16   H     H_    0.317592 0.566314 0.606455 0.149054
H17   H     H_    0.237424 0.594533 0.636054 0.139148
H18   H     H_    0.302466 0.550724 0.697115 0.129453
H19   H     H_    0.208364 0.471415 0.671011 0.118667
H20   H     H_    0.283115 0.442081 0.636714 0.181525
H21   H     H_    0.943009 0.427938 0.428128 0.131033
H22   H     H_    0.017976 0.380104 0.467372 0.129176
H23   H     H_    0.911961 0.512197 0.616888 0.108168
H24   H     H_    0.951658 0.401325 0.521214 0.132796
H25   H     H_    0.738162 0.584283 0.657149 0.180491
H26   H     H_    0.753565 0.525512 0.734753 0.131453
H27   H     H_    0.825729 0.567813 0.696456 0.134299
H28   H     H_    0.728926 0.458584 0.632703 0.153596
H29   H     H_    0.816036 0.444995 0.668235 0.124166
H30   H     H_    0.933435 0.682140 0.481064 0.153712
H31   H     H_    0.941924 0.658530 0.574836 0.154201
H32   H     H_    0.002160 0.717792 0.536409 0.128998
H33   H     H_    0.055817 0.602726 0.565128 0.141462
H34   H     H_    0.105852 0.476010 0.601336 0.102711
H35   H     H_    0.048315 0.627052 0.472319 0.144312
H36   H     H_    0.139772 0.433266 0.306339 0.146116
H37   H     H_    0.064053 0.399647 0.346030 0.152354
H38   H     H_    0.054219 0.453028 0.264294 0.130902
H39   H     H_    0.027053 0.521202 0.359690 0.145697
H40   H     H_    0.103427 0.553458 0.323982 0.131816
H41   H     H_    0.377638 0.423856 0.318083 0.163582
H42   H     H_    0.334424 0.390180 0.241034 0.144493
H43   H     H_    0.370473 0.332293 0.313482 0.128293
H44   H     H_    0.447482 0.333982 0.220455 0.129329
H45   H     H_    0.887586 0.563361 0.396289 0.113181
H46   H     H_    0.490076 0.370436 0.291387 0.168656
H47   H     H_    0.409309 0.634707 0.768398 0.137597
H48   H     H_    0.446886 0.694525 0.705773 0.130828
H49   H     H_    0.432858 0.606933 0.686647 0.151059
H50   H     H_    0.533577 0.663814 0.799372 0.129873
H51   H     H_    0.559659 0.628615 0.726015 0.176651
H52   H     H_    0.467178 0.634935 0.016750 0.116596
H53   H     H_    0.445619 0.677381 0.088732 0.121362
H54   H     H_    0.535731 0.657891 0.078985 0.125772
H55   H     H_    0.674486 0.566425 0.915670 0.151511
H56   H     H_    0.521748 0.252143 0.390740 0.117008
H57   H     H_    0.644861 0.630744 0.846367 0.145614
H58   H     H_    0.664258 0.654745 0.934132 0.130014
H59   H     H_    0.535461 0.646159 0.910987 0.125167
H60   H     H_    0.571385 0.584670 0.976587 0.158961
H61   H     H_    0.614502 0.675239 0.270372 0.128424
H62   H     H_    0.607996 0.582865 0.283097 0.157826
H63   H     H_    0.622699 0.623949 0.197880 0.146652
H64   H     H_    0.507781 0.682592 0.191742 0.133302
H65   H     H_    0.490931 0.643301 0.272788 0.172799
H66   H     H_    0.394931 0.397683 0.040879 0.131840
H67   H     H_    0.494387 0.381372 0.773776 0.127050
H68   H     H_    0.369912 0.365943 0.123233 0.126895
H69   H     H_    0.455302 0.345069 0.099072 0.117284
H70   H     H_    0.593440 0.306047 0.893415 0.150687
H71   H     H_    0.592176 0.342851 0.976308 0.145372
H72   H     H_    0.551643 0.260875 0.963779 0.130361
H73   H     H_    0.460944 0.351735 0.955116 0.143688
H74   H     H_    0.464478 0.315306 0.874213 0.131435
H75   H     H_    0.428726 0.053077 0.344394 0.161096
H76   H     H_    0.408178 0.141227 0.311848 0.149798
H77   H     H_    0.455730 0.087251 0.261402 0.129344
H78   H     H_    0.547790 0.440859 0.024443 0.130821
H79   H     H_    0.534833 0.168283 0.316979 0.129304
H80   H     H_    0.556754 0.083736 0.353096 0.129800
H81   H     H_    0.283257 0.794055 0.453520 0.136888
H82   H     H_    0.327120 0.721692 0.423980 0.183838
H83   H     H_    0.261143 0.707143 0.483733 0.132915
H84   H     H_    0.375818 0.689384 0.549562 0.144173
H85   H     H_    0.334755 0.762483 0.576096 0.122218
H86   H     H_    0.424249 0.537506 0.975781 0.123514
O1    O     O_3   0.500000 0.500000 0.500000 -0.427052
O2    O     O_R   0.467830 0.341070 0.546160 -0.543454
O3    O     O_R   0.450560 0.655630 0.450550 -0.552024
O4    O     O_R   0.545840 0.347670 0.467560 -0.550288
O5    O     O_R   0.535760 0.655640 0.535740 -0.553080
O6    O     O_R   0.545870 0.536170 0.656040 -0.552597
O7    O     O_R   0.450550 0.545430 0.340370 -0.553979
O8    O     O_R   0.347960 0.451240 0.536460 -0.548005
O9    O     O_R   0.655630 0.467150 0.467130 -0.552501
O10   O     O_R   0.340780 0.536140 0.450970 -0.554291
O11   O     O_R   0.655640 0.545460 0.545430 -0.548892
O12   O     O_R   0.467850 0.451260 0.656340 -0.552003
O13   O     O_R   0.535740 0.467130 0.347260 -0.558131
Zn1   Zn    Zn3+2 0.558310 0.558310 0.558290 0.899178
Zn2   Zn    Zn3+2 0.446830 0.436990 0.558720 0.912178
Zn3   Zn    Zn3+2 0.558290 0.446420 0.446420 0.906172
Zn4   Zn    Zn3+2 0.436570 0.558290 0.436570 0.900607

loop_
_geom_bond_atom_site_label_1
_geom_bond_atom_site_label_2
_ccdc_geom_bond_type
C52   H27   S    
C1    C21   S    
C22   C29   A    
C45   C71   S    
C41   C42   A    
C62   H54   S    
C5    C56   A    
C19   C20   D    
C5    C67   A    
C44   H7    S    
C2    C12   S    
C7    C8    A    
C53   C54   S    
C67   H2    S    
C12   C23   A    
C52   H26   S    
C26   C27   A    
C74   H83   S    
C61   H48   S    
C69   H74   S    
C14   C21   A    
C36   C37   D    
C4    O9    A    
C12   C43   A    
C30   C31   A    
C8    H45   S    
C57   H36   S    
C27   C29   A    
C55   H40   S    
C53   H33   S    
C1    O8    A    
C15   C17   A    
C73   C74   S    
C32   H67   S    
C73   H85   S    
C64   H57   S    
C65   H64   S    
C9    C19   S    
C66   H63   S    
C45   C56   A    
C8    C9    A    
C72   H76   S    
O1    Zn2   S    
C20   C50   S    
O9    Zn3   S    
C68   H66   S    
C70   H70   S    
C32   C38   A    
C49   H18   S    
C9    C10   A    
C17   C55   S    
C33   C69   S    
C51   H28   S    
C53   H35   S    
C54   H31   S    
C3    H3    S    
C59   H41   S    
C22   C28   S    
C13   C14   A    
C36   H86   S    
C47   H13   S    
C62   H53   S    
C10   H23   S    
C25   C68   S    
C42   C44   S    
O1    Zn1   S    
C2    H5    S    
O13   Zn3   S    
C64   H58   S    
C52   H25   S    
C58   H46   S    
C50   H22   S    
C54   H30   S    
O8    Zn2   S    
C51   C52   S    
C7    C46   S    
C24   C25   A    
C4    C6    S    
C48   H19   S    
C6    C11   A    
C74   H82   S    
C57   H37   S    
C46   H15   S    
C58   C59   S    
C60   C61   S    
C63   H59   S    
C31   C60   S    
C75   C76   A    
C47   H10   S    
C34   C41   A    
C13   H34   S    
C27   C62   S    
C65   H65   S    
C66   H62   S    
C64   H55   S    
C51   H29   S    
C23   C34   A    
C71   H79   S    
O1    Zn3   S    
C58   H44   S    
C17   C18   A    
C55   C57   S    
C73   H84   S    
C3    C76   S    
C75   H1    S    
O12   Zn2   S    
C40   O3    A    
C56   H56   S    
C29   C65   S    
O4    Zn3   S    
C13   C18   A    
O10   Zn4   S    
C26   C36   S    
C48   C49   S    
C59   H42   S    
C4    O11   A    
C45   C76   A    
O1    Zn4   S    
C23   H4    S    
C22   C24   A    
C67   C75   A    
C42   C43   A    
C49   H16   S    
C44   H9    S    
C72   H75   S    
O11   Zn1   S    
C16   O12   A    
O6    Zn1   S    
C46   C47   S    
C40   C41   S    
C50   H21   S    
C59   H43   S    
C72   H77   S    
C48   H20   S    
C74   H81   S    
C35   C37   S    
C37   H78   S    
C60   H51   S    
C44   H8    S    
C14   C48   S    
C28   O13   A    
C6    C7    A    
C46   H14   S    
C30   C35   A    
C1    O10   A    
C50   H24   S    
C31   C38   A    
C54   H32   S    
C61   H47   S    
C69   H73   S    
C32   C33   A    
C39   O4    A    
C5    C39   S    
C2    C3    D    
C25   C26   A    
C71   C72   S    
C63   H60   S    
C62   H52   S    
C19   C53   S    
C57   H38   S    
C55   H39   S    
C16   O6    A    
O3    Zn4   S    
C71   H80   S    
C60   H50   S    
C33   C35   A    
C68   H68   S    
C18   C20   S    
C69   C70   S    
C11   C51   S    
C10   C11   A    
C68   H69   S    
C34   C73   S    
C63   C64   S    
C40   O5    A    
C28   O7    A    
C15   C21   A    
C70   H72   S    
C24   C58   S    
C65   C66   S    
C43   H6    S    
O5    Zn1   S    
C66   H61   S    
C61   H49   S    
C70   H71   S    
C49   H17   S    
C39   O2    A    
C30   C63   S    
O7    Zn4   S    
O2    Zn2   S    
C16   C38   S    
C15   H12   S    
C47   H11   S    
