data_mof_unit_49104.cif
_audit_creation_date              2012-12-10T19:42:54-0500
_audit_creation_method            fapswitch 2.2
_symmetry_space_group_name_H-M    P1
_symmetry_Int_Tables_number       1
_space_group_crystal_system       triclinic
_cell_length_a                    10.824091
_cell_length_b                    12.956115
_cell_length_c                    11.651827
_cell_angle_alpha                 100.599698
_cell_angle_beta                  93.992713
_cell_angle_gamma                 90.371947
_cell_volume                      1601.93963897

loop_
_atom_site_label
_atom_site_type_symbol
_atom_type_description
_atom_site_fract_x
_atom_site_fract_y
_atom_site_fract_z
_atom_type_partial_charge
C1    C     C_R   0.511722 0.300034 0.477297 0.877888
C2    C     C_R   0.495277 0.701155 0.522795 0.901006
C3    C     C_R   0.871725 0.497727 0.502467 -0.041464
C4    C     C_R   0.128137 0.503828 0.499545 -0.063275
C5    C     C_R   0.946045 0.473074 0.598479 0.030749
C6    C     C_R   0.053812 0.530954 0.405316 0.041093
C7    C     C_R   0.491916 0.816170 0.539261 -0.225740
C8    C     C_R   0.526069 0.186563 0.462162 -0.243586
C9    C     C_R   0.663399 0.038094 0.451193 -0.067918
C10   C     C_R   0.379936 0.977935 0.593832 -0.114333
C11   C     C_R   0.638254 0.138805 0.426966 0.257324
C12   C     C_R   0.401464 0.873045 0.606540 0.268575
C13   C     C_R   0.432762 0.128842 0.501123 -0.084518
C14   C     C_R   0.577628 0.868834 0.483400 -0.063550
C15   C     C_R   0.458170 0.028142 0.526433 -0.032777
C16   C     C_R   0.568171 0.978402 0.488239 -0.013543
C17   C     C_R   0.400023 0.389029 0.018574 -0.290955
C18   C     C_R   0.600424 0.610707 0.981356 -0.294993
C19   C     C_R   0.407963 0.400962 0.141393 0.141070
C20   C     C_R   0.593215 0.598338 0.858496 0.178630
C21   C     C_R   0.540832 0.549736 0.158827 0.063511
C22   C     C_R   0.458767 0.450457 0.841145 0.057441
C23   C     C_R   0.262068 0.501605 0.499947 0.865847
C24   C     C_R   0.737873 0.498204 0.500336 0.872746
C25   C     C_R   0.535643 0.540809 0.035464 0.026893
C26   C     C_R   0.464073 0.459363 0.964497 0.027107
C27   C     C_R   0.211441 0.701193 0.226604 -0.096740
C28   C     C_R   0.785101 0.313434 0.787296 -0.108978
C29   C     C_R   0.160654 0.666236 0.319815 -0.153391
C30   C     C_R   0.835173 0.344389 0.691600 -0.157513
C31   C     C_R   0.105267 0.565755 0.303834 -0.010211
C32   C     C_R   0.895125 0.442694 0.703157 0.001603
C33   C     C_R   0.100331 0.500112 0.192070 0.349158
C34   C     C_R   0.905247 0.510256 0.814040 0.377788
C35   C     C_R   0.149453 0.537415 0.098654 -0.194484
C36   C     C_R   0.857038 0.476708 0.910180 -0.199772
C37   C     C_R   0.205683 0.636965 0.116202 -0.080018
C38   C     C_R   0.796075 0.379432 0.896393 -0.083640
C39   C     C_R   0.926316 0.527443 0.408143 -0.061654
C40   C     C_R   0.073603 0.475774 0.594894 -0.146044
Cu1   Cu    Cu3+1 0.509250 0.507730 0.615930 1.046079
Cu2   Cu    Cu3+1 0.490750 0.492270 0.384070 1.011810
H1    H     H_    0.245311 0.664239 0.044147 0.209978
H2    H     H_    0.755945 0.355546 0.970093 0.204720
H3    H     H_    0.402550 0.388825 0.785952 0.164231
H4    H     H_    0.597042 0.611197 0.214014 0.140930
H5    H     H_    0.643882 0.652411 0.817799 0.179128
H6    H     H_    0.358944 0.345924 0.181898 0.134548
H7    H     H_    0.344210 0.325290 0.966487 0.182570
H8    H     H_    0.656802 0.674079 0.033414 0.183410
H9    H     H_    0.255122 0.778281 0.239982 0.174022
H10   H     H_    0.737474 0.238179 0.776687 0.173094
H11   H     H_    0.165088 0.717276 0.404799 0.182893
H12   H     H_    0.825359 0.292075 0.608115 0.183038
H13   H     H_    0.145944 0.488954 0.012235 0.188373
H14   H     H_    0.863919 0.526799 0.995721 0.184489
H15   H     H_    0.869492 0.550049 0.336723 0.169784
H16   H     H_    0.130559 0.454109 0.666754 0.181643
N1    N     N_R   0.523180 0.519350 0.790130 -0.196800
N2    N     N_R   0.476820 0.480650 0.209870 -0.189161
O1    O     O_R   0.506570 0.354460 0.582000 -0.578796
O2    O     O_R   0.493430 0.645540 0.418000 -0.610525
O3    O     O_R   0.490940 0.341410 0.386200 -0.553813
O4    O     O_R   0.509060 0.658590 0.613800 -0.516653
O5    O     O_R   0.327460 0.506540 0.597900 -0.533813
O6    O     O_R   0.672540 0.493460 0.402100 -0.547824
O7    O     O_R   0.311830 0.493480 0.402100 -0.617972
O8    O     O_R   0.688170 0.506520 0.597900 -0.603017
S1    S     S_3+6 0.036592 0.370957 0.167839 0.004160
O9    O     O_2   0.898001 0.377031 0.165381 -0.262969
O10   O     O_2   0.072094 0.309108 0.053042 -0.302344
O11   O     O_3   0.085789 0.308685 0.276644 -0.448874
H17   H     H_    0.177207 0.309202 0.276542 0.335376
S2    S     S_3+6 0.970935 0.638384 0.833655 0.021137
O12   O     O_2   0.942161 0.701500 0.950057 -0.256729
O13   O     O_2   0.109181 0.631230 0.829589 -0.278516
O14   O     O_3   0.912732 0.699607 0.726812 -0.479945
H18   H     H_    0.982060 0.706127 0.677269 0.401239
C41   C     C_2   0.670300 0.807223 0.411530 0.840802
O15   O     O_2   0.739211 0.747728 0.454335 -0.597723
O16   O     O_R   0.678606 0.818399 0.295196 -0.735228
H19   H     H_    0.745711 0.773664 0.255819 0.338738
C42   C     C_2   0.303258 0.165960 0.491055 0.855726
O17   O     O_2   0.226409 0.112542 0.423169 -0.509797
O18   O     O_R   0.268828 0.260090 0.559387 -0.770945
H20   H     H_    0.177586 0.274315 0.545514 0.343025
S3    S     S_3+6 0.316049 0.812021 0.704291 0.052612
O19   O     O_2   0.239401 0.722856 0.633231 -0.302274
O20   O     O_2   0.405078 0.768976 0.787640 -0.272449
O21   O     O_3   0.220369 0.891546 0.786014 -0.437809
H21   H     H_    0.273207 0.928188 0.854423 0.367891
S4    S     S_3+6 0.741464 0.194368 0.339422 0.054730
O22   O     O_2   0.692829 0.289849 0.297514 -0.253638
O23   O     O_2   0.864621 0.221365 0.406365 -0.274005
O24   O     O_3   0.763189 0.103234 0.220017 -0.435825
H22   H     H_    0.829146 0.133164 0.180395 0.419796
C43   C     C_2   0.794567 0.005205 0.464487 0.917880
O25   O     O_2   0.860902 0.995736 0.382633 -0.453279
O26   O     O_R   0.840065 0.980927 0.571430 -0.727803
H23   H     H_    0.928774 0.956435 0.569964 0.388525
C44   C     C_2   0.283288 0.038270 0.659190 0.930201
O27   O     O_2   0.173832 0.017322 0.630580 -0.515672
O28   O     O_R   0.317877 0.121514 0.750585 -0.760645
H24   H     H_    0.243844 0.158057 0.787341 0.348932

loop_
_geom_bond_atom_site_label_1
_geom_bond_atom_site_label_2
_ccdc_geom_bond_type
S3    O19   D    
C8    C13   A    
C27   C29   A    
C1    C8    S    
Cu1   Cu2   S    
O24   H22   S    
Cu1   O1    S    
O16   H19   S    
O18   H20   S    
C30   H12   S    
C44   O27   D    
S2    O13   D    
C17   C26   A    
C35   C37   A    
C9    C16   A    
C10   C15   A    
C15   C16   A    
C39   H15   S    
C23   O7    A    
S1    O10   D    
C2    C7    S    
C33   C35   A    
C11   S4    S    
C7    C14   A    
C4    C40   A    
C27   H9    S    
S2    O14   S    
C31   C33   A    
Cu2   O2    S    
C34   C36   A    
C24   O6    A    
C5    C32   S    
C6    C31   S    
C3    C39   A    
C44   O28   S    
C3    C24   S    
C18   C25   A    
C1    O3    A    
C43   O26   S    
C2    O4    A    
C43   O25   D    
Cu1   O8    S    
C7    C12   A    
C40   H16   S    
S2    O12   D    
C35   H13   S    
Cu1   N1    S    
C21   N2    A    
C4    C6    A    
Cu2   N2    S    
C22   N1    A    
C41   O16   S    
C4    C23   S    
C19   H6    S    
Cu1   O5    S    
C25   C26   A    
O14   H18   S    
S4    O24   S    
C32   C34   A    
C37   H1    S    
S1    O11   S    
C38   H2    S    
C36   H14   S    
C42   O17   D    
C28   C38   A    
S4    O23   D    
C14   C41   S    
C20   N1    A    
C9    C11   A    
C10   C12   A    
C34   S2    S    
C42   O18   S    
C13   C15   A    
Cu2   O7    S    
C14   C16   A    
C5    C40   A    
C17   H7    S    
C18   H8    S    
C21   H4    S    
C21   C25   A    
C9    C43   S    
C12   S3    S    
C10   C44   S    
O11   H17   S    
C3    C5    A    
C1    O1    A    
C33   S1    S    
C19   N2    A    
C13   C42   S    
O26   H23   S    
C23   O5    A    
C36   C38   A    
C29   C31   A    
C30   C32   A    
C28   H10   S    
O21   H21   S    
C29   H11   S    
C27   C37   A    
C8    C11   A    
C28   C30   A    
S4    O22   D    
C17   C19   A    
C18   C20   A    
S1    O9    D    
C20   H5    S    
C24   O8    A    
C41   O15   D    
C22   H3    S    
C22   C26   A    
S3    O21   S    
O28   H24   S    
Cu2   O6    S    
S3    O20   D    
C6    C39   A    
Cu1   O4    S    
Cu2   O3    S    
C2    O2    A    
