data_mof_unit_14432.cif
_audit_creation_date              2012-12-10T19:00:03-0500
_audit_creation_method            fapswitch 2.2
_symmetry_space_group_name_H-M    P1
_symmetry_Int_Tables_number       1
_space_group_crystal_system       triclinic
_cell_length_a                    10.69213
_cell_length_b                    10.683864
_cell_length_c                    9.841303
_cell_angle_alpha                 89.974067
_cell_angle_beta                  90.451094
_cell_angle_gamma                 89.838477
_cell_volume                      1124.16471608

loop_
_atom_site_label
_atom_site_type_symbol
_atom_type_description
_atom_site_fract_x
_atom_site_fract_y
_atom_site_fract_z
_atom_type_partial_charge
C1    C     C_R   0.499509 0.259934 0.500015 0.943670
C2    C     C_R   0.500503 0.740065 0.499987 0.943681
C3    C     C_R   0.872107 0.497754 0.503399 -0.082778
C4    C     C_R   0.127898 0.502265 0.496602 -0.082785
C5    C     C_R   0.935319 0.596124 0.569474 -0.064958
C6    C     C_R   0.064692 0.403857 0.430594 -0.064751
C7    C     C_R   0.537628 0.064019 0.383258 -0.140651
C8    C     C_R   0.462437 0.935982 0.616762 -0.140994
C9    C     C_R   0.536875 0.935892 0.382903 -0.262684
C10   C     C_R   0.463198 0.064106 0.617120 -0.262694
C11   C     C_R   0.499506 0.872484 0.499740 0.023237
C12   C     C_R   0.500542 0.127516 0.500273 0.023338
C13   C     C_R   0.442271 0.593737 0.071359 -0.027309
C14   C     C_R   0.557729 0.406263 0.928641 -0.027245
C15   C     C_R   0.442127 0.593645 0.927497 -0.042970
C16   C     C_R   0.557875 0.406356 0.072503 -0.042856
C17   C     C_R   0.260401 0.499864 0.499211 0.965002
C18   C     C_R   0.739600 0.500149 0.500789 0.964908
C19   C     C_R   0.228303 0.202072 0.167355 -0.176653
C20   C     C_R   0.771576 0.796948 0.833494 -0.176389
C21   C     C_R   0.169167 0.304857 0.227581 0.332902
C22   C     C_R   0.830901 0.694455 0.772895 0.333095
C23   C     C_R   0.133964 0.299065 0.365273 0.003572
C24   C     C_R   0.866044 0.700709 0.635196 0.003602
C25   C     C_R   0.156841 0.189136 0.439761 -0.235222
C26   C     C_R   0.842983 0.810834 0.561098 -0.235291
C27   C     C_R   0.213426 0.086119 0.377873 -0.109698
C28   C     C_R   0.786220 0.913571 0.623368 -0.109520
C29   C     C_R   0.249790 0.092817 0.242105 -0.165821
C30   C     C_R   0.749860 0.906387 0.759121 -0.166072
C31   C     C_R   0.934951 0.400313 0.435652 -0.017158
C32   C     C_R   0.065054 0.599710 0.564343 -0.017109
H1    H     H_    0.294529 0.013186 0.194745 0.149299
H2    H     H_    0.704951 0.985783 0.806767 0.149052
H3    H     H_    0.395559 0.668375 0.872616 0.132488
H4    H     H_    0.604446 0.331627 0.127383 0.132473
H5    H     H_    0.256212 0.206233 0.061962 0.154489
H6    H     H_    0.743684 0.792408 0.938883 0.154452
H7    H     H_    0.128879 0.182699 0.545068 0.165247
H8    H     H_    0.870903 0.817631 0.455795 0.165123
H9    H     H_    0.229614 0.001175 0.435370 0.194189
H10   H     H_    0.769864 0.998667 0.566171 0.193999
H11   H     H_    0.567319 0.113072 0.292724 0.163622
H12   H     H_    0.432740 0.886931 0.707296 0.163686
H13   H     H_    0.566713 0.886789 0.292402 0.157685
H14   H     H_    0.433360 0.113207 0.707623 0.157767
H15   H     H_    0.395733 0.668504 0.125333 0.140287
H16   H     H_    0.604266 0.331497 0.874667 0.140399
N1    N     N_R   0.499970 0.499970 0.857200 -0.085442
N2    N     N_R   0.500030 0.500030 0.142800 -0.085405
O1    O     O_R   0.499990 0.316750 0.614620 -0.643305
O2    O     O_R   0.500010 0.683250 0.385380 -0.643375
O3    O     O_R   0.499990 0.316780 0.385290 -0.622829
O4    O     O_R   0.500010 0.683220 0.614710 -0.622785
O5    O     O_R   0.316760 0.500000 0.614660 -0.612632
O6    O     O_R   0.683240 0.500000 0.385340 -0.612757
O7    O     O_R   0.316760 0.500020 0.385330 -0.594689
O8    O     O_R   0.683240 0.499980 0.614670 -0.594737
Zn1   Zn    Zn3+2 0.500000 0.499980 0.653120 0.990322
Zn2   Zn    Zn3+2 0.500000 0.500020 0.346880 0.990259
Br1   Br    Br    0.135058 0.449628 0.118110 -0.495483
Br2   Br    Br    0.865297 0.549410 0.881869 -0.495590
C33   C     C_2   0.867305 0.292344 0.373469 0.396206
H17   H     H_    0.901409 0.249728 0.280776 0.093575
O9    O     O_2   0.776569 0.246435 0.428575 -0.625148
C34   C     C_2   0.132694 0.707678 0.626529 0.395963
H18   H     H_    0.098550 0.750329 0.719192 0.093521
O10   O     O_2   0.223467 0.753554 0.571466 -0.625327

loop_
_geom_bond_atom_site_label_1
_geom_bond_atom_site_label_2
_ccdc_geom_bond_type
C10   H14   S    
C34   O10   D    
C33   O9    D    
C9    H13   S    
C1    O3    A    
C7    H11   S    
C22   Br2   S    
C20   H6    S    
C19   H5    S    
C27   H9    S    
C21   Br1   S    
N1    Zn1   S    
C18   O6    A    
C25   C27   A    
C5    C32   A    
N2    Zn2   S    
C7    C9    A    
C28   C30   A    
C6    C31   A    
C20   C30   A    
C16   H4    S    
C15   N1    A    
C3    C31   A    
C9    C11   A    
C26   H8    S    
C4    C32   A    
C1    C12   S    
C2    O2    A    
C8    C11   A    
C6    C23   S    
C10   C12   A    
C22   C24   A    
C28   H10   S    
C19   C21   A    
O3    Zn2   S    
C20   C22   A    
C34   H18   S    
O5    Zn1   S    
O4    Zn1   S    
C13   C15   A    
C21   C23   A    
C7    C12   A    
C16   N2    A    
C14   C16   A    
C4    C6    A    
C27   C29   A    
C30   H2    S    
C13   N2    A    
C19   C29   A    
C31   C33   S    
C23   C25   A    
O1    Zn1   S    
C14   N1    A    
C3    C18   S    
C32   C34   S    
C2    O4    A    
C15   H3    S    
C13   H15   S    
C14   H16   S    
C17   O5    A    
C5    C24   S    
O7    Zn2   S    
C2    C11   S    
C1    O1    A    
O2    Zn2   S    
O8    Zn1   S    
C17   O7    A    
C26   C28   A    
C18   O8    A    
C8    C10   A    
C25   H7    S    
O6    Zn2   S    
C29   H1    S    
C24   C26   A    
C33   H17   S    
C3    C5    A    
C8    H12   S    
C4    C17   S    
