data_mof_unit_65379.cif
_audit_creation_date              2012-12-10T18:05:23-0500
_audit_creation_method            fapswitch 2.2
_symmetry_space_group_name_H-M    P1
_symmetry_Int_Tables_number       1
_space_group_crystal_system       triclinic
_cell_length_a                    30.777577
_cell_length_b                    30.675554
_cell_length_c                    23.520754
_cell_angle_alpha                 89.966803
_cell_angle_beta                  130.713942
_cell_angle_gamma                 89.97239
_cell_volume                      16831.8935137

loop_
_atom_site_label
_atom_site_type_symbol
_atom_type_description
_atom_site_fract_x
_atom_site_fract_y
_atom_site_fract_z
_atom_type_partial_charge
C1    C     C_R   0.809001 0.809498 0.499447 0.802059
C2    C     C_R   0.190515 0.809431 0.499441 0.801065
C3    C     C_R   0.309268 0.309344 0.500147 0.804763
C4    C     C_R   0.691034 0.309476 0.500600 0.801991
C5    C     C_R   0.442687 0.748960 0.885397 0.048719
C6    C     C_R   0.557091 0.749039 0.114501 0.049537
C7    C     C_R   0.942650 0.249043 0.885496 0.049623
C8    C     C_R   0.057062 0.248976 0.114601 0.048637
C9    C     C_1   0.482999 0.749333 0.966158 0.011026
C10   C     C_1   0.516677 0.749368 0.033737 0.010878
C11   C     C_1   0.983022 0.249374 0.966259 0.011006
C12   C     C_1   0.016703 0.249347 0.033839 0.010925
C13   C     C_R   0.901943 0.841957 0.552053 0.106431
C14   C     C_R   0.162932 0.849346 0.562216 0.097509
C15   C     C_R   0.351095 0.342764 0.450422 0.120540
C16   C     C_R   0.598298 0.343269 0.445799 0.104460
C17   C     C_R   0.842209 0.843566 0.500753 -0.083295
C18   C     C_R   0.158253 0.843414 0.499736 -0.069966
C19   C     C_R   0.342747 0.342707 0.501560 -0.084091
C20   C     C_R   0.657976 0.343513 0.499585 -0.080765
C21   C     C_R   0.814862 0.880808 0.455351 -0.203639
C22   C     C_R   0.127664 0.874161 0.441360 -0.209661
C23   C     C_R   0.367629 0.376826 0.554472 -0.210137
C24   C     C_R   0.685670 0.379617 0.547696 -0.204462
C25   C     C_R   0.846993 0.912837 0.454764 -0.214296
C26   C     C_R   0.095466 0.906490 0.441301 -0.211329
C27   C     C_R   0.400538 0.409042 0.554924 -0.210973
C28   C     C_R   0.653513 0.411707 0.548170 -0.214364
C29   C     C_R   0.906758 0.908417 0.501470 -0.080681
C30   C     C_R   0.095228 0.908899 0.500832 -0.095317
C31   C     C_R   0.407101 0.408113 0.500838 -0.093172
C32   C     C_R   0.593474 0.408518 0.498690 -0.083216
C33   C     C_R   0.933774 0.874200 0.553074 0.139056
C34   C     C_R   0.132239 0.881785 0.563020 0.145644
C35   C     C_R   0.380744 0.374449 0.449039 0.127539
C36   C     C_R   0.566530 0.375611 0.444697 0.142614
C37   C     C_3   0.976581 0.842141 0.567669 -0.504158
C38   C     C_3   0.120291 0.853439 0.603080 -0.475556
C39   C     C_3   0.371289 0.355355 0.383536 -0.472755
C40   C     C_3   0.521463 0.344155 0.424818 -0.501720
C41   C     C_3   0.941615 0.806749 0.566700 -0.447105
C42   C     C_3   0.154120 0.817791 0.602142 -0.469973
C43   C     C_3   0.336917 0.319397 0.384727 -0.474997
C44   C     C_3   0.556514 0.308593 0.426187 -0.452004
C45   C     C_R   0.677717 0.749944 0.355475 0.808851
C46   C     C_R   0.322240 0.749927 0.644493 0.809980
C47   C     C_R   0.177729 0.249945 0.355497 0.808645
C48   C     C_R   0.822249 0.249930 0.644516 0.808299
C49   C     C_R   0.049274 0.722339 0.153934 -0.158787
C50   C     C_R   0.950884 0.722180 0.846092 -0.159586
C51   C     C_R   0.549345 0.222229 0.153965 -0.159698
C52   C     C_R   0.450969 0.222304 0.846121 -0.158489
C53   C     C_R   0.088417 0.722241 0.232350 -0.188944
C54   C     C_R   0.911649 0.722070 0.767672 -0.196640
C55   C     C_R   0.588507 0.222129 0.232381 -0.196829
C56   C     C_R   0.411753 0.222196 0.767702 -0.188489
C57   C     C_R   0.136296 0.750111 0.272395 -0.034703
C58   C     C_R   0.863794 0.750045 0.727605 -0.035951
C59   C     C_R   0.636306 0.250079 0.272404 -0.035921
C60   C     C_R   0.363805 0.250077 0.727614 -0.034467
C61   C     C_R   0.144082 0.778054 0.232197 -0.195503
C62   C     C_R   0.856107 0.778086 0.767772 -0.189485
C63   C     C_R   0.644007 0.278088 0.232190 -0.189537
C64   C     C_R   0.356021 0.278039 0.767765 -0.195235
C65   C     C_R   0.104862 0.778084 0.153767 -0.159438
C66   C     C_R   0.895414 0.778128 0.846194 -0.158734
C67   C     C_R   0.604770 0.278120 0.153763 -0.158670
C68   C     C_R   0.395309 0.278079 0.846190 -0.159308
C69   C     C_R   0.057410 0.750240 0.114505 0.146098
C70   C     C_R   0.942857 0.750198 0.885488 0.146166
C71   C     C_R   0.557385 0.250210 0.114519 0.146146
C72   C     C_R   0.442834 0.250228 0.885501 0.146055
C73   C     C_1   0.017080 0.750275 0.033802 -0.065270
C74   C     C_1   0.983256 0.750257 0.966190 -0.065463
C75   C     C_1   0.517034 0.250264 0.033816 -0.065391
C76   C     C_1   0.483210 0.250269 0.966204 -0.065115
C77   C     C_R   0.681477 0.620635 0.542542 0.126681
C78   C     C_R   0.362801 0.621485 0.544764 0.128116
C79   C     C_R   0.136916 0.121658 0.454886 0.128038
C80   C     C_R   0.818502 0.120687 0.457460 0.126615
C81   C     C_R   0.656557 0.657656 0.498193 -0.092074
C82   C     C_R   0.341702 0.657690 0.498377 -0.089899
C83   C     C_R   0.158245 0.157696 0.501538 -0.089696
C84   C     C_R   0.843415 0.157667 0.501737 -0.091994
C85   C     C_R   0.596568 0.662248 0.452198 -0.208970
C86   C     C_R   0.354049 0.661522 0.450393 -0.207752
C87   C     C_R   0.146068 0.161385 0.549716 -0.207755
C88   C     C_R   0.903376 0.162245 0.547571 -0.209007
C89   C     C_R   0.690597 0.690652 0.499790 0.804245
C90   C     C_R   0.309227 0.690667 0.499888 0.804367
C91   C     C_R   0.190755 0.190664 0.500086 0.804360
C92   C     C_R   0.809393 0.190658 0.500199 0.804204
C93   C     C_R   0.564081 0.629632 0.451738 -0.211190
C94   C     C_R   0.386097 0.628902 0.449956 -0.210342
C95   C     C_R   0.114006 0.128784 0.550120 -0.210113
C96   C     C_R   0.935860 0.129633 0.547988 -0.211212
C97   C     C_R   0.591643 0.593007 0.499209 -0.086169
C98   C     C_R   0.407661 0.593071 0.499375 -0.088374
C99   C     C_R   0.092236 0.093109 0.500474 -0.089020
C100  C     C_R   0.908312 0.093035 0.500634 -0.086075
C101  C     C_R   0.650660 0.590278 0.544229 0.125659
C102  C     C_R   0.395321 0.591150 0.546402 0.127743
C103  C     C_R   0.104371 0.091351 0.453215 0.127794
C104  C     C_R   0.849315 0.090331 0.455730 0.125433
C105  C     C_3   0.701626 0.562851 0.600939 -0.482582
C106  C     C_3   0.403086 0.564732 0.605587 -0.479347
C107  C     C_3   0.096414 0.065111 0.393793 -0.478114
C108  C     C_3   0.798392 0.062898 0.399266 -0.482742
C109  C     C_3   0.736971 0.597806 0.599654 -0.470374
C110  C     C_3   0.366434 0.599685 0.604321 -0.479912
C111  C     C_3   0.133082 0.100032 0.395096 -0.480748
C112  C     C_3   0.763043 0.097861 0.400587 -0.469979
C113  C     C_R   0.440503 0.559435 0.499919 0.803925
C114  C     C_R   0.559416 0.559415 0.499916 0.803771
C115  C     C_R   0.940561 0.059416 0.500032 0.803939
C116  C     C_R   0.059466 0.059444 0.500028 0.804490
C117  C     C_R   0.940594 0.940492 0.500176 0.798351
C118  C     C_R   0.059741 0.940584 0.500046 0.797780
C119  C     C_R   0.440488 0.440697 0.500131 0.803417
C120  C     C_R   0.559481 0.440523 0.499875 0.799029
C121  C     C_R   0.822247 0.749995 0.644549 0.786436
C122  C     C_R   0.177776 0.750024 0.355457 0.781898
C123  C     C_R   0.322255 0.250006 0.644552 0.783151
C124  C     C_R   0.677784 0.250013 0.355461 0.785984
C125  C     C_R   0.446344 0.780838 0.846110 -0.239452
C126  C     C_R   0.551423 0.779339 0.153752 -0.239770
C127  C     C_R   0.948313 0.279318 0.846179 -0.239857
C128  C     C_R   0.053405 0.280882 0.153816 -0.239551
C129  C     C_R   0.407499 0.780987 0.767768 -0.187299
C130  C     C_R   0.590374 0.779490 0.232104 -0.192344
C131  C     C_R   0.909438 0.279457 0.767831 -0.192424
C132  C     C_R   0.092325 0.281037 0.232161 -0.188169
C133  C     C_R   0.363835 0.749545 0.727499 -0.089671
C134  C     C_R   0.636057 0.749592 0.272427 -0.087782
C135  C     C_R   0.863831 0.249570 0.727566 -0.087706
C136  C     C_R   0.136062 0.249578 0.272495 -0.090066
C137  C     C_R   0.360247 0.717645 0.767249 -0.296983
C138  C     C_R   0.641629 0.719272 0.232676 -0.288451
C139  C     C_R   0.858258 0.219276 0.767380 -0.288403
C140  C     C_R   0.139648 0.217653 0.232815 -0.296452
C141  C     C_R   0.400406 0.716496 0.846133 0.468910
C142  C     C_R   0.601547 0.718154 0.153798 0.468083
C143  C     C_R   0.898272 0.218169 0.846270 0.468128
C144  C     C_R   0.099420 0.216496 0.153943 0.469003
Cu1   Cu    Cu3+1 0.780910 0.719080 0.500000 0.935421
Cu2   Cu    Cu3+1 0.219090 0.719080 0.500000 0.938007
Cu3   Cu    Cu3+1 0.280910 0.219080 0.500000 0.939701
Cu4   Cu    Cu3+1 0.719090 0.219080 0.500000 0.935691
Cu5   Cu    Cu3+1 0.719070 0.780890 0.500010 0.940990
Cu6   Cu    Cu3+1 0.280930 0.780890 0.499990 0.942561
Cu7   Cu    Cu3+1 0.219070 0.280890 0.500010 0.941488
Cu8   Cu    Cu3+1 0.780930 0.280890 0.499990 0.941141
Cu9   Cu    Cu3+1 0.462710 0.500000 0.425470 0.945422
Cu10  Cu    Cu3+1 0.537290 0.500000 0.574530 0.944638
Cu11  Cu    Cu3+1 0.962710 0.000000 0.425470 0.943734
Cu12  Cu    Cu3+1 0.037290 0.000000 0.574530 0.946756
H1    H     H_    0.479297 0.805662 0.876118 0.155015
H2    H     H_    0.516828 0.802937 0.123711 0.154054
H3    H     H_    0.982852 0.302904 0.876168 0.154064
H4    H     H_    0.020397 0.305721 0.123749 0.155019
H5    H     H_    0.964373 0.791114 0.622318 0.195727
H6    H     H_    0.127438 0.789366 0.566788 0.212554
H7    H     H_    0.357386 0.286704 0.400026 0.207785
H8    H     H_    0.534959 0.294283 0.370023 0.195856
H9    H     H_    0.012672 0.700651 0.124071 0.132902
H10   H     H_    0.987472 0.700415 0.875981 0.132292
H11   H     H_    0.512801 0.200484 0.124115 0.132338
H12   H     H_    0.487624 0.200606 0.876024 0.132970
H13   H     H_    0.081144 0.700339 0.261525 0.154816
H14   H     H_    0.918835 0.700085 0.738512 0.153054
H15   H     H_    0.581309 0.200168 0.261573 0.153170
H16   H     H_    0.419025 0.200281 0.738558 0.154851
H17   H     H_    0.180447 0.799905 0.261262 0.153380
H18   H     H_    0.819758 0.800016 0.738688 0.154760
H19   H     H_    0.680314 0.299998 0.261240 0.154774
H20   H     H_    0.319602 0.299900 0.738667 0.153224
H21   H     H_    0.111556 0.799817 0.123769 0.132203
H22   H     H_    0.888796 0.799944 0.876165 0.132816
H23   H     H_    0.611393 0.299913 0.123752 0.132910
H24   H     H_    0.388610 0.299826 0.876149 0.132168
H25   H     H_    0.574934 0.690490 0.416229 0.155318
H26   H     H_    0.338399 0.689155 0.412878 0.154335
H27   H     H_    0.161877 0.188887 0.587425 0.154131
H28   H     H_    0.924990 0.190465 0.583464 0.155446
H29   H     H_    0.518004 0.633326 0.415552 0.150419
H30   H     H_    0.394687 0.631984 0.412204 0.151610
H31   H     H_    0.105587 0.131755 0.588059 0.151777
H32   H     H_    0.981925 0.133296 0.584075 0.150451
H33   H     H_    0.710547 0.561274 0.654928 0.207419
H34   H     H_    0.381750 0.532425 0.584391 0.192559
H35   H     H_    0.117677 0.032729 0.414763 0.194214
H36   H     H_    0.789332 0.061306 0.345189 0.207510
H37   H     H_    0.700390 0.530922 0.577582 0.191705
H38   H     H_    0.448451 0.564061 0.658725 0.205874
H39   H     H_    0.051013 0.064625 0.340730 0.205591
H40   H     H_    0.799792 0.030978 0.422827 0.191051
H41   H     H_    0.766001 0.616604 0.652739 0.196093
H42   H     H_    0.324115 0.587477 0.582914 0.206104
H43   H     H_    0.175331 0.087729 0.416298 0.206278
H44   H     H_    0.733872 0.116657 0.347437 0.196112
H45   H     H_    0.411320 0.806022 0.738781 0.165269
H46   H     H_    0.584947 0.803278 0.261044 0.163696
H47   H     H_    0.914864 0.303229 0.738847 0.163806
H48   H     H_    0.088505 0.306089 0.261097 0.165265
H49   H     H_    0.756495 0.585964 0.576077 0.205589
H50   H     H_    0.390758 0.619388 0.656537 0.191077
H51   H     H_    0.108732 0.119904 0.342984 0.191181
H52   H     H_    0.743677 0.086027 0.424381 0.205538
H53   H     H_    0.326394 0.693553 0.737252 0.159962
H54   H     H_    0.677075 0.696467 0.262646 0.160978
H55   H     H_    0.822865 0.196485 0.737449 0.161008
H56   H     H_    0.173553 0.193542 0.262859 0.160104
H57   H     H_    0.768656 0.884035 0.417873 0.153089
H58   H     H_    0.126558 0.871894 0.394463 0.145150
H59   H     H_    0.362369 0.378193 0.595705 0.150807
H60   H     H_    0.732013 0.381852 0.587178 0.151709
H61   H     H_    0.825273 0.940453 0.417175 0.148385
H62   H     H_    0.069912 0.928771 0.394263 0.158614
H63   H     H_    0.419936 0.434777 0.596422 0.153648
H64   H     H_    0.675381 0.438380 0.587774 0.150672
H65   H     H_    0.976139 0.839768 0.520119 0.190383
H66   H     H_    0.141478 0.865640 0.660366 0.203062
H67   H     H_    0.344553 0.376711 0.333211 0.207773
H68   H     H_    0.519254 0.340726 0.469962 0.191958
H69   H     H_    0.019604 0.846814 0.623750 0.202765
H70   H     H_    0.074038 0.845690 0.568152 0.189769
H71   H     H_    0.411688 0.343375 0.398537 0.191972
H72   H     H_    0.479724 0.350349 0.367856 0.201045
H73   H     H_    0.921196 0.783800 0.518820 0.211128
H74   H     H_    0.194942 0.809537 0.658881 0.199364
H75   H     H_    0.290255 0.320216 0.335372 0.198150
H76   H     H_    0.574654 0.284533 0.472159 0.211796
O1    O     O_R   0.821190 0.768980 0.500000 -0.585345
O2    O     O_R   0.178810 0.768980 0.500000 -0.584753
O3    O     O_R   0.321190 0.268980 0.500000 -0.582447
O4    O     O_R   0.678810 0.268980 0.500000 -0.585038
O5    O     O_R   0.486270 0.545120 0.562900 -0.586711
O6    O     O_R   0.513730 0.545120 0.437100 -0.588731
O7    O     O_R   0.986270 0.045120 0.562900 -0.588668
O8    O     O_R   0.013730 0.045120 0.437100 -0.586433
O9    O     O_R   0.923420 0.954920 0.437060 -0.585789
O10   O     O_R   0.076580 0.954920 0.562940 -0.583696
O11   O     O_R   0.423420 0.454920 0.437060 -0.585406
O12   O     O_R   0.576580 0.454920 0.562940 -0.586193
O13   O     O_R   0.986330 0.954940 0.562940 -0.583898
O14   O     O_R   0.013670 0.954940 0.437060 -0.588981
O15   O     O_R   0.486330 0.454940 0.562940 -0.588378
O16   O     O_R   0.513670 0.454940 0.437060 -0.584188
O17   O     O_R   0.768960 0.821170 0.500020 -0.585407
O18   O     O_R   0.231040 0.821170 0.499980 -0.583519
O19   O     O_R   0.268960 0.321170 0.500020 -0.585380
O20   O     O_R   0.731040 0.321170 0.499980 -0.585006
O21   O     O_R   0.721730 0.723890 0.391250 -0.587502
O22   O     O_R   0.278270 0.723890 0.608750 -0.589878
O23   O     O_R   0.221730 0.223890 0.391250 -0.590225
O24   O     O_R   0.778270 0.223890 0.608750 -0.587355
O25   O     O_R   0.669500 0.776090 0.391270 -0.592435
O26   O     O_R   0.330500 0.776090 0.608730 -0.586991
O27   O     O_R   0.169500 0.276090 0.391270 -0.587150
O28   O     O_R   0.830500 0.276090 0.608730 -0.592444
O29   O     O_R   0.731010 0.678810 0.499990 -0.585237
O30   O     O_R   0.268990 0.678810 0.500010 -0.584455
O31   O     O_R   0.231010 0.178810 0.499990 -0.584529
O32   O     O_R   0.768990 0.178810 0.500010 -0.585239
O33   O     O_R   0.678790 0.731000 0.500010 -0.584883
O34   O     O_R   0.321210 0.731000 0.499990 -0.584848
O35   O     O_R   0.178790 0.231000 0.500010 -0.584824
O36   O     O_R   0.821210 0.231000 0.499990 -0.584890
O37   O     O_R   0.830470 0.723890 0.608750 -0.590474
O38   O     O_R   0.169530 0.723890 0.391250 -0.587108
O39   O     O_R   0.330470 0.223890 0.608750 -0.586968
O40   O     O_R   0.669530 0.223890 0.391250 -0.590482
O41   O     O_R   0.778250 0.776080 0.608760 -0.585963
O42   O     O_R   0.221750 0.776080 0.391240 -0.591462
O43   O     O_R   0.278250 0.276080 0.608760 -0.591719
O44   O     O_R   0.721750 0.276080 0.391240 -0.585946
O45   O     O_R   0.423360 0.545090 0.437020 -0.588651
O46   O     O_R   0.576640 0.545090 0.562980 -0.586006
O47   O     O_R   0.923360 0.045090 0.437020 -0.585950
O48   O     O_R   0.076640 0.045090 0.562980 -0.588479
O49   O     O_3   0.396625 0.685466 0.885531 -0.612907
C145  C     C_3   0.409394 0.643960 0.873658 0.043018
H77   H     H_    0.449712 0.644718 0.882506 0.131205
H78   H     H_    0.373433 0.632421 0.815787 0.142267
C146  C     C_3   0.417525 0.611659 0.929387 -0.306776
H79   H     H_    0.454375 0.622126 0.987480 0.218478
H80   H     H_    0.378425 0.611331 0.923024 0.227310
C147  C     C_3   0.428630 0.565681 0.916658 -0.943001
H81   H     H_    0.391219 0.553975 0.859851 0.258052
H82   H     H_    0.435624 0.543193 0.958982 0.258214
H83   H     H_    0.467339 0.565211 0.922218 0.262531
O50   O     O_3   0.607505 0.688916 0.114426 -0.612502
C148  C     C_3   0.597404 0.646200 0.125911 0.044349
H84   H     H_    0.557014 0.644544 0.116816 0.131864
H85   H     H_    0.634014 0.634976 0.183764 0.144060
C149  C     C_3   0.591521 0.615525 0.070096 -0.308026
H86   H     H_    0.554039 0.625603 0.012024 0.218324
H87   H     H_    0.630623 0.617681 0.076608 0.228059
C150  C     C_3   0.583515 0.568399 0.082495 -0.940951
H88   H     H_    0.621659 0.557161 0.139257 0.258808
H89   H     H_    0.578061 0.547098 0.040081 0.257717
H90   H     H_    0.544876 0.565439 0.076821 0.262902
O51   O     O_3   0.892320 0.188956 0.885709 -0.612459
C151  C     C_3   0.902493 0.146220 0.874395 0.044399
H91   H     H_    0.942885 0.144516 0.883496 0.131846
H92   H     H_    0.865901 0.135008 0.816589 0.144089
C152  C     C_3   0.908427 0.115572 0.930334 -0.307995
H93   H     H_    0.945890 0.125641 0.988365 0.218312
H94   H     H_    0.869320 0.117773 0.923808 0.228088
C153  C     C_3   0.916519 0.068429 0.918130 -0.941023
H95   H     H_    0.878398 0.057202 0.861412 0.258820
H96   H     H_    0.922008 0.047147 0.960628 0.257666
H97   H     H_    0.955166 0.065425 0.923822 0.262917
O52   O     O_3   0.103204 0.185438 0.114623 -0.612779
C154  C     C_3   0.090495 0.143961 0.126665 0.043007
H98   H     H_    0.050169 0.144776 0.117796 0.131196
H99   H     H_    0.126466 0.132415 0.184589 0.142283
C155  C     C_3   0.082427 0.111626 0.071083 -0.306693
H100  H     H_    0.045565 0.122098 0.012942 0.218473
H101  H     H_    0.121534 0.111245 0.077460 0.227371
C156  C     C_3   0.071396 0.065674 0.084009 -0.942956
H102  H     H_    0.108822 0.053961 0.140869 0.258124
H103  H     H_    0.064446 0.043161 0.041787 0.258213
H104  H     H_    0.032683 0.065256 0.078440 0.262497

loop_
_geom_bond_atom_site_label_1
_geom_bond_atom_site_label_2
_ccdc_geom_bond_type
C99   C103  A    
Cu2   O2    S    
C133  C137  A    
C55   C59   A    
C47   C136  S    
C26   H62   S    
Cu4   O40   S    
C48   C135  S    
C109  H41   S    
Cu5   O33   S    
C136  C140  A    
C23   H59   S    
C135  C139  A    
Cu10  O5    S    
C145  H77   S    
Cu1   O1    S    
Cu12  O13   S    
C122  O42   A    
C95   C99   A    
Cu4   Cu8   S    
C29   C33   A    
C100  C104  A    
C3    O3    A    
Cu2   Cu6   S    
C77   C101  A    
C151  C152  S    
C1    O1    A    
C70   C74   S    
C3    C19   S    
C16   C44   S    
C130  H46   S    
C38   H70   S    
C28   H64   S    
C49   C69   A    
Cu2   O22   S    
C130  C134  A    
C100  C115  S    
C51   C71   A    
C91   O35   A    
C25   C29   A    
C153  H96   S    
C27   C31   A    
C147  H83   S    
C105  H33   S    
C28   C32   A    
C4    O20   A    
Cu8   O44   S    
C113  O45   A    
C99   C116  S    
C62   C66   A    
O52   C154  S    
C98   C102  A    
C17   C21   A    
C19   C23   A    
C75   C76   T    
C13   C33   A    
C52   C72   A    
C78   C82   A    
O51   C151  S    
Cu10  O46   S    
C16   C20   A    
C80   C112  S    
C92   O32   A    
Cu12  O10   S    
C129  C133  A    
C149  H86   S    
Cu11  O8    S    
C89   O29   A    
Cu3   O31   S    
C91   O31   A    
C59   C124  S    
C48   O28   A    
C155  C156  S    
C84   C88   A    
C118  O14   A    
C57   C61   A    
C83   C91   S    
C59   C63   A    
C60   C64   A    
C50   C70   A    
C37   H65   S    
C146  H80   S    
C144  O52   S    
C115  O7    A    
C66   C70   A    
C49   C53   A    
Cu3   O23   S    
C125  H1    S    
C127  C131  A    
C92   O36   A    
C61   C65   A    
C156  H102  S    
Cu11  Cu12  S    
C126  C130  A    
C103  C107  S    
C152  H94   S    
C112  H44   S    
C46   O26   A    
C51   H11   S    
C7    C143  A    
Cu7   O27   S    
C106  H38   S    
Cu8   O36   S    
C64   C68   A    
Cu2   O38   S    
C3    O19   A    
C87   H27   S    
C1    O17   A    
C88   H28   S    
Cu9   O16   S    
C119  O15   A    
Cu11  O47   S    
C139  C143  A    
C8    C128  A    
C149  C150  S    
C87   C95   A    
C64   H20   S    
C9    C10   T    
C51   C55   A    
C8    C12   S    
C114  O6    A    
C129  H45   S    
C151  H92   S    
C4    O4    A    
C79   C103  A    
C123  O43   A    
Cu6   O18   S    
Cu12  O7    S    
C142  O50   S    
C30   C34   A    
C116  O48   A    
C110  H50   S    
C30   C118  S    
C138  H54   S    
C147  H82   S    
C40   H72   S    
C60   C123  S    
C77   C109  S    
C5    C9    S    
C148  H84   S    
C125  C129  A    
C132  C136  A    
C156  H104  S    
Cu4   O32   S    
C109  H49   S    
Cu5   O25   S    
Cu4   O24   S    
Cu9   O11   S    
Cu1   O29   S    
C21   H57   S    
C6    C142  A    
C106  H34   S    
C121  O37   A    
Cu8   O20   S    
C123  O39   A    
C21   C25   A    
C124  O40   A    
C154  C155  S    
C85   H25   S    
C18   C22   A    
C127  H3    S    
C107  C111  S    
C24   C28   A    
C14   C34   A    
C42   H6    S    
C26   C30   A    
C52   H12   S    
C145  H78   S    
C13   C17   A    
C152  C153  S    
C15   C43   S    
C16   C36   A    
C24   H60   S    
C65   H21   S    
Cu3   Cu7   S    
C96   C100  A    
C149  H87   S    
C89   O33   A    
C37   C41   S    
C90   O30   A    
C150  H90   S    
C40   C44   S    
Cu10  O15   S    
C145  C146  S    
C107  H35   S    
C108  H36   S    
C84   C92   S    
C7    C127  A    
C97   C114  S    
Cu7   O43   S    
C81   C85   A    
C118  O10   A    
C93   H29   S    
C58   C62   A    
C83   C87   A    
C88   C96   A    
C27   H63   S    
C41   H5    S    
C110  H42   S    
C73   C74   T    
C54   H14   S    
C111  H51   S    
C25   H61   S    
C80   C84   A    
C39   H67   S    
C13   C41   S    
C95   H31   S    
C15   C19   A    
C50   C54   A    
Cu9   O6    S    
C80   C104  A    
Cu12  O48   S    
C148  C149  S    
C106  C110  S    
C43   H75   S    
C94   C98   A    
Cu9   O45   S    
C96   H32   S    
Cu3   O39   S    
C57   C122  S    
C2    O2    A    
C47   O27   A    
C50   H10   S    
C69   C73   S    
C108  H40   S    
C131  H47   S    
Cu6   O34   S    
C39   H71   S    
C53   H13   S    
C81   C89   S    
C37   H69   S    
C154  H98   S    
C56   H16   S    
Cu1   O21   S    
C55   H15   S    
Cu5   O17   S    
Cu10  O12   S    
C132  H48   S    
C152  H93   S    
C94   H30   S    
C6    C126  A    
C138  C142  A    
C53   C57   A    
C98   C113  S    
Cu7   O19   S    
C82   C86   A    
C33   C37   S    
C108  C112  S    
C137  H53   S    
C68   C72   A    
Cu5   O41   S    
C35   C39   S    
C150  H88   S    
C47   O23   A    
C146  H79   S    
C93   C97   A    
C77   C81   A    
C31   C119  S    
Cu11  O9    S    
Cu7   O35   S    
C49   H9    S    
C31   C35   A    
C32   C36   A    
C104  C108  S    
C140  H56   S    
C115  O47   A    
C137  C141  A    
C153  H95   S    
C58   C121  S    
C1    C17   S    
C140  C144  A    
C6    C10   S    
C45   O25   A    
C117  O13   A    
C82   C90   S    
C38   H66   S    
C67   H23   S    
C46   C133  S    
C79   C83   A    
C105  C109  S    
C65   C69   A    
Cu6   O42   S    
Cu2   O30   S    
C67   C71   A    
C121  O41   A    
C122  O38   A    
C56   C60   A    
C22   C26   A    
C86   H26   S    
C44   H8    S    
C46   O22   A    
Cu1   Cu5   S    
C153  H97   S    
C43   H7    S    
C105  H37   S    
C2    C18   S    
C14   C18   A    
C72   C76   S    
C107  H39   S    
C7    C11   S    
C66   H22   S    
C45   C134  S    
C40   H68   S    
O50   C148  S    
C90   O34   A    
C38   C42   S    
C146  C147  S    
C131  C135  A    
C2    O18   A    
C62   H18   S    
Cu1   O37   S    
C120  O12   A    
C86   C94   A    
C111  H43   S    
C20   C24   A    
C156  H103  S    
C155  H101  S    
C23   C27   A    
C48   O24   A    
C143  O51   S    
C14   C42   S    
C113  O5    A    
C85   C93   A    
C32   C120  S    
C128  C132  A    
C15   C35   A    
C126  H2    S    
C101  C105  S    
C63   C67   A    
C154  H99   S    
C36   C40   S    
C61   H17   S    
C112  H52   S    
C39   C43   S    
C139  H55   S    
O49   C145  S    
Cu3   O3    S    
C29   C117  S    
C68   H24   S    
Cu4   O4    S    
C155  H100  S    
Cu8   O28   S    
C5    C141  A    
C141  O49   S    
C78   C110  S    
C150  H89   S    
C151  H91   S    
C41   H73   S    
C22   H58   S    
C5    C125  A    
C42   H74   S    
C128  H4    S    
C54   C58   A    
Cu11  O14   S    
C34   C38   S    
C134  C138  A    
C11   C12   T    
C63   H19   S    
C4    C20   S    
C120  O16   A    
C116  O8    A    
C79   C111  S    
C147  H81   S    
C44   H76   S    
C148  H85   S    
Cu6   O26   S    
C71   C75   S    
C124  O44   A    
C102  C106  S    
C114  O46   A    
C8    C144  A    
C78   C102  A    
Cu9   Cu10  S    
C119  O11   A    
C97   C101  A    
C52   C56   A    
C45   O21   A    
C117  O9    A    
