data_mof_unit_48453.cif
_audit_creation_date              2012-12-11T16:48:29-0500
_audit_creation_method            fapswitch 2.2
_symmetry_space_group_name_H-M    P1
_symmetry_Int_Tables_number       1
_space_group_crystal_system       triclinic
_cell_length_a                    17.289796
_cell_length_b                    24.225203
_cell_length_c                    15.191587
_cell_angle_alpha                 89.414474
_cell_angle_beta                  125.814078
_cell_angle_gamma                 89.993444
_cell_volume                      5159.4515944

loop_
_atom_site_label
_atom_site_type_symbol
_atom_type_description
_atom_site_fract_x
_atom_site_fract_y
_atom_site_fract_z
_atom_type_partial_charge
C1    C     C_R   0.358184 0.345984 0.912542 -0.143592
C2    C     C_R   0.440912 0.499227 0.638827 0.012158
C3    C     C_R   0.056435 0.847552 0.909049 -0.121730
C4    C     C_R   0.385812 0.314108 0.002486 0.050032
C5    C     C_R   0.613175 0.314169 0.999456 0.059360
C6    C     C_R   0.885815 0.814108 0.002487 0.050025
C7    C     C_R   0.113181 0.814172 0.999450 0.059364
C8    C     C_3   0.986903 0.538292 0.372261 0.213591
C9    C     C_3   0.080424 0.542835 0.383375 -0.258862
C10   C     C_3   0.078196 0.591596 0.317507 -1.018186
C11   C     C_3   0.023492 0.583631 0.711094 0.151773
C12   C     C_3   0.935873 0.564041 0.704541 -0.311934
C13   C     C_R   0.050050 0.997975 0.355797 0.002846
C14   C     C_3   0.923477 0.596883 0.780872 -0.967485
C15   C     C_3   0.486718 0.038123 0.371850 0.213744
C16   C     C_3   0.580291 0.042750 0.383108 -0.258974
C17   C     C_3   0.577725 0.091236 0.316493 -1.018316
C18   C     C_3   0.523459 0.083605 0.711177 0.151774
C19   C     C_3   0.435845 0.063983 0.704604 -0.311957
C20   C     C_3   0.423393 0.096813 0.780903 -0.967507
C21   C     C_1   0.752205 0.229888 0.285326 0.120835
C22   C     C_1   0.246469 0.236899 0.716976 0.116808
C23   C     C_1   0.252162 0.729879 0.285299 0.120870
C24   C     C_R   0.940910 0.999227 0.638826 0.012174
C25   C     C_1   0.746466 0.736900 0.716975 0.116817
C26   C     C_3   0.313122 0.499357 0.258906 0.214947
C27   C     C_3   0.204544 0.505830 0.182504 -0.278869
C28   C     C_3   0.174562 0.566086 0.150682 -1.021728
C29   C     C_3   0.475958 0.335396 0.542056 0.220974
C30   C     C_3   0.469010 0.273426 0.555083 -0.254232
C31   C     C_3   0.567696 0.246586 0.623657 -1.048999
C32   C     C_3   0.813124 0.999355 0.258874 0.214944
C33   C     C_3   0.704551 0.005843 0.182474 -0.278904
C34   C     C_3   0.674599 0.066089 0.150476 -1.021877
C35   C     C_R   0.172350 0.501944 0.711271 -0.108030
C36   C     C_3   0.975943 0.835396 0.542036 0.221011
C37   C     C_3   0.968997 0.773424 0.555046 -0.254271
C38   C     C_3   0.067679 0.746576 0.623536 -1.049099
C39   C     C_1   0.585896 0.399488 0.345432 -0.044986
C40   C     C_1   0.389495 0.405824 0.653570 0.047705
C41   C     C_1   0.085890 0.899487 0.345430 -0.044945
C42   C     C_1   0.889489 0.905826 0.653567 0.047712
C43   C     C_1   0.202164 0.594999 0.666162 0.086076
C44   C     C_1   0.781773 0.594405 0.349335 0.008303
C45   C     C_1   0.702142 0.094998 0.666187 0.086142
C46   C     C_R   0.820671 0.496052 0.340304 -0.236413
C47   C     C_1   0.281752 0.094408 0.349336 0.008613
C48   C     C_1   0.196642 0.401612 0.692274 0.042447
C49   C     C_1   0.784117 0.395970 0.327286 0.013917
C50   C     C_1   0.696640 0.901613 0.692289 0.042379
C51   C     C_1   0.284118 0.895969 0.327291 0.013808
C52   C     C_R   0.672351 0.001941 0.711315 -0.107968
C53   C     C_R   0.320660 0.996054 0.340333 -0.237005
C54   C     C_2   0.920775 0.469316 0.527228 -0.192040
C55   C     C_2   0.014039 0.463463 0.630395 -0.279110
C56   C     C_2   0.420779 0.969310 0.527253 -0.192027
C57   C     C_R   0.641446 0.345605 0.088722 -0.142151
C58   C     C_2   0.514040 0.963457 0.630431 -0.279327
C59   C     C_2   0.914827 0.491535 0.441755 0.635109
C60   C     C_2   0.070474 0.507604 0.664635 0.598771
C61   C     C_2   0.414828 0.991541 0.441786 0.635388
C62   C     C_2   0.570476 0.007599 0.664701 0.599043
C63   C     C_R   0.251731 0.684892 0.095008 0.133101
C64   C     C_R   0.754082 0.681757 0.907333 0.147650
C65   C     C_R   0.751753 0.184901 0.095024 0.133238
C66   C     C_R   0.254083 0.181756 0.907332 0.147639
C67   C     C_R   0.241200 0.671628 0.999150 0.045195
C68   C     C_R   0.858185 0.845984 0.912543 -0.143580
C69   C     C_R   0.766458 0.664542 0.003156 0.045649
C70   C     C_R   0.741212 0.171637 0.999161 0.045183
C71   C     C_R   0.266458 0.164541 0.003155 0.045593
C72   C     C_R   0.156978 0.689100 0.900885 -0.214899
C73   C     C_R   0.849887 0.682056 0.101746 -0.205897
C74   C     C_R   0.656977 0.189097 0.900900 -0.214919
C75   C     C_R   0.349885 0.182056 0.101746 -0.205603
C76   C     C_R   0.600337 0.230082 0.900776 -0.180266
C77   C     C_R   0.400361 0.227413 0.102074 -0.163504
C78   C     C_R   0.100350 0.730093 0.900759 -0.180274
C79   C     C_R   0.141450 0.845606 0.088719 -0.142177
C80   C     C_R   0.900364 0.727412 0.102074 -0.163451
C81   C     C_R   0.630741 0.255167 0.999235 0.024955
C82   C     C_R   0.368122 0.254752 0.003672 0.018385
C83   C     C_R   0.130744 0.755171 0.999220 0.024953
C84   C     C_R   0.868124 0.754752 0.003672 0.018372
C85   C     C_R   0.403363 0.626605 0.090351 -0.127090
C86   C     C_R   0.600790 0.622679 0.910750 -0.131159
C87   C     C_R   0.903369 0.126610 0.090354 -0.127096
C88   C     C_R   0.100790 0.122679 0.910750 -0.131159
C89   C     C_R   0.696142 0.225636 0.095352 0.107353
C90   C     C_R   0.317267 0.644968 0.999900 0.061980
C91   C     C_R   0.305346 0.225715 0.907580 0.094127
C92   C     C_R   0.196127 0.725633 0.095333 0.107374
C93   C     C_R   0.805347 0.725715 0.907580 0.094133
C94   C     C_3   0.775484 0.242317 0.208250 -0.168319
C95   C     C_3   0.224025 0.243852 0.795999 -0.163620
C96   C     C_3   0.275462 0.742304 0.208241 -0.168302
C97   C     C_3   0.724025 0.743853 0.796000 -0.163625
C98   C     C_3   0.336411 0.697907 0.206848 -0.579455
C99   C     C_3   0.667538 0.696298 0.796475 -0.582849
C100  C     C_3   0.836440 0.197928 0.206852 -0.579480
C101  C     C_R   0.689399 0.637888 0.001844 0.061849
C102  C     C_3   0.167539 0.196296 0.796473 -0.582834
C103  C     C_R   0.463097 0.450236 0.513867 -0.125683
C104  C     C_R   0.489952 0.451564 0.445269 -0.126178
C105  C     C_R   0.963083 0.950237 0.513854 -0.125675
C106  C     C_R   0.989935 0.951566 0.445254 -0.126217
C107  C     C_R   0.471303 0.498434 0.568402 0.069207
C108  C     C_R   0.539829 0.495517 0.442168 0.110183
C109  C     C_R   0.971298 0.998434 0.568399 0.069209
C110  C     C_R   0.039822 0.995516 0.442161 0.110171
C111  C     C_R   0.528652 0.541821 0.573247 -0.157454
C112  C     C_R   0.817278 0.144978 0.999904 0.061962
C113  C     C_R   0.563926 0.539942 0.511280 -0.204990
C114  C     C_R   0.028656 0.041818 0.573251 -0.157451
C115  C     C_R   0.063930 0.039937 0.511284 -0.204972
C116  C     C_3   0.406654 0.418026 0.358780 0.308989
C117  C     C_3   0.378569 0.413644 0.436786 0.296854
C118  C     C_3   0.906639 0.918024 0.358768 0.308974
C119  C     C_3   0.878555 0.913645 0.436774 0.296898
C120  C     C_R   0.544261 0.452837 0.298677 0.131465
C121  C     C_R   0.449607 0.453437 0.698937 0.042636
C122  C     C_R   0.044259 0.952836 0.298675 0.131446
C123  C     C_R   0.189399 0.137887 0.001843 0.061847
C124  C     C_R   0.949604 0.953437 0.698935 0.042634
C125  C     C_R   0.230826 0.546427 0.734513 0.031217
C126  C     C_R   0.764986 0.543228 0.293439 0.018626
C127  C     C_R   0.730823 0.046426 0.734540 0.031274
C128  C     C_R   0.264979 0.043230 0.293450 0.018764
C129  C     C_R   0.540458 0.544622 0.297770 -0.207330
C130  C     C_R   0.452690 0.545052 0.698957 -0.176072
C131  C     C_R   0.040457 0.044622 0.297770 -0.207364
C132  C     C_R   0.952690 0.045052 0.698957 -0.176084
C133  C     C_R   0.229703 0.454609 0.742147 0.015205
C134  C     C_R   0.550053 0.497976 0.355799 0.002856
C135  C     C_R   0.764488 0.451594 0.285226 0.068732
C136  C     C_R   0.729705 0.954608 0.742170 0.015219
C137  C     C_R   0.264484 0.951596 0.285244 0.068630
C138  C     C_R   0.315688 0.632469 0.909733 -0.145148
C139  C     C_R   0.689887 0.625740 0.091892 -0.123320
C140  C     C_R   0.815697 0.132478 0.909737 -0.145158
C141  C     C_R   0.189888 0.125739 0.091892 -0.123354
C142  C     C_R   0.443358 0.347104 0.091877 -0.088587
C143  C     C_R   0.556431 0.347548 0.909053 -0.121721
C144  C     C_R   0.943360 0.847104 0.091877 -0.088586
H1    H     H_    0.331775 0.330340 0.833726 0.113742
H2    H     H_    0.455586 0.244643 0.179645 0.128748
H3    H     H_    0.596173 0.070181 0.106424 0.278272
H4    H     H_    0.693599 0.080236 0.095769 0.270511
H5    H     H_    0.013532 0.854615 0.623286 0.106795
H6    H     H_    0.019280 0.841564 0.510453 0.088465
H7    H     H_    0.932291 0.766040 0.594474 0.201020
H8    H     H_    0.926502 0.754061 0.473705 0.214737
H9    H     H_    0.105067 0.752839 0.584682 0.281642
H10   H     H_    0.060220 0.701630 0.630385 0.277265
H11   H     H_    0.111024 0.764439 0.706111 0.269712
H12   H     H_    0.043086 0.747251 0.823136 0.130568
H13   H     H_    0.955592 0.744641 0.179645 0.128812
H14   H     H_    0.803751 0.284430 0.215077 0.147998
H15   H     H_    0.193307 0.284737 0.792603 0.145791
H16   H     H_    0.303746 0.784413 0.215083 0.147966
H17   H     H_    0.693308 0.784739 0.792606 0.145794
H18   H     H_    0.396295 0.715728 0.208052 0.197493
H19   H     H_    0.606843 0.711263 0.796675 0.194529
H20   H     H_    0.896308 0.215754 0.208030 0.197512
H21   H     H_    0.666591 0.329206 0.167178 0.113405
H22   H     H_    0.106843 0.211261 0.796671 0.194527
H23   H     H_    0.356448 0.662913 0.264716 0.194697
H24   H     H_    0.649380 0.663463 0.736619 0.192697
H25   H     H_    0.856499 0.162936 0.264731 0.194678
H26   H     H_    0.149384 0.163461 0.736618 0.192699
H27   H     H_    0.545555 0.577627 0.623308 0.117534
H28   H     H_    0.604040 0.574509 0.512059 0.129671
H29   H     H_    0.045567 0.077622 0.623319 0.117533
H30   H     H_    0.104053 0.074501 0.512071 0.129674
H31   H     H_    0.429292 0.378040 0.345369 0.095165
H32   H     H_    0.831778 0.830340 0.833727 0.113748
H33   H     H_    0.309014 0.433377 0.406641 0.083780
H34   H     H_    0.929277 0.878039 0.345358 0.095168
H35   H     H_    0.809003 0.933382 0.406632 0.083763
H36   H     H_    0.428893 0.628784 0.173706 0.107673
H37   H     H_    0.576740 0.623655 0.827620 0.108947
H38   H     H_    0.928901 0.128791 0.173708 0.107680
H39   H     H_    0.076740 0.123654 0.827620 0.108946
H40   H     H_    0.550673 0.586893 0.324354 0.115719
H41   H     H_    0.441581 0.587761 0.672476 0.107313
H42   H     H_    0.050670 0.086892 0.324354 0.115727
H43   H     H_    0.166597 0.829205 0.167174 0.113424
H44   H     H_    0.941582 0.087761 0.672476 0.107305
H45   H     H_    0.263302 0.646521 0.828742 0.111882
H46   H     H_    0.747260 0.632939 0.175064 0.105380
H47   H     H_    0.763320 0.146539 0.828749 0.111899
H48   H     H_    0.247263 0.132935 0.175065 0.105350
H49   H     H_    0.488812 0.333093 0.174986 0.101384
H50   H     H_    0.511223 0.334731 0.825614 0.094714
H51   H     H_    0.988814 0.833093 0.174985 0.101382
H52   H     H_    0.011226 0.834736 0.825609 0.094710
H53   H     H_    0.857819 0.456631 0.521818 0.103398
H54   H     H_    0.141255 0.677156 0.824070 0.122381
H55   H     H_    0.039891 0.422274 0.662558 0.123947
H56   H     H_    0.357828 0.956585 0.521817 0.103426
H57   H     H_    0.539894 0.922266 0.662578 0.123940
H58   H     H_    0.969679 0.578955 0.390724 0.123298
H59   H     H_    0.930274 0.526792 0.286888 0.093858
H60   H     H_    0.140679 0.548020 0.469911 0.217052
H61   H     H_    0.093143 0.504122 0.354815 0.195214
H62   H     H_    0.021513 0.585850 0.229654 0.272754
H63   H     H_    0.148109 0.594641 0.330276 0.278621
H64   H     H_    0.064860 0.630757 0.344173 0.272746
H65   H     H_    0.869349 0.666268 0.179100 0.127742
H66   H     H_    0.015065 0.628673 0.694853 0.141804
H67   H     H_    0.090170 0.576899 0.794451 0.084376
H68   H     H_    0.870936 0.569298 0.619954 0.216740
H69   H     H_    0.943945 0.519673 0.727620 0.194017
H70   H     H_    0.987193 0.591612 0.866168 0.270625
H71   H     H_    0.859817 0.581906 0.774777 0.267317
H72   H     H_    0.913216 0.641453 0.758570 0.269649
H73   H     H_    0.469102 0.078849 0.389649 0.122845
H74   H     H_    0.430279 0.026286 0.286631 0.093992
H75   H     H_    0.640390 0.048330 0.469579 0.217092
H76   H     H_    0.641246 0.177146 0.824084 0.122394
H77   H     H_    0.593464 0.003916 0.355298 0.195227
H78   H     H_    0.521189 0.085104 0.228724 0.272773
H79   H     H_    0.647667 0.094354 0.329353 0.278734
H80   H     H_    0.563972 0.130510 0.342436 0.272661
H81   H     H_    0.515005 0.128648 0.694944 0.141837
H82   H     H_    0.590135 0.076878 0.794537 0.084322
H83   H     H_    0.370914 0.069222 0.620008 0.216751
H84   H     H_    0.443956 0.019616 0.727702 0.194006
H85   H     H_    0.487105 0.091563 0.866206 0.270625
H86   H     H_    0.359744 0.081809 0.774800 0.267313
H87   H     H_    0.369344 0.166270 0.179099 0.127655
H88   H     H_    0.413083 0.141380 0.758574 0.269653
H89   H     H_    0.346084 0.525974 0.229427 0.139535
H90   H     H_    0.337273 0.514182 0.340083 0.070430
H91   H     H_    0.175912 0.481955 0.107288 0.224728
H92   H     H_    0.172917 0.489065 0.223174 0.189276
H93   H     H_    0.210478 0.592519 0.223620 0.269314
H94   H     H_    0.096132 0.570150 0.106614 0.278257
H95   H     H_    0.193576 0.580324 0.096036 0.270475
H96   H     H_    0.513541 0.354621 0.623301 0.106823
H97   H     H_    0.519300 0.341558 0.510479 0.088457
H98   H     H_    0.543053 0.247231 0.823155 0.130581
H99   H     H_    0.432251 0.266049 0.594450 0.201052
H100  H     H_    0.426564 0.254053 0.473750 0.214722
H101  H     H_    0.605141 0.252845 0.584868 0.281647
H102  H     H_    0.560239 0.201641 0.630520 0.277282
H103  H     H_    0.610988 0.264461 0.706223 0.269685
H104  H     H_    0.846097 0.025953 0.229382 0.139606
H105  H     H_    0.837280 0.014191 0.340047 0.070401
H106  H     H_    0.675898 0.981900 0.107329 0.224806
H107  H     H_    0.672925 0.989161 0.223203 0.189291
H108  H     H_    0.710548 0.092584 0.223331 0.269302
N1    N     N_R   0.395410 0.396350 0.944340 -0.042859
N2    N     N_R   0.474920 0.471030 0.794350 -0.059984
N3    N     N_R   0.025080 0.971030 0.205650 -0.060799
N4    N     N_R   0.974920 0.971030 0.794350 -0.059985
N5    N     N_R   0.320260 0.527820 0.794570 -0.070078
N6    N     N_R   0.679740 0.527820 0.205430 -0.056640
N7    N     N_R   0.820260 0.027820 0.794570 -0.070096
N8    N     N_R   0.179740 0.027820 0.205430 -0.056661
N9    N     N_R   0.524590 0.527840 0.205200 -0.046139
N10   N     N_R   0.475410 0.527840 0.794800 -0.046603
N11   N     N_R   0.024590 0.027840 0.205200 -0.046141
N12   N     N_R   0.604590 0.396350 0.055660 -0.043522
N13   N     N_R   0.975410 0.027840 0.794800 -0.046604
N14   N     N_R   0.320750 0.471000 0.795020 -0.063836
N15   N     N_R   0.679250 0.471000 0.204980 -0.064951
N16   N     N_R   0.820750 0.971000 0.795020 -0.063831
N17   N     N_R   0.179250 0.971000 0.204980 -0.064900
N18   N     N_R   0.393620 0.602490 0.942710 -0.042730
N19   N     N_R   0.606380 0.602490 0.057290 -0.040958
N20   N     N_R   0.893620 0.102490 0.942710 -0.042735
N21   N     N_R   0.106380 0.102490 0.057290 -0.040963
N22   N     N_R   0.451720 0.396350 0.057510 -0.043702
N23   N     N_R   0.895410 0.896350 0.944340 -0.042861
N24   N     N_R   0.548280 0.396350 0.942490 -0.044174
N25   N     N_R   0.951720 0.896350 0.057510 -0.043701
N26   N     N_R   0.048280 0.896350 0.942490 -0.044178
N27   N     N_1   0.733719 0.220057 0.345723 -0.091212
N28   N     N_1   0.264226 0.231497 0.654975 -0.093999
N29   N     N_1   0.233658 0.720053 0.345682 -0.091225
N30   N     N_1   0.764221 0.731497 0.654972 -0.093994
N31   N     N_1   0.619748 0.356818 0.383856 -0.094525
N32   N     N_1   0.340296 0.367701 0.619164 -0.053648
N33   N     N_1   0.119739 0.856816 0.383852 -0.094533
N34   N     N_R   0.104590 0.896350 0.055660 -0.043526
N35   N     N_1   0.840285 0.867704 0.619158 -0.053655
N36   N     N_1   0.179411 0.633817 0.611004 -0.091391
N37   N     N_1   0.795427 0.635431 0.394532 -0.084989
N38   N     N_1   0.679374 0.133817 0.611030 -0.091354
N39   N     N_1   0.295395 0.135435 0.394525 -0.084959
N40   N     N_1   0.168406 0.359656 0.649344 -0.087057
N41   N     N_1   0.801780 0.351840 0.364166 -0.088406
N42   N     N_1   0.668401 0.859659 0.649351 -0.087097
N43   N     N_1   0.301787 0.851837 0.364162 -0.088426
N44   N     N_R   0.449930 0.602500 0.055880 -0.038741
N45   N     N_R   0.550070 0.602500 0.944120 -0.042067
N46   N     N_R   0.949930 0.102500 0.055880 -0.038738
N47   N     N_R   0.050070 0.102500 0.944120 -0.042064
N48   N     N_R   0.525080 0.471030 0.205650 -0.060803
Ni1   Ni    Ni4+2 0.435420 0.434270 0.870230 0.215309
Ni2   Ni    Ni4+2 0.564580 0.434270 0.129770 0.222320
Ni3   Ni    Ni4+2 0.935420 0.934270 0.870230 0.215307
Ni4   Ni    Ni4+2 0.064580 0.934270 0.129770 0.222323
Ni5   Ni    Ni4+2 0.563430 0.564580 0.128740 0.221879
Ni6   Ni    Ni4+2 0.436570 0.564580 0.871260 0.212982
Ni7   Ni    Ni4+2 0.063430 0.064580 0.128740 0.221853
Ni8   Ni    Ni4+2 0.936570 0.064580 0.871260 0.212959
O1    O     O_3   0.997546 0.497716 0.446188 -0.650132
O2    O     O_3   0.028477 0.559642 0.630114 -0.654656
O3    O     O_3   0.497579 0.997813 0.446301 -0.650118
O4    O     O_3   0.528477 0.059637 0.630202 -0.654354
O5    O     O_3   0.337404 0.443746 0.256559 -0.652940
O6    O     O_3   0.382452 0.357836 0.470869 -0.646746
O7    O     O_3   0.837382 0.943737 0.256543 -0.652955
O8    O     O_3   0.882437 0.857839 0.470862 -0.646755

loop_
_geom_bond_atom_site_label_1
_geom_bond_atom_site_label_2
_ccdc_geom_bond_type
C118  O7    S    
C19   C20   S    
N1    Ni1   S    
N21   Ni7   S    
C87   H38   S    
C114  C115  A    
C68   H32   S    
C47   C128  S    
C144  H51   S    
C65   C89   A    
C32   H104  S    
C53   C137  A    
C128  N8    A    
C63   C98   S    
C4    C142  A    
C61   O3    S    
C39   C120  S    
C16   H75   S    
N8    N17   A    
C120  N48   A    
C104  C116  S    
C34   H4    S    
C55   H55   S    
C70   C74   A    
C49   N41   T    
N5    Ni6   S    
C95   C102  S    
C79   N34   A    
C47   N39   T    
C106  C118  S    
C132  H44   S    
C103  C117  S    
C119  H35   S    
C41   N33   T    
N22   Ni2   S    
C98   H18   S    
C52   C127  A    
C117  H33   S    
C126  N6    A    
C122  N3    A    
C59   O1    S    
C137  N17   A    
C87   C112  A    
C85   N44   A    
C82   C91   A    
C35   C60   S    
C108  C113  A    
C50   N42   T    
C37   C38   S    
C53   C128  A    
C28   H93   S    
C123  C141  A    
C111  C113  A    
C88   N47   A    
C15   H74   S    
N19   N45   A    
C70   C112  S    
C27   H92   S    
N3    N11   A    
C143  N24   A    
C7    C79   A    
C138  N18   A    
C2    C121  A    
C20   H85   S    
N20   Ni8   S    
C88   H39   S    
N17   Ni4   S    
C85   C90   A    
C69   C101  S    
C115  H30   S    
C86   N45   A    
C18   O4    S    
C60   O2    S    
C36   H6    S    
C77   C82   A    
C84   C93   A    
C33   H106  S    
C5    C143  A    
N18   N44   A    
C74   H76   S    
C119  O8    S    
C103  C107  A    
C56   H56   S    
C102  H26   S    
C7    C83   S    
C57   N12   A    
C112  C140  A    
C1    H1    S    
C141  N21   A    
C10   H63   S    
C139  H46   S    
C43   C125  S    
C101  C139  A    
N12   N24   A    
C74   C76   A    
C95   H15   S    
C71   C123  S    
C36   C37   S    
C9    H60   S    
N1    N22   A    
C21   N27   T    
C28   H95   S    
N6    Ni5   S    
C22   N28   T    
C62   O4    S    
C65   C70   A    
C89   C94   S    
C67   C72   A    
C35   C125  A    
C10   H64   S    
C72   C78   A    
N7    N16   A    
C132  N13   A    
C53   C61   S    
C64   C99   S    
C36   O8    S    
C96   C98   S    
C86   H37   S    
C144  N25   A    
C9    C10   S    
N24   Ni1   S    
N46   Ni7   S    
N25   Ni4   S    
C26   H90   S    
N26   Ni3   S    
C49   C135  S    
C102  H22   S    
C30   H100  S    
N9    Ni5   S    
C141  H48   S    
C38   H11   S    
N16   Ni3   S    
C90   C138  A    
C113  H28   S    
C131  N11   A    
C54   C59   D    
C44   N37   T    
C143  H50   S    
C32   H105  S    
C67   C90   S    
C41   C122  S    
C29   C30   S    
C17   H79   S    
C18   H81   S    
C94   C100  S    
C14   H72   S    
C64   C69   A    
C75   C77   A    
C109  C114  A    
C99   H19   S    
C118  H34   S    
C25   C97   S    
C97   H17   S    
C52   C136  A    
C127  N7    A    
C138  H45   S    
C37   H8    S    
C6    C144  A    
N20   N46   A    
C43   N36   T    
C105  C109  A    
C54   C55   S    
C40   N32   T    
C116  H31   S    
C107  C111  A    
C136  N16   A    
C10   H62   S    
C52   C62   S    
C78   H12   S    
N18   Ni6   S    
C68   N23   A    
C85   H36   S    
C56   C58   S    
C120  C134  A    
N19   Ni5   S    
C91   C95   S    
N2    N10   A    
C140  H47   S    
C38   H9    S    
C77   H2    S    
C58   C62   D    
N4    N13   A    
C93   C97   S    
C80   C84   A    
C35   C133  A    
C130  H41   S    
C26   C27   S    
C54   H53   S    
N34   Ni4   S    
C3    C7    A    
C11   H66   S    
C30   C31   S    
C57   H21   S    
N44   Ni5   S    
C14   H70   S    
C18   C19   S    
C28   H94   S    
C46   C135  A    
C78   C83   A    
C1    N1    A    
C16   C17   S    
C31   H102  S    
C69   C73   A    
C15   H73   S    
C29   H96   S    
C42   N35   T    
C81   C89   A    
C94   H14   S    
C55   C60   D    
C16   H77   S    
N13   Ni8   S    
C12   H69   S    
C129  N9    A    
N48   Ni2   S    
C23   N29   T    
C26   O5    S    
C6    C84   S    
N8    Ni7   S    
C133  N14   A    
C20   H86   S    
C76   H98   S    
N21   N47   A    
C108  C134  S    
C48   N40   T    
C5    C81   S    
C34   H3    S    
C24   C132  A    
C66   C71   A    
C13   C131  A    
C100  H20   S    
N10   Ni6   S    
C130  N10   A    
C51   C137  S    
C129  H40   S    
C24   C109  S    
C104  C108  A    
C99   H24   S    
C73   H65   S    
N26   N34   A    
C100  H25   S    
C87   N46   A    
C8    H59   S    
N5    N14   A    
C65   C100  S    
N7    Ni8   S    
C105  C106  A    
C3    H52   S    
C5    C57   A    
C32   C33   S    
C2    C130  A    
C142  H49   S    
C36   H5    S    
C72   H54   S    
C129  C134  A    
C103  C104  A    
C56   C61   D    
C105  C119  S    
N15   Ni2   S    
C9    H61   S    
C25   N30   T    
C110  C115  A    
C111  H27   S    
C20   H88   S    
C46   C59   S    
C22   C95   S    
C66   C102  S    
C92   C96   S    
C124  N4    A    
C42   C124  S    
C121  N2    A    
C23   C96   S    
C83   C92   A    
C44   C126  S    
C11   O2    S    
C79   H43   S    
N23   N25   A    
C64   C93   A    
N23   Ni3   S    
N47   Ni8   S    
C21   C94   S    
C15   C16   S    
C125  N5    A    
C2    C107  S    
C24   C124  A    
C116  C117  S    
C116  O5    S    
N3    Ni4   S    
C33   H107  S    
C118  C119  S    
N4    Ni3   S    
C19   H83   S    
C17   H78   S    
C18   H82   S    
C11   H67   S    
C114  H29   S    
C58   H57   S    
C39   N31   T    
C8    C9    S    
C8    O1    S    
C45   N38   T    
C142  N22   A    
C51   N43   T    
C98   H23   S    
C27   H91   S    
C40   C121  S    
C135  N15   A    
C31   H103  S    
C37   H7    S    
C88   C123  A    
N6    N15   A    
C97   C99   S    
C117  O6    S    
C63   C67   A    
C48   C133  S    
C29   O6    S    
C12   H68   S    
C3    N26   A    
C32   O7    S    
C139  N19   A    
C140  N20   A    
C63   C92   A    
C19   H84   S    
C13   C110  S    
N14   Ni1   S    
C33   C34   S    
C75   H87   S    
N2    Ni1   S    
C26   H89   S    
C96   H16   S    
N9    N48   A    
C12   C14   S    
C30   H99   S    
C38   H10   S    
N45   Ni6   S    
C106  C110  A    
C46   C126  A    
C76   C81   A    
C11   C12   S    
C66   C91   A    
C1    C4    A    
C8    H58   S    
N11   Ni7   S    
C17   H80   S    
C50   C136  S    
C71   C75   A    
C13   C122  A    
C80   H13   S    
C45   C127  S    
C6    C68   A    
C73   C80   A    
C14   H71   S    
N12   Ni2   S    
C131  H42   S    
C4    C82   S    
C27   C28   S    
C29   H97   S    
C31   H101  S    
C34   H108  S    
C86   C101  A    
C15   O3    S    
