data_mof_unit_17659.cif
_audit_creation_date              2012-12-10T16:58:29-0500
_audit_creation_method            fapswitch 2.2
_symmetry_space_group_name_H-M    P1
_symmetry_Int_Tables_number       1
_space_group_crystal_system       triclinic
_cell_length_a                    7.723602
_cell_length_b                    8.624217
_cell_length_c                    23.505274
_cell_angle_alpha                 90.890075
_cell_angle_beta                  86.00993
_cell_angle_gamma                 94.218002
_cell_volume                      1557.57584561

loop_
_atom_site_label
_atom_site_type_symbol
_atom_type_description
_atom_site_fract_x
_atom_site_fract_y
_atom_site_fract_z
_atom_type_partial_charge
C1    C     C_R   0.545579 0.794764 0.498024 0.934671
C2    C     C_R   0.454421 0.205236 0.501976 0.934672
C3    C     C_R   0.366516 0.425466 0.765633 0.278633
C4    C     C_R   0.633479 0.574535 0.234366 0.278633
C5    C     C_R   0.364440 0.424110 0.706254 0.315532
C6    C     C_R   0.635558 0.575888 0.293746 0.315533
C7    C     C_R   0.507509 0.494466 0.672788 -0.336965
C8    C     C_R   0.492490 0.505533 0.327212 -0.336965
C9    C     C_R   0.655379 0.559428 0.699267 0.192305
C10   C     C_R   0.344619 0.440571 0.300733 0.192305
C11   C     C_R   0.662368 0.547856 0.758204 0.417549
C12   C     C_R   0.337628 0.452146 0.241797 0.417550
C13   C     C_R   0.516684 0.484911 0.791543 -0.022951
C14   C     C_R   0.483310 0.515092 0.208457 -0.022952
C15   C     C_2   0.566218 0.956585 0.506099 0.108828
C16   C     C_2   0.433782 0.043415 0.493901 0.108828
C17   C     C_R   0.502441 0.499398 0.610645 0.996725
C18   C     C_R   0.497559 0.500601 0.389355 0.996724
C19   C     C_R   0.464680 0.370362 0.120096 0.652516
C20   C     C_R   0.535311 0.629642 0.879904 0.652517
C21   C     C_R   0.502095 0.647630 0.118109 0.649394
C22   C     C_R   0.497896 0.352373 0.881892 0.649394
C23   C     C_R   0.523606 0.644416 0.058754 -0.067572
C24   C     C_R   0.476384 0.355587 0.941246 -0.067571
C25   C     C_R   0.494283 0.501889 0.029931 -0.048922
C26   C     C_R   0.505707 0.498115 0.970070 -0.048922
C27   C     C_R   0.452912 0.363503 0.060872 -0.101933
C28   C     C_R   0.547078 0.636501 0.939129 -0.101933
C29   C     C_R   0.579964 0.778670 0.028004 -0.129691
C30   C     C_R   0.420025 0.221334 0.971997 -0.129691
C31   C     C_R   0.596149 0.775183 0.968637 0.302173
C32   C     C_R   0.403840 0.224821 0.031364 0.302173
H1    H     H_    0.618128 0.885608 0.050088 0.227854
H2    H     H_    0.381862 0.114396 0.949913 0.227854
H3    H     H_    0.012791 0.376818 0.459900 0.246027
H4    H     H_    0.987209 0.623182 0.540100 0.246027
N1    N     N_R   0.481633 0.511327 0.147559 -0.333466
N2    N     N_R   0.518359 0.488676 0.852442 -0.333466
N3    N     N_2   0.950330 0.457950 0.484560 -0.122509
N4    N     N_2   0.049670 0.542050 0.515440 -0.122510
O1    O     O_R   0.389250 0.738570 0.503790 -0.596396
O2    O     O_R   0.610750 0.261430 0.496210 -0.596396
O3    O     O_R   0.678390 0.711620 0.493890 -0.582623
O4    O     O_R   0.321610 0.288380 0.506110 -0.582623
O5    O     O_R   0.355400 0.513520 0.588790 -0.571306
O6    O     O_R   0.644600 0.486480 0.411210 -0.571304
O7    O     O_R   0.644550 0.486570 0.578900 -0.597533
O8    O     O_R   0.355450 0.513430 0.421100 -0.597534
O9    O     O_2   0.464636 0.238394 0.150134 -0.423116
O10   O     O_2   0.535355 0.761609 0.849867 -0.423115
O11   O     O_2   0.505154 0.785206 0.146354 -0.439528
O12   O     O_2   0.494838 0.214798 0.853647 -0.439528
Zn1   Zn    Zn3+2 0.306930 0.518000 0.506610 1.109663
Zn2   Zn    Zn3+2 0.693070 0.482000 0.493390 1.109663
Br1   Br    Br    0.713159 0.955435 0.932017 -0.303001
Br2   Br    Br    0.286831 0.044569 0.067984 -0.303001
Br3   Br    Br    0.160694 0.350355 0.811432 -0.229267
Br4   Br    Br    0.839300 0.649647 0.188567 -0.229268
Cl1   Cl    Cl    0.183146 0.327926 0.674898 -0.404684
Cl2   Cl    Cl    0.816855 0.672067 0.325100 -0.404685
Br5   Br    Br    0.844249 0.676969 0.657317 -0.269789
Br6   Br    Br    0.155751 0.323027 0.342683 -0.269788
Cl3   Cl    Cl    0.853802 0.615319 0.790825 -0.390323
Cl4   Cl    Cl    0.146191 0.384684 0.209176 -0.390321
Cl5   Cl    Cl    0.747471 0.021927 0.545340 -0.460299
Cl6   Cl    Cl    0.252529 0.978073 0.454659 -0.460300

loop_
_geom_bond_atom_site_label_1
_geom_bond_atom_site_label_2
_ccdc_geom_bond_type
C7    C17   S    
H3    N3    S    
C5    C7    A    
C1    C15   S    
C6    Cl2   S    
C25   C27   A    
C2    C16   S    
C9    C11   A    
C19   O9    S    
O3    Zn2   S    
C26   C28   A    
C20   O10   S    
C3    C13   A    
C21   O11   S    
C18   O6    A    
C28   C31   A    
O6    Zn2   S    
C15   Cl5   S    
C23   C25   A    
C27   C32   A    
C3    C5    A    
O5    Zn1   S    
C29   C31   A    
O2    Zn2   S    
C14   N1    S    
C30   C32   A    
C11   C13   A    
O1    Zn1   S    
C13   N2    S    
C10   Br6   S    
C1    O3    A    
C10   C12   A    
C2    O2    A    
O7    Zn2   S    
C9    Br5   S    
C23   C29   A    
C1    O1    A    
C19   C27   A    
C17   O5    A    
N4    Zn1   S    
C11   Cl3   S    
C21   C23   A    
C4    C14   A    
O8    Zn1   S    
C12   Cl4   S    
C22   C24   A    
C19   N1    A    
C24   C30   A    
C16   Cl6   S    
C5    Cl1   S    
C15   C16   D    
N3    Zn2   S    
C29   H1    S    
C12   C14   A    
H4    N4    S    
C20   N2    A    
C21   N1    A    
C22   O12   S    
C4    C6    A    
C4    Br4   S    
N3    N4    D    
C7    C9    A    
C30   H2    S    
C6    C8    A    
C20   C28   A    
C31   Br1   S    
C25   C26   A    
O4    Zn1   S    
C32   Br2   S    
C8    C10   A    
C8    C18   S    
C24   C26   A    
C17   O7    A    
C2    O4    A    
C3    Br3   S    
C22   N2    A    
C18   O8    A    
