data_mof_unit_35106.cif
_audit_creation_date              2012-12-10T16:43:00-0500
_audit_creation_method            fapswitch 2.2
_symmetry_space_group_name_H-M    P1
_symmetry_Int_Tables_number       1
_space_group_crystal_system       triclinic
_cell_length_a                    7.463073
_cell_length_b                    8.683318
_cell_length_c                    12.970657
_cell_angle_alpha                 88.069766
_cell_angle_beta                  79.226038
_cell_angle_gamma                 102.742105
_cell_volume                      802.935531235

loop_
_atom_site_label
_atom_site_type_symbol
_atom_type_description
_atom_site_fract_x
_atom_site_fract_y
_atom_site_fract_z
_atom_type_partial_charge
C1    C     C_R   0.452849 0.199735 0.503202 0.885667
C2    C     C_R   0.547151 0.800265 0.496798 0.885667
C3    C     C_R   0.466337 0.494824 0.701344 0.830778
C4    C     C_R   0.533663 0.505176 0.298657 0.830776
C5    C     C_R   0.553437 0.512492 0.185023 -0.129216
C6    C     C_R   0.446562 0.487513 0.814977 -0.129219
C7    C     C_R   0.250578 0.419066 0.989403 0.409048
C8    C     C_R   0.749417 0.580958 0.010599 0.408997
C9    C     C_R   0.270108 0.429187 0.879929 -0.247443
C10   C     C_R   0.729887 0.570831 0.120072 -0.247446
C11   C     C_R   0.604886 0.537207 0.858402 -0.221037
C12   C     C_R   0.395115 0.462796 0.141598 -0.221031
C13   C     C_R   0.589337 0.529793 0.967030 0.052051
C14   C     C_R   0.410665 0.470213 0.032970 0.052042
C15   C     C_2   0.426266 0.031914 0.504736 -0.360501
C16   C     C_2   0.573734 0.968086 0.495264 -0.360501
Cu1   Cu    Cu3+1 0.686350 0.517570 0.488220 0.962456
Cu2   Cu    Cu3+1 0.313650 0.482430 0.511780 0.962455
H1    H     H_    0.852244 0.610267 0.154424 0.170495
H2    H     H_    0.147748 0.389757 0.845578 0.170482
H3    H     H_    0.934024 0.376496 0.583090 0.225435
H4    H     H_    0.065976 0.623503 0.416910 0.225436
H5    H     H_    0.284043 0.960507 0.513668 0.181372
H6    H     H_    0.715957 0.039493 0.486332 0.181372
N1    N     N_2   0.033570 0.455950 0.529530 -0.215452
N2    N     N_2   0.966430 0.544050 0.470470 -0.215451
O1    O     O_R   0.621060 0.286250 0.492350 -0.582321
O2    O     O_R   0.378940 0.713750 0.507650 -0.582321
O3    O     O_R   0.306310 0.256580 0.512240 -0.587096
O4    O     O_R   0.693690 0.743420 0.487760 -0.587096
O5    O     O_R   0.631800 0.512400 0.642670 -0.597344
O6    O     O_R   0.368200 0.487600 0.357330 -0.597345
O7    O     O_R   0.317060 0.482730 0.662570 -0.579287
O8    O     O_R   0.682940 0.517270 0.337430 -0.579285
H7    H     H_    0.259695 0.417393 0.192901 0.216560
H8    H     H_    0.740310 0.582605 0.807099 0.216559
O9    O     O_3   0.077929 0.359495 0.054658 -0.749526
H9    H     H_    0.981933 0.327613 0.011088 0.335410
O10   O     O_3   0.922056 0.640579 0.945348 -0.749562
H10   H     H_    0.018025 0.672553 0.988912 0.335422

loop_
_geom_bond_atom_site_label_1
_geom_bond_atom_site_label_2
_ccdc_geom_bond_type
C8    C13   A    
C1    C15   S    
C8    O10   S    
C2    C16   S    
C9    H2    S    
C10   H1    S    
C2    O4    A    
C3    C6    S    
C6    C9    A    
C1    O3    A    
Cu1   Cu2   S    
C7    O9    S    
C5    C10   A    
C16   H6    S    
Cu2   O3    S    
C13   C14   A    
C12   H7    S    
C3    O5    A    
Cu1   O4    S    
C11   C13   A    
C4    O6    A    
Cu2   N1    S    
Cu1   N2    S    
C15   H5    S    
C11   H8    S    
O9    H9    S    
C12   C14   A    
Cu1   O5    S    
Cu2   O7    S    
C4    O8    A    
Cu2   O6    S    
Cu1   O8    S    
C3    O7    A    
C15   C16   D    
Cu1   O1    S    
C7    C9    A    
C6    C11   A    
Cu2   O2    S    
C5    C12   A    
C8    C10   A    
H4    N2    S    
O10   H10   S    
C1    O1    A    
H3    N1    S    
C2    O2    A    
N1    N2    D    
C7    C14   A    
C4    C5    S    
