data_mof_unit_48262.cif
_audit_creation_date              2012-12-10T16:54:31-0500
_audit_creation_method            fapswitch 2.2
_symmetry_space_group_name_H-M    P1
_symmetry_Int_Tables_number       1
_space_group_crystal_system       triclinic
_cell_length_a                    14.994483
_cell_length_b                    10.931341
_cell_length_c                    9.700288
_cell_angle_alpha                 89.795426
_cell_angle_beta                  89.850473
_cell_angle_gamma                 89.809863
_cell_volume                      1589.9480769

loop_
_atom_site_label
_atom_site_type_symbol
_atom_type_description
_atom_site_fract_x
_atom_site_fract_y
_atom_site_fract_z
_atom_type_partial_charge
C1    C     C_R   0.503788 0.265492 0.500265 0.731553
C2    C     C_R   0.906805 0.619984 0.501130 -0.042053
C3    C     C_R   0.952516 0.281820 0.522425 0.414337
C4    C     C_R   0.045972 0.279892 0.515225 0.396164
C5    C     C_R   0.093359 0.390792 0.508356 -0.048822
C6    C     C_R   0.046972 0.503895 0.508272 0.009111
C7    C     C_R   0.094749 0.614852 0.506353 0.102514
C8    C     C_R   0.049433 0.726417 0.505715 -0.330808
C9    C     C_R   0.956003 0.730762 0.499085 0.499438
C10   C     C_R   0.186660 0.391031 0.502312 -0.197450
C11   C     C_R   0.232890 0.501360 0.501206 -0.059760
C12   C     C_R   0.329075 0.500178 0.500231 0.790424
C13   C     C_R   0.187722 0.612810 0.504406 -0.208167
C14   C     C_2   0.504867 0.933450 0.388667 -0.154271
C15   C     C_2   0.488437 0.865913 0.500982 -0.240520
C16   C     C_2   0.496919 0.066825 0.391328 -0.273105
C17   C     C_2   0.518302 0.133947 0.502429 0.344140
C18   C     C_2   0.448853 0.429418 0.922597 -0.053581
C19   C     C_2   0.449967 0.427904 0.078270 -0.056980
C20   C     C_R   0.497584 0.734481 0.499835 0.839785
C21   C     C_R   0.670914 0.502983 0.499740 0.853021
C22   C     C_R   0.812469 0.619035 0.494626 0.457256
C23   C     C_R   0.767324 0.506682 0.499090 -0.172698
C24   C     C_R   0.813301 0.396300 0.505125 -0.272626
C25   C     C_R   0.906109 0.394227 0.512260 -0.032967
C26   C     C_R   0.953238 0.506144 0.507722 -0.142993
Cu1   Cu    Cu3+1 0.500020 0.500020 0.638630 0.963496
Cu2   Cu    Cu3+1 0.499980 0.499980 0.361370 0.934105
H1    H     H_    0.465475 0.906808 0.596411 0.196079
H2    H     H_    0.474590 0.111017 0.296977 0.140805
H3    H     H_    0.225182 0.697591 0.503896 0.121880
H4    H     H_    0.521431 0.890532 0.291018 0.159229
N1    N     N_2   0.499020 0.498660 0.846910 -0.282023
N2    N     N_2   0.499000 0.498630 0.153040 -0.281857
O1    O     O_R   0.500020 0.321960 0.617040 -0.552180
O2    O     O_R   0.499980 0.321920 0.382900 -0.602769
O3    O     O_R   0.370270 0.499990 0.617090 -0.576130
O4    O     O_R   0.370240 0.499950 0.382940 -0.568008
O5    O     O_R   0.500020 0.678080 0.617100 -0.567599
O6    O     O_R   0.499980 0.678040 0.382960 -0.588256
O7    O     O_R   0.629760 0.500050 0.617060 -0.568055
O8    O     O_R   0.629730 0.500010 0.382910 -0.589665
O9    O     O_3   0.763830 0.727080 0.494163 -0.546635
C27   C     C_3   0.743761 0.759995 0.356680 -0.268590
H5    H     H_    0.686411 0.706940 0.317598 0.167508
H6    H     H_    0.801717 0.748941 0.285661 0.139707
H7    H     H_    0.724095 0.857917 0.354629 0.186453
O10   O     O_3   0.554090 0.080616 0.619986 -0.576993
C28   C     C_3   0.646351 0.104798 0.623501 -0.268060
H8    H     H_    0.659192 0.203581 0.641406 0.146663
H9    H     H_    0.680454 0.073577 0.527603 0.173629
H10   H     H_    0.675967 0.053277 0.710902 0.190465
H11   H     H_    0.403083 0.367751 0.871680 0.154622
H12   H     H_    0.543708 0.555887 0.893511 0.195860
H13   H     H_    0.406283 0.363423 0.130011 0.152110
H14   H     H_    0.539549 0.561431 0.105677 0.188463
H15   H     H_    0.775676 0.311880 0.503856 0.169129
O11   O     O_3   0.907153 0.172066 0.530886 -0.572326
C29   C     C_3   0.883128 0.150731 0.669831 -0.324914
H16   H     H_    0.858543 0.055491 0.679546 0.221709
H17   H     H_    0.828476 0.212809 0.703046 0.147591
H18   H     H_    0.940423 0.160894 0.741442 0.147547
O12   O     O_3   0.090150 0.169116 0.501286 -0.571193
C30   C     C_3   0.117816 0.125909 0.631802 -0.347794
H19   H     H_    0.181874 0.076203 0.618721 0.181088
H20   H     H_    0.129229 0.199340 0.709354 0.142044
H21   H     H_    0.068607 0.059152 0.672052 0.197552
H22   H     H_    0.224091 0.306047 0.500493 0.163420
H23   H     H_    0.086945 0.810903 0.509139 0.156663
O13   O     O_3   0.912317 0.842860 0.499159 -0.542181
C31   C     C_3   0.939738 0.914064 0.384820 -0.236712
H24   H     H_    0.886769 0.982130 0.361936 0.214564
H25   H     H_    0.949510 0.858764 0.289562 0.109816
H26   H     H_    0.001501 0.965074 0.409422 0.218801

loop_
_geom_bond_atom_site_label_1
_geom_bond_atom_site_label_2
_ccdc_geom_bond_type
C2    C22   A    
C31   H26   S    
C2    C9    A    
C11   C12   S    
C30   H21   S    
N2    H14   S    
O13   C31   S    
C10   H22   S    
C18   C19   S    
Cu1   O7    S    
C1    C17   S    
C22   O9    S    
C27   H7    S    
Cu2   O4    S    
O9    C27   S    
C28   H10   S    
C30   H19   S    
C7    C13   A    
C8    C9    A    
Cu2   N2    S    
C29   H16   S    
C2    C26   A    
C9    O13   S    
C11   C13   A    
C4    O12   S    
C1    O1    A    
C8    H23   S    
C6    C26   A    
Cu1   O5    S    
Cu1   O3    S    
C21   O7    A    
C16   C17   D    
C5    C10   A    
O10   C28   S    
C27   H6    S    
C15   H1    S    
C6    C7    A    
C21   C23   S    
C12   O4    A    
C5    C6    A    
C20   O6    A    
C18   N1    D    
C14   C16   S    
C29   H17   S    
C7    C8    A    
C10   C11   A    
Cu2   O6    S    
C23   C24   A    
C17   O10   S    
C3    C4    A    
C3    O11   S    
Cu1   Cu2   S    
C3    C25   A    
C31   H24   S    
C24   C25   A    
Cu2   O2    S    
C15   C20   S    
C28   H8    S    
C12   O3    A    
C19   H13   S    
N1    H12   S    
C31   H25   S    
C20   O5    A    
C14   C15   D    
C24   H15   S    
C29   H18   S    
C21   O8    A    
Cu2   O8    S    
C18   H11   S    
Cu1   O1    S    
C25   C26   A    
C22   C23   A    
O11   C29   S    
C16   H2    S    
C13   H3    S    
Cu1   N1    S    
C27   H5    S    
O12   C30   S    
C1    O2    A    
C14   H4    S    
C4    C5    A    
C28   H9    S    
C19   N2    D    
C30   H20   S    
