data_mof_unit_43090.cif
_audit_creation_date              2012-12-11T16:30:15-0500
_audit_creation_method            fapswitch 2.2
_symmetry_space_group_name_H-M    P1
_symmetry_Int_Tables_number       1
_space_group_crystal_system       triclinic
_cell_length_a                    8.427471
_cell_length_b                    17.335552
_cell_length_c                    22.904429
_cell_angle_alpha                 95.408962
_cell_angle_beta                  89.513726
_cell_angle_gamma                 96.408059
_cell_volume                      3310.49914024

loop_
_atom_site_label
_atom_site_type_symbol
_atom_type_description
_atom_site_fract_x
_atom_site_fract_y
_atom_site_fract_z
_atom_type_partial_charge
Ba1   Ba    Ba6+2 0.852790 0.535910 0.472200 1.665407
Ba2   Ba    Ba6+2 0.337030 0.464150 0.527810 1.667799
C1    C     C_3   0.744822 0.815722 0.299351 0.303105
C2    C     C_R   0.158081 0.554048 0.933534 -0.044529
C3    C     C_R   0.096712 0.556233 0.875966 0.600744
C4    C     C_3   0.165907 0.723554 0.315028 0.785381
C5    C     C_R   0.931466 0.436176 0.884000 0.578209
C6    C     C_R   0.985389 0.432933 0.942244 -0.066472
C7    C     C_R   0.092302 0.495094 0.968065 -0.113934
C8    C     C_R   0.285575 0.608170 0.957636 0.002795
C9    C     C_R   0.309053 0.617788 0.019330 0.402356
C10   C     C_R   0.237755 0.560628 0.054812 -0.049360
C11   C     C_R   0.136899 0.497120 0.028213 -0.121691
C12   C     C_3   0.680028 0.740937 0.327014 0.417608
C13   C     C_R   0.934436 0.369671 0.976083 0.393792
C14   C     C_R   0.978263 0.372967 0.035025 -0.049467
C15   C     C_R   0.078466 0.436173 0.061921 -0.071588
C16   C     C_3   0.230855 0.778706 0.270348 0.349971
C17   C     C_R   0.124386 0.438308 0.121511 0.594969
C18   C     C_R   0.267942 0.564567 0.116145 0.663038
C19   C     C_2   0.777139 0.476119 0.773719 -0.138311
C20   C     C_3   0.728522 0.473285 0.709923 -0.038877
C21   C     C_1   0.005045 0.514432 0.685997 0.021521
C22   C     C_2   0.051068 0.517895 0.741934 -0.121777
C23   C     C_3   0.509732 0.332996 0.341563 0.924581
C24   C     C_2   0.932209 0.498678 0.790078 0.206725
C25   C     C_R   0.410388 0.539252 0.231938 -0.051489
C26   C     C_R   0.446173 0.551058 0.291986 -0.003716
C27   C     C_R   0.186750 0.486681 0.314563 0.041079
C28   C     C_3   0.212313 0.701064 0.596439 0.288900
C29   C     C_R   0.145250 0.479575 0.254491 -0.065087
C30   C     C_R   0.256066 0.507349 0.211867 0.222504
C31   C     C_2   0.867020 0.476642 0.668012 -0.295335
C32   C     C_R   0.413306 0.722116 0.474440 -0.296417
C33   C     C_R   0.555886 0.745591 0.504871 0.070946
C34   C     C_3   0.535720 0.300207 0.277505 0.380663
C35   C     C_R   0.613094 0.824727 0.512537 -0.148213
C36   C     C_R   0.524796 0.881057 0.492603 0.000637
C37   C     C_R   0.372545 0.858217 0.466036 0.007391
C38   C     C_R   0.317782 0.777019 0.456884 -0.020678
C39   C     C_R   0.595403 0.165597 0.493683 -0.098875
C40   C     C_3   0.226722 0.788982 0.611405 -0.399765
C41   C     C_R   0.644660 0.245787 0.498600 0.029207
C42   C     C_R   0.892055 0.222893 0.545427 -0.003288
C43   C     C_R   0.844534 0.142071 0.538212 -0.132632
C44   C     C_R   0.693491 0.113592 0.514334 0.006589
C45   C     C_3   0.072819 0.325399 0.685125 0.371235
C46   C     C_1   0.639405 0.031020 0.508846 -0.007347
C47   C     C_1   0.589002 0.962546 0.502529 -0.003001
C48   C     C_R   0.789573 0.274206 0.526648 -0.291453
C49   C     C_3   0.978794 0.297907 0.404165 0.316175
C50   C     C_3   0.987673 0.209045 0.394759 0.579093
C51   C     C_3   0.720705 0.642501 0.649025 0.346514
C52   C     C_3   0.759554 0.675230 0.712885 0.306425
C53   C     C_3   0.709753 0.890775 0.336738 -0.332729
C54   C     C_3   0.834101 0.915605 0.384908 -0.429742
C55   C     C_3   0.613527 0.669270 0.753708 -0.159178
C56   C     C_3   0.049732 0.320325 0.750342 -0.449866
C57   C     C_3   0.479727 0.715540 0.736934 -0.306555
C58   C     C_3   0.713169 0.294968 0.263339 -0.169598
C59   C     C_3   0.738896 0.267428 0.198984 -0.370466
C60   C     C_3   0.689999 0.250736 0.695267 -0.182856
C61   C     C_3   0.747025 0.171893 0.673076 -0.426853
C62   C     C_3   0.548233 0.129333 0.779366 -0.229489
C63   C     C_3   0.709930 0.139342 0.812196 -0.452506
C64   C     C_3   0.281996 0.177498 0.769541 -0.159339
C65   C     C_3   0.223313 0.098853 0.735032 -0.371096
C66   C     C_3   0.505568 0.263030 0.827167 -0.193293
C67   C     C_3   0.511454 0.248353 0.710527 0.704142
C68   C     C_3   0.400207 0.327921 0.845297 -0.395387
C69   C     C_3   0.418051 0.642113 0.918452 -0.183277
C70   C     C_3   0.497482 0.576668 0.883985 -0.409423
C71   C     C_3   0.265781 0.920617 0.454599 -0.214703
C72   C     C_3   0.316150 0.962679 0.400687 -0.406187
C73   C     C_3   0.465313 0.205178 0.770268 0.115946
C74   C     C_R   0.332520 0.527042 0.332799 -0.261248
H1    H     H_    0.732870 0.742161 0.371464 0.002834
H2    H     H_    0.846768 0.639805 0.730665 -0.016241
H3    H     H_    0.547935 0.737942 0.330570 -0.100469
H4    H     H_    0.491371 0.340778 0.247844 0.004597
H5    H     H_    0.875861 0.816296 0.294830 0.136482
H6    H     H_    0.170998 0.372101 0.679259 0.121490
H7    H     H_    0.961062 0.342646 0.668384 -0.055363
H8    H     H_    0.161558 0.341795 0.773694 0.118481
H9    H     H_    0.961500 0.358407 0.766721 0.129337
H10   H     H_    0.003028 0.260912 0.760514 0.122517
H11   H     H_    0.934638 0.324489 0.059604 0.138339
H12   H     H_    0.298392 0.805503 0.652018 0.123636
H13   H     H_    0.503531 0.555023 0.201054 0.121646
H14   H     H_    0.177174 0.529249 0.752555 0.126118
H15   H     H_    0.684979 0.464447 0.806030 0.116528
H16   H     H_    0.027333 0.452650 0.241569 0.122531
H17   H     H_    0.362379 0.534893 0.378980 0.055147
H18   H     H_    0.269833 0.698424 0.332768 -0.155613
H19   H     H_    0.850925 0.450644 0.623141 0.076349
H20   H     H_    0.483961 0.143492 0.471639 0.102965
H21   H     H_    0.922657 0.102050 0.552679 0.076128
H22   H     H_    0.724035 0.842751 0.536111 0.093345
H23   H     H_    0.286227 0.819377 0.575573 0.069528
H24   H     H_    0.369299 0.660780 0.469002 0.066171
H25   H     H_    0.827510 0.336185 0.530292 0.065646
H26   H     H_    0.132169 0.808159 0.253496 0.045559
H27   H     H_    0.321294 0.823458 0.291794 -0.114474
H28   H     H_    0.332415 0.683063 0.587090 0.009609
H29   H     H_    0.134068 0.685769 0.557338 0.073781
H30   H     H_    0.029602 0.195534 0.310496 0.324727
H31   H     H_    0.216713 0.211530 0.380884 0.340439
H32   H     H_    0.827838 0.872091 0.417519 0.157537
H33   H     H_    0.955929 0.922168 0.365872 0.152240
H34   H     H_    0.106201 0.808449 0.618103 0.128118
H35   H     H_    0.811349 0.972795 0.407416 0.154870
H36   H     H_    0.711423 0.939181 0.308072 0.181710
H37   H     H_    0.589049 0.882531 0.356518 0.100453
H38   H     H_    0.938901 0.752342 0.700310 0.316558
H39   H     H_    0.525544 0.777426 0.733084 0.161731
H40   H     H_    0.424918 0.689391 0.694956 0.156912
H41   H     H_    0.385594 0.713380 0.771148 0.124494
H42   H     H_    0.564924 0.607174 0.754790 0.062351
H43   H     H_    0.654061 0.692003 0.798695 0.121796
H44   H     H_    0.570817 0.823703 0.245663 0.320590
H45   H     H_    0.853085 0.308808 0.410228 -0.050095
H46   H     H_    0.331191 0.369418 0.385307 0.286255
H47   H     H_    0.546789 0.441920 0.376961 0.289608
H48   H     H_    0.338295 0.233464 0.258371 0.318140
H49   H     H_    0.674774 0.208445 0.187770 0.181528
H50   H     H_    0.696017 0.308861 0.170147 0.130286
H51   H     H_    0.868257 0.264483 0.190901 0.166390
H52   H     H_    0.783027 0.352943 0.272663 0.128619
H53   H     H_    0.759813 0.253842 0.291163 0.182659
H54   H     H_    0.325342 0.773825 0.193414 0.333964
H55   H     H_    0.657702 0.134628 0.644600 0.159101
H56   H     H_    0.047193 0.320989 0.444530 0.024627
H57   H     H_    0.856002 0.181910 0.648143 0.141660
H58   H     H_    0.788626 0.139062 0.707346 0.128274
H59   H     H_    0.714739 0.287386 0.658556 0.031475
H60   H     H_    0.756588 0.277895 0.733807 0.058223
H61   H     H_    0.445511 0.238074 0.628553 0.323363
H62   H     H_    0.788548 0.191144 0.801144 0.137649
H63   H     H_    0.691785 0.144797 0.860427 0.156231
H64   H     H_    0.772715 0.086812 0.801368 0.137719
H65   H     H_    0.470829 0.092278 0.807710 0.124597
H66   H     H_    0.552823 0.091848 0.737627 0.126208
H67   H     H_    0.900789 0.180910 0.424732 0.038789
H68   H     H_    0.286735 0.089298 0.692900 0.187507
H69   H     H_    0.237120 0.049540 0.761434 0.105258
H70   H     H_    0.093923 0.097190 0.725356 0.124543
H71   H     H_    0.233590 0.175456 0.814744 0.083897
H72   H     H_    0.227530 0.220656 0.748369 0.189997
H73   H     H_    0.034805 0.624781 0.314683 0.307458
H74   H     H_    0.408433 0.373858 0.814769 0.166318
H75   H     H_    0.274811 0.303931 0.852256 0.107916
H76   H     H_    0.443771 0.357707 0.888187 0.144599
H77   H     H_    0.502367 0.228935 0.865996 0.135919
H78   H     H_    0.833860 0.629678 0.627336 -0.017826
H79   H     H_    0.628618 0.290803 0.823307 0.176701
H80   H     H_    0.897553 0.283897 0.916775 0.320005
H81   H     H_    0.399148 0.725793 0.022728 0.298886
H82   H     H_    0.522503 0.531736 0.913177 0.139113
H83   H     H_    0.420291 0.548549 0.847199 0.142120
H84   H     H_    0.613203 0.600407 0.865894 0.120576
H85   H     H_    0.374232 0.681835 0.888619 0.160734
H86   H     H_    0.514969 0.677756 0.944419 0.126197
H87   H     H_    0.441944 0.989311 0.403875 0.144675
H88   H     H_    0.300918 0.921537 0.360766 0.128857
H89   H     H_    0.637774 0.587911 0.647837 -0.014678
H90   H     H_    0.239140 0.009851 0.396490 0.165966
H91   H     H_    0.139432 0.896799 0.448827 0.138943
H92   H     H_    0.267726 0.964034 0.493598 0.114854
N1    N     N_R   0.986081 0.497317 0.851182 -0.419403
N2    N     N_R   0.214498 0.503286 0.149144 -0.434866
O1    O     O_2   0.894270 0.458150 0.360790 -0.410119
O2    O     O_2   0.231525 0.230381 0.549227 -0.445840
O3    O     O_3   0.107860 0.254516 0.654894 -0.582437
O4    O     O_3   0.134750 0.458940 0.431830 -0.502591
O5    O     O_3   0.566070 0.591710 0.528970 -0.483231
O6    O     O_2   0.362610 0.313970 0.472520 -0.451026
O7    O     O_3   0.554005 0.279273 0.379671 -0.633706
O8    O     O_2   0.422437 0.461443 0.701993 -0.486902
O9    O     O_3   0.458394 0.324972 0.718618 -0.626453
O10   O     O_2   0.136186 0.612678 0.848977 -0.610444
O11   O     O_2   0.833862 0.384557 0.862711 -0.630616
O12   O     O_3   0.650639 0.698084 0.620649 -0.625878
O13   O     O_2   0.086110 0.381463 0.148309 -0.617595
O14   O     O_2   0.341508 0.623267 0.140225 -0.472294
O15   O     O_3   0.663190 0.596710 0.395570 -0.493790
O16   O     O_2   0.763064 0.532338 0.293231 -0.447364
O17   O     O_3   0.037709 0.333749 0.354910 -0.618708
O18   O     O_3   0.724467 0.676951 0.290865 -0.532631
O19   O     O_2   0.827090 0.686050 0.527520 -0.456738
O20   O     O_3   0.077580 0.635890 0.424230 -0.489907
O21   O     O_2   0.986143 0.772561 0.465638 -0.494933
O22   O     O_3   0.943683 0.177627 0.337603 -0.722475
O23   O     O_3   0.081550 0.766251 0.358003 -0.674678
O24   O     O_3   0.139041 0.189672 0.409369 -0.726653
O25   O     O_3   0.828101 0.753161 0.715128 -0.696070
O26   O     O_3   0.684296 0.814206 0.242239 -0.662918
O27   O     O_3   0.347210 0.341015 0.346844 -0.795076
O28   O     O_3   0.603503 0.405245 0.351108 -0.749145
O29   O     O_3   0.450433 0.225730 0.266939 -0.706773
O30   O     O_3   0.302264 0.737171 0.223969 -0.659897
O31   O     O_3   0.425772 0.207245 0.662787 -0.727204
O32   O     O_3   0.061230 0.663840 0.286240 -0.673010
O33   O     O_3   0.843717 0.302888 0.953129 -0.706724
O34   O     O_2   0.295430 0.541870 0.639250 -0.451450
O35   O     O_3   0.408707 0.680200 0.045032 -0.663204
O36   O     O_3   0.054960 0.541130 0.568170 -0.489457
O37   O     O_3   0.526510 0.403350 0.604440 -0.463065
O38   O     O_3   0.147420 0.665819 0.644940 -0.651072
O39   O     O_3   0.623640 0.408350 0.471030 -0.468265
O40   O     O_3   0.112120 0.364170 0.575770 -0.498925
P1    P     P_3+3 0.063260 0.435680 0.369690 1.020910
P2    P     P_3+3 0.650710 0.674870 0.544690 0.999997
P3    P     P_3+3 0.117305 0.737801 0.427449 0.905096
P4    P     P_3+3 0.126450 0.564380 0.630310 0.977955
P5    P     P_3+3 0.086345 0.264056 0.579715 0.981925
P6    P     P_3+3 0.647252 0.589858 0.318589 1.018997
P7    P     P_3+3 0.544217 0.310880 0.455314 0.985611
P8    P     P_3+3 0.547981 0.406492 0.682056 0.899747

loop_
_geom_bond_atom_site_label_1
_geom_bond_atom_site_label_2
_ccdc_geom_bond_type
C26   P6    S    
C18   N2    Am   
C53   C54   S    
C67   O31   S    
C69   H86   S    
C53   H36   S    
Ba1   P1    S    
C42   P5    S    
C71   C72   S    
H47   O28   S    
C68   H74   S    
C34   O29   S    
H30   O22   S    
C71   H91   S    
C66   H79   S    
O18   P6    S    
C5    C6    A    
C27   C74   A    
C43   C44   A    
C66   C73   S    
H48   O29   S    
H44   O26   S    
C70   H83   S    
C62   H66   S    
C74   H17   S    
C49   O17   S    
C32   C38   A    
C61   H57   S    
O3    P5    S    
C35   C36   A    
C22   C24   S    
C4    O32   S    
C50   O22   S    
C36   C37   A    
C32   C33   A    
C23   O7    S    
C55   C57   S    
C39   H20   S    
C62   H65   S    
C13   C14   A    
O34   P4    D    
C70   H82   S    
O37   P8    S    
Ba1   Ba2   S    
C16   H26   S    
C45   H6    S    
C60   H60   S    
C7    C11   A    
C54   H32   S    
C23   O28   S    
Ba2   O6    S    
C63   H64   S    
C1    C53   S    
C24   N1    S    
C57   H40   S    
C4    H18   S    
O16   P6    D    
C38   P3    S    
C1    H5    S    
C14   H11   S    
C32   H24   S    
C39   C44   A    
C17   N2    Am   
C25   H13   S    
C59   H50   S    
Ba2   O36   S    
C61   H55   S    
O2    P5    D    
C54   H35   S    
C64   H72   S    
C55   H43   S    
C8    C69   S    
O36   P4    S    
C37   C71   S    
C64   C65   S    
C20   P8    S    
C51   H78   S    
C57   H41   S    
C19   C20   S    
Ba1   P2    S    
C27   C29   A    
C39   C41   A    
C41   P7    S    
C71   H92   S    
H54   O30   S    
C65   H68   S    
C31   H19   S    
C35   H22   S    
C19   C24   D    
C27   P1    S    
C4    C16   S    
C44   C46   S    
Ba1   O4    S    
Ba2   O40   S    
C50   H67   S    
H38   O25   S    
C5    O11   D    
Ba1   O39   S    
O4    P1    S    
C61   H58   S    
C58   H52   S    
C50   O24   S    
C66   H77   S    
C34   H4    S    
C17   O13   D    
C37   C38   A    
C36   C47   S    
C14   C15   A    
C53   H37   S    
C21   C31   D    
C51   C52   S    
Ba1   O1    S    
C49   C50   S    
C60   C67   S    
C58   C59   S    
C60   H59   S    
C33   P2    S    
C3    O10   D    
C65   H69   S    
C60   C61   S    
C56   H10   S    
C56   H8    S    
Ba2   O5    S    
O1    P1    D    
C29   C30   A    
C21   C22   D    
C28   O38   S    
C10   C18   A    
C65   H70   S    
O12   P2    S    
C6    C7    A    
Ba2   O34   S    
C59   H51   S    
C12   H3    S    
Ba1   O36   S    
O5    P2    S    
C64   H71   S    
C45   O3    S    
C1    C12   S    
C63   H62   S    
C51   H89   S    
C46   C47   T    
O17   P1    S    
Ba2   P4    S    
C6    C13   A    
C45   H7    S    
O6    P7    D    
C5    N1    Am   
C28   H29   S    
C16   O30   S    
C49   H45   S    
C40   H12   S    
C2    C8    A    
C26   C74   A    
C56   H9    S    
C54   H33   S    
C72   H90   S    
C42   C43   A    
C19   H15   S    
C42   C48   A    
C20   C31   S    
C30   N2    S    
Ba1   O5    S    
Ba2   O39   S    
O38   P4    S    
C52   O25   S    
C69   H85   S    
C33   C35   A    
C25   C30   A    
C4    O23   S    
O8    P8    D    
C68   H75   S    
O7    P7    S    
C2    C3    A    
C34   C58   S    
O19   P2    D    
C22   H14   S    
C58   H53   S    
O21   P3    D    
C13   O33   S    
C49   H56   S    
C41   C48   A    
O23   P3    S    
Ba1   O15   S    
C68   H76   S    
C1    O26   S    
C70   H84   S    
O15   P6    S    
C18   O14   D    
O39   P7    S    
C62   C63   S    
C40   H34   S    
C69   C70   S    
O9    P8    S    
C43   H21   S    
C40   H23   S    
Ba1   O20   S    
C45   C56   S    
C72   H88   S    
C72   H87   S    
H61   O31   S    
C64   C73   S    
C15   C17   A    
C62   C73   S    
C67   C73   S    
C16   H27   S    
H31   O24   S    
H46   O27   S    
O20   P3    S    
C23   O27   S    
C8    C9    A    
Ba2   O4    S    
C23   C34   S    
C11   C15   A    
C63   H63   S    
C10   C11   A    
C48   H25   S    
C57   H39   S    
C29   H16   S    
C12   O18   S    
C28   H28   S    
C25   C26   A    
C12   H1    S    
C66   C68   S    
C3    N1    Am   
C28   C40   S    
C59   H49   S    
Ba2   O37   S    
C9    O35   S    
C2    C7    A    
C51   O12   S    
H80   O33   S    
H73   O32   S    
C52   C55   S    
H81   O35   S    
C67   O9    S    
O40   P5    S    
C9    C10   A    
C55   H42   S    
C52   H2    S    
C21   P4    S    
Ba1   O19   S    
