data_mof_unit_45037.cif
_audit_creation_date              2012-12-11T14:15:03-0500
_audit_creation_method            fapswitch 2.2
_symmetry_space_group_name_H-M    P1
_symmetry_Int_Tables_number       1
_space_group_crystal_system       triclinic
_cell_length_a                    23.909338
_cell_length_b                    16.991373
_cell_length_c                    15.660327
_cell_angle_alpha                 89.736304
_cell_angle_beta                  128.295473
_cell_angle_gamma                 89.967821
_cell_volume                      4992.99531844

loop_
_atom_site_label
_atom_site_type_symbol
_atom_type_description
_atom_site_fract_x
_atom_site_fract_y
_atom_site_fract_z
_atom_type_partial_charge
C1    C     C_R   0.346234 0.363310 0.239161 0.200796
C2    C     C_R   0.641940 0.690591 0.500223 -0.207678
C3    C     C_3   0.853711 0.934622 0.686283 -0.060077
C4    C     C_3   0.424613 0.642932 0.747408 -0.340026
C5    C     C_3   0.576269 0.652808 0.253199 -0.425010
C6    C     C_3   0.912852 0.131582 0.736298 -0.353695
C7    C     C_3   0.085696 0.091667 0.270454 -0.355158
C8    C     C_3   0.561184 0.927600 0.365397 0.034757
C9    C     C_3   0.451187 0.898100 0.642913 -0.099043
C10   C     C_3   0.057395 0.408982 0.312445 -0.050763
C11   C     C_3   0.954334 0.415373 0.632692 -0.118155
C12   C     C_R   0.862010 0.192998 0.500125 -0.249664
C13   C     C_R   0.135649 0.192443 0.494971 -0.192994
C14   C     C_R   0.350705 0.628914 0.135225 -0.152333
C15   C     C_R   0.651669 0.617532 0.870459 -0.143603
C16   C     C_R   0.855607 0.136845 0.146463 -0.093997
C17   C     C_R   0.146178 0.130073 0.858151 -0.107225
C18   C     C_2   0.650680 0.835506 0.462488 0.360853
C19   C     C_2   0.352020 0.819681 0.569147 0.296900
C20   C     C_2   0.146316 0.325663 0.437284 0.349342
C21   C     C_R   0.651213 0.359912 0.756387 0.241364
C22   C     C_2   0.858611 0.330792 0.559726 0.328136
C23   C     C_2   0.630929 0.777055 0.499486 0.455734
C24   C     C_2   0.353161 0.777513 0.495989 0.521288
C25   C     C_2   0.125892 0.279004 0.484505 0.388538
C26   C     C_2   0.868741 0.280407 0.502007 0.477652
C27   C     C_2   0.200412 0.302947 0.423440 0.351123
C28   C     C_2   0.805906 0.316276 0.580984 0.341308
C29   C     C_2   0.697152 0.830160 0.428122 0.311199
C30   C     C_2   0.300607 0.801648 0.592281 0.328427
C31   C     C_2   0.269845 0.315251 0.509975 0.382734
C32   C     C_R   0.836745 0.878725 0.211776 0.185968
C33   C     C_2   0.735711 0.323142 0.494441 0.396203
C34   C     C_2   0.767222 0.809610 0.500375 0.370998
C35   C     C_2   0.229713 0.797942 0.506570 0.408651
C36   C     C_2   0.640336 0.236851 0.830499 -0.200253
C37   C     C_2   0.357241 0.237931 0.170922 -0.207174
C38   C     C_2   0.195282 0.830016 0.969288 -0.080380
C39   C     C_2   0.847462 0.759704 0.129663 -0.140465
C40   C     C_2   0.694467 0.233961 0.936019 0.362233
C41   C     C_2   0.305466 0.229307 0.065304 0.393083
C42   C     C_2   0.247963 0.774164 0.016449 0.132604
C43   C     C_R   0.165931 0.883801 0.794254 0.238861
C44   C     C_2   0.783329 0.727866 0.048523 0.195715
C45   C     C_2   0.301914 0.644046 0.014487 0.514965
C46   C     C_2   0.699945 0.609255 0.991653 0.566340
C47   C     C_2   0.817948 0.191411 0.055170 0.519818
C48   C     C_2   0.183882 0.183230 0.950743 0.527172
C49   C     C_R   0.617682 0.395895 0.412278 0.628348
C50   C     C_R   0.382850 0.395211 0.588067 0.670435
C51   C     C_R   0.110861 0.878091 0.412215 0.584496
C52   C     C_R   0.887208 0.882938 0.588792 0.598691
C53   C     C_2   0.251694 0.702962 0.961877 0.143958
C54   C     C_R   0.407893 0.644137 0.588862 0.552540
C55   C     C_2   0.764243 0.646158 0.062549 0.037474
C56   C     C_2   0.749881 0.173659 0.975618 -0.006398
C57   C     C_2   0.252734 0.166804 0.028874 -0.010940
C58   C     C_R   0.687287 0.389840 0.588959 -0.164850
C59   C     C_R   0.314263 0.386550 0.411597 -0.239298
C60   C     C_R   0.182046 0.877795 0.591470 -0.161668
C61   C     C_R   0.817447 0.879021 0.410342 -0.170233
C62   C     C_R   0.557939 0.355378 0.754229 0.221122
C63   C     C_R   0.440010 0.356291 0.242774 0.196583
C64   C     C_R   0.076982 0.887116 0.799729 0.235839
C65   C     C_R   0.592178 0.644230 0.410741 0.626095
C66   C     C_R   0.926749 0.879220 0.208394 0.233391
C67   C     C_R   0.380408 0.316675 0.213824 -0.022306
C68   C     C_R   0.615486 0.313389 0.779560 -0.054351
C69   C     C_R   0.860694 0.844596 0.159595 0.060167
C70   C     C_R   0.144254 0.853410 0.851613 -0.026008
C71   C     C_R   0.680939 0.361333 0.500385 -0.156940
C72   C     C_R   0.321733 0.357848 0.501559 -0.121444
C73   C     C_R   0.174669 0.844838 0.504020 -0.134025
C74   C     C_R   0.823474 0.850397 0.499034 -0.141593
C75   C     C_R   0.338501 0.645821 0.409303 -0.084965
C76   C     C_R   0.907831 0.144246 0.588685 0.603916
C77   C     C_R   0.662704 0.644589 0.589817 -0.145580
C78   C     C_R   0.843062 0.148793 0.411650 -0.109692
C79   C     C_R   0.153922 0.150197 0.585330 -0.103179
C80   C     C_R   0.421126 0.604510 0.195424 0.078545
C81   C     C_R   0.579586 0.599360 0.806177 0.062614
C82   C     C_R   0.924437 0.112164 0.201891 -0.104374
C83   C     C_R   0.076984 0.106434 0.801341 -0.069380
C84   C     C_R   0.670241 0.600418 0.804238 0.192109
C85   C     C_R   0.330753 0.606388 0.198092 0.181461
C86   C     C_R   0.168221 0.107787 0.798440 0.223148
C87   C     C_R   0.091780 0.142598 0.408832 0.616591
C88   C     C_R   0.832268 0.110263 0.202904 0.220256
C89   C     C_3   0.618044 0.817920 0.625307 -0.014831
C90   C     C_3   0.307951 0.863016 0.354160 -0.072643
C91   C     C_3   0.118803 0.350775 0.600518 -0.091012
C92   C     C_3   0.843983 0.349063 0.356558 -0.029185
C93   C     C_3   0.201104 0.238137 0.296953 -0.126150
C94   C     C_3   0.895474 0.338352 0.767499 -0.148286
C95   C     C_3   0.625996 0.838904 0.244158 -0.255496
C96   C     C_3   0.387430 0.837223 0.776065 -0.077383
C97   C     C_3   0.296059 0.307549 0.679875 -0.078005
C98   C     C_R   0.357795 0.690005 0.498186 -0.220142
C99   C     C_3   0.680642 0.233700 0.358754 -0.106387
C100  C     C_3   0.828797 0.699901 0.599919 -0.109761
C101  C     C_3   0.174003 0.694070 0.394280 -0.143525
C102  C     C_3   0.294849 0.518476 0.956742 -0.089475
C103  C     C_3   0.651291 0.579548 0.074985 -0.167144
C104  C     C_3   0.910076 0.276669 0.110831 -0.090252
C105  C     C_3   0.090628 0.266911 0.896715 -0.140130
C106  C     C_3   0.665255 0.480874 0.356451 -0.115215
C107  C     C_3   0.328445 0.483544 0.627779 -0.300873
C108  C     C_3   0.133762 0.904702 0.291439 -0.093259
H1    H     H_    0.633265 0.190320 0.777383 0.158513
H2    H     H_    0.695034 0.665938 0.671884 0.168507
H3    H     H_    0.984826 0.363539 0.685664 0.098870
H4    H     H_    0.818860 0.175739 0.334503 0.164732
H5    H     H_    0.175421 0.178547 0.660496 0.148490
H6    H     H_    0.447089 0.593398 0.159863 0.144391
H7    H     H_    0.553058 0.584053 0.839615 0.135592
H8    H     H_    0.951746 0.111616 0.167616 0.169074
H9    H     H_    0.049378 0.102076 0.835224 0.166792
H10   H     H_    0.669216 0.849496 0.662451 0.143535
H11   H     H_    0.627097 0.764096 0.672588 0.134921
H12   H     H_    0.583260 0.857547 0.630229 0.158743
H13   H     H_    0.363910 0.194435 0.227683 0.147917
H14   H     H_    0.263614 0.825235 0.289633 0.143201
H15   H     H_    0.323593 0.903152 0.316343 0.191606
H16   H     H_    0.289094 0.901692 0.388724 0.123428
H17   H     H_    0.141456 0.405777 0.594818 0.156528
H18   H     H_    0.161657 0.313991 0.670003 0.113059
H19   H     H_    0.082113 0.367885 0.618096 0.162997
H20   H     H_    0.794699 0.313325 0.303627 0.145027
H21   H     H_    0.864207 0.360881 0.310331 0.185987
H22   H     H_    0.830937 0.406704 0.373665 0.169614
H23   H     H_    0.164345 0.226768 0.208178 0.176047
H24   H     H_    0.199550 0.873556 0.023519 0.180069
H25   H     H_    0.255286 0.246435 0.321533 0.147608
H26   H     H_    0.201815 0.184754 0.338775 0.124636
H27   H     H_    0.906875 0.330565 0.847306 0.175000
H28   H     H_    0.934316 0.301353 0.769121 0.136791
H29   H     H_    0.902583 0.401741 0.759013 0.170697
H30   H     H_    0.607517 0.879102 0.175192 0.216570
H31   H     H_    0.650293 0.786469 0.236161 0.136943
H32   H     H_    0.578322 0.822291 0.237126 0.155703
H33   H     H_    0.400170 0.829481 0.856796 0.171913
H34   H     H_    0.430358 0.807263 0.780505 0.137449
H35   H     H_    0.890408 0.721856 0.191803 0.149719
H36   H     H_    0.386496 0.901510 0.762067 0.188088
H37   H     H_    0.255541 0.354934 0.646457 0.054459
H38   H     H_    0.349262 0.331405 0.745854 0.231774
H39   H     H_    0.283397 0.263265 0.717762 0.171632
H40   H     H_    0.664826 0.220013 0.277258 0.208211
H41   H     H_    0.716803 0.185805 0.415409 0.102940
H42   H     H_    0.631511 0.234607 0.351953 0.154011
H43   H     H_    0.881822 0.718617 0.625983 0.158532
H44   H     H_    0.799742 0.665925 0.522771 0.094888
H45   H     H_    0.838049 0.659675 0.663596 0.182957
H46   H     H_    0.737836 0.404228 0.663725 0.224518
H47   H     H_    0.159891 0.666232 0.319301 0.189511
H48   H     H_    0.208931 0.652005 0.462818 0.113442
H49   H     H_    0.123585 0.704526 0.382269 0.164796
H50   H     H_    0.243080 0.512977 0.942112 0.169083
H51   H     H_    0.338502 0.491002 0.035912 0.147293
H52   H     H_    0.290056 0.485436 0.891615 0.185198
H53   H     H_    0.631700 0.530224 0.096581 0.189132
H54   H     H_    0.604862 0.618144 0.016101 0.093952
H55   H     H_    0.690489 0.613036 0.150549 0.142151
H56   H     H_    0.920815 0.238488 0.064740 0.118025
H57   H     H_    0.263823 0.394541 0.333846 0.237732
H58   H     H_    0.948469 0.264579 0.199560 0.150680
H59   H     H_    0.918617 0.338379 0.098070 0.169521
H60   H     H_    0.079733 0.225953 0.940574 0.113182
H61   H     H_    0.053029 0.257778 0.807653 0.169978
H62   H     H_    0.081343 0.327545 0.911490 0.177324
H63   H     H_    0.670995 0.526711 0.411573 0.073575
H64   H     H_    0.653459 0.509579 0.283251 0.136060
H65   H     H_    0.717270 0.451579 0.396057 0.175629
H66   H     H_    0.327880 0.530689 0.578423 0.131480
H67   H     H_    0.332762 0.510387 0.696017 0.184340
H68   H     H_    0.228933 0.875621 0.672764 0.232875
H69   H     H_    0.275875 0.454680 0.576285 0.156569
H70   H     H_    0.179815 0.936602 0.363346 0.067201
H71   H     H_    0.104704 0.946155 0.221742 0.148123
H72   H     H_    0.152909 0.858157 0.265954 0.202887
H73   H     H_    0.831702 0.984178 0.626518 0.069307
H74   H     H_    0.878991 0.959759 0.767878 0.170472
H75   H     H_    0.809781 0.897423 0.668759 0.180993
H76   H     H_    0.453559 0.672024 0.827590 0.187227
H77   H     H_    0.436516 0.579198 0.764328 0.190090
H78   H     H_    0.366674 0.654619 0.701592 0.173288
H79   H     H_    0.770730 0.873902 0.329239 0.220358
H80   H     H_    0.548939 0.687818 0.177109 0.196653
H81   H     H_    0.563573 0.590477 0.228140 0.187513
H82   H     H_    0.634639 0.663752 0.302810 0.128318
H83   H     H_    0.934160 0.159302 0.815079 0.194363
H84   H     H_    0.929075 0.068963 0.753459 0.178491
H85   H     H_    0.853697 0.138076 0.681901 0.172260
H86   H     H_    0.072396 0.105398 0.190393 0.191978
H87   H     H_    0.054026 0.039777 0.260365 0.186389
H88   H     H_    0.143415 0.076741 0.328476 0.138549
H89   H     H_    0.536057 0.974235 0.380933 0.146450
H90   H     H_    0.306939 0.668607 0.327809 0.184124
H91   H     H_    0.524800 0.875904 0.332298 0.153261
H92   H     H_    0.565471 0.950845 0.303348 0.151088
H93   H     H_    0.475553 0.948709 0.699408 0.165812
H94   H     H_    0.458958 0.907742 0.580770 0.186777
H95   H     H_    0.480637 0.844185 0.691586 0.135279
H96   H     H_    0.043109 0.472057 0.291492 0.157099
H97   H     H_    0.015711 0.381284 0.313462 0.153942
H98   H     H_    0.057570 0.382460 0.247731 0.146711
H99   H     H_    0.972940 0.467414 0.686377 0.150411
H100  H     H_    0.967227 0.425750 0.576634 0.191049
I1    I     I_    0.233905 0.366281 0.142615 -0.389631
I2    I     I_    0.290016 0.312764 0.948715 -0.400777
I3    I     I_    0.339995 0.809052 0.173744 -0.359344
I4    I     I_    0.710121 0.798884 0.908697 -0.389017
I5    I     I_    0.509089 0.325257 0.826021 -0.243767
I6    I     I_    0.488912 0.324146 0.172128 -0.289650
I7    I     I_    0.047451 0.924616 0.896219 -0.393668
I8    I     I_    0.943562 0.917244 0.097096 -0.320574
I9    I     I_    0.775882 0.573431 0.865110 -0.352704
I10   I     I_    0.222866 0.587638 0.131449 -0.402242
I11   I     I_    0.275240 0.105953 0.850956 -0.320154
I12   I     I_    0.762812 0.349380 0.842847 -0.341650
I13   I     I_    0.724024 0.103459 0.145072 -0.330793
I14   I     I_    0.725667 0.889185 0.129412 -0.358893
I15   I     I_    0.277026 0.896655 0.874453 -0.322565
I16   I     I_    0.173094 0.685200 0.789725 -0.354939
I17   I     I_    0.837573 0.587200 0.217361 -0.388537
I18   I     I_    0.722931 0.056717 0.910561 -0.317712
I19   I     I_    0.285585 0.050389 0.094704 -0.402267
I20   I     I_    0.707871 0.324601 0.043598 -0.224974
N1    N     N_R   0.389060 0.424180 0.294540 -0.082705
N2    N     N_R   0.374530 0.423490 0.443400 -0.075176
N3    N     N_R   0.125470 0.923490 0.556600 -0.077410
N4    N     N_R   0.874530 0.923490 0.443400 -0.074233
N5    N     N_R   0.555250 0.423100 0.705420 -0.099675
N6    N     N_R   0.444750 0.423100 0.294580 -0.103782
N7    N     N_R   0.055250 0.923100 0.705420 -0.095114
N8    N     N_R   0.944750 0.923100 0.294580 -0.101914
N9    N     N_R   0.375210 0.577180 0.443400 -0.074170
N10   N     N_R   0.624790 0.577180 0.556600 -0.072270
N11   N     N_R   0.875210 0.077180 0.443400 -0.066756
N12   N     N_R   0.610940 0.424180 0.705460 -0.082597
N13   N     N_R   0.124790 0.077180 0.556600 -0.068140
N14   N     N_R   0.445430 0.577570 0.294580 -0.056012
N15   N     N_R   0.554570 0.577570 0.705420 -0.057655
N16   N     N_R   0.945430 0.077570 0.294580 -0.055534
N17   N     N_R   0.054570 0.077570 0.705420 -0.050902
N18   N     N_R   0.611620 0.576500 0.705460 -0.069429
N19   N     N_R   0.388380 0.576500 0.294540 -0.056762
N20   N     N_R   0.111620 0.076500 0.705460 -0.072244
N21   N     N_R   0.888380 0.076500 0.294540 -0.062475
N22   N     N_R   0.421010 0.576890 0.556640 -0.095402
N23   N     N_R   0.889060 0.924180 0.294540 -0.087623
N24   N     N_R   0.578990 0.576890 0.443360 -0.102060
N25   N     N_R   0.921010 0.076890 0.556640 -0.099883
N26   N     N_R   0.078990 0.076890 0.443360 -0.112634
N27   N     N_R   0.110940 0.924180 0.705460 -0.089069
N28   N     N_R   0.579670 0.423790 0.443360 -0.119574
N29   N     N_R   0.420330 0.423790 0.556640 -0.118742
N30   N     N_R   0.079670 0.923790 0.443360 -0.112852
N31   N     N_R   0.920330 0.923790 0.556640 -0.109631
N32   N     N_R   0.625470 0.423490 0.556600 -0.086610
Ni1   Ni    Ni4+2 0.383200 0.500680 0.370150 0.243725
Ni2   Ni    Ni4+2 0.616800 0.500680 0.629850 0.242626
Ni3   Ni    Ni4+2 0.883200 0.000680 0.370150 0.262673
Ni4   Ni    Ni4+2 0.116800 0.000680 0.629850 0.254239
Ni5   Ni    Ni4+2 0.512440 0.500680 0.370150 0.248199
Ni6   Ni    Ni4+2 0.487560 0.500680 0.629850 0.258520
Ni7   Ni    Ni4+2 0.012440 0.000680 0.370150 0.233086
Ni8   Ni    Ni4+2 0.987560 0.000680 0.629850 0.247813
O1    O     O_3   0.581976 0.797961 0.515616 -0.597449
O2    O     O_3   0.715159 0.307194 0.391826 -0.652266
O3    O     O_3   0.788456 0.764786 0.590334 -0.653350
O4    O     O_3   0.209738 0.765101 0.410803 -0.686093
O5    O     O_3   0.310707 0.597217 0.951176 -0.610396
O6    O     O_3   0.682969 0.547926 0.030650 -0.558797
O7    O     O_3   0.839428 0.269694 0.073705 -0.586560
O8    O     O_3   0.161353 0.261261 0.934038 -0.584207
O9    O     O_3   0.609580 0.427572 0.323187 -0.582986
O10   O     O_3   0.386587 0.430949 0.671021 -0.619019
O11   O     O_3   0.085551 0.872042 0.305800 -0.606908
O12   O     O_3   0.367457 0.816111 0.433185 -0.595244
O13   O     O_3   0.905268 0.889341 0.690851 -0.597847
O14   O     O_3   0.450018 0.672867 0.693272 -0.651236
O15   O     O_3   0.548613 0.674756 0.306994 -0.618500
O16   O     O_3   0.943509 0.168696 0.693874 -0.679719
O17   O     O_3   0.068725 0.157404 0.305026 -0.653370
O18   O     O_3   0.629773 0.911605 0.463615 -0.611422
O19   O     O_3   0.377575 0.896543 0.593059 -0.634430
O20   O     O_3   0.124863 0.403807 0.415521 -0.634426
O21   O     O_3   0.879675 0.409068 0.572503 -0.642426
O22   O     O_3   0.079614 0.309140 0.501642 -0.587765
O23   O     O_3   0.897628 0.309179 0.453865 -0.621276
O24   O     O_3   0.177851 0.306609 0.317991 -0.619572
O25   O     O_3   0.824623 0.315178 0.685078 -0.625857
O26   O     O_3   0.676666 0.878715 0.341870 -0.604536
O27   O     O_3   0.319925 0.804128 0.696764 -0.641838
O28   O     O_3   0.298397 0.269166 0.602375 -0.627630

loop_
_geom_bond_atom_site_label_1
_geom_bond_atom_site_label_2
_ccdc_geom_bond_type
C100  H45   S    
C54   O14   S    
N3    Ni4   S    
C13   C79   A    
C91   O22   S    
C78   N11   A    
C91   H18   S    
C33   O2    S    
C60   N3    A    
C90   H14   S    
C106  H63   S    
C64   I7    S    
C92   H22   S    
C84   I9    S    
N15   Ni6   S    
C35   O4    S    
N28   Ni5   S    
C2    C65   A    
N11   Ni3   S    
C102  H50   S    
C38   C70   S    
C48   C57   D    
C15   C81   A    
C100  H44   S    
C53   I16   S    
C99   H41   S    
C32   N23   A    
C95   H32   S    
C46   O6    S    
C105  H61   S    
C30   C35   D    
C24   C98   S    
C94   O25   S    
C84   N18   A    
N4    Ni3   S    
C10   H97   S    
C87   O17   S    
C5    H82   S    
C38   C42   D    
C15   C84   A    
C93   H25   S    
C99   H40   S    
C42   C53   S    
C47   O7    S    
C58   C71   A    
C66   C69   A    
C96   H36   S    
C20   C25   D    
C101  H47   S    
C97   O28   S    
N28   N32   A    
C60   C73   A    
C61   H79   S    
C61   N4    A    
C108  H72   S    
C90   O12   S    
C20   O20   S    
N14   Ni5   S    
C4    H78   S    
N1    N6    A    
C22   O21   S    
C50   C72   A    
C102  O5    S    
N31   Ni8   S    
C58   H46   S    
C104  H58   S    
N5    Ni6   S    
N2    N29   A    
C87   N26   A    
C35   C73   S    
C89   H11   S    
N20   Ni4   S    
C40   C56   S    
N4    N31   A    
C12   C78   A    
C46   C55   D    
N11   N25   A    
N8    Ni7   S    
C4    O14   S    
C17   C48   S    
C6    H83   S    
C64   C70   A    
C27   O24   S    
C108  O11   S    
C9    H95   S    
C59   H57   S    
C59   C72   A    
C13   C87   A    
C8    O18   S    
C79   N13   A    
C96   H33   S    
N2    Ni1   S    
C45   C53   D    
N25   Ni8   S    
C62   N5    A    
C22   C28   S    
C103  O6    S    
C107  H69   S    
C66   I8    S    
C97   H39   S    
C13   C25   S    
C8    H89   S    
C90   H16   S    
C11   H99   S    
C28   O25   S    
N30   Ni7   S    
C92   H20   S    
C16   C47   S    
C99   H42   S    
C96   H34   S    
C76   O16   S    
C30   O27   S    
C14   C45   S    
C101  H49   S    
C100  H43   S    
C54   N22   A    
C101  O4    S    
C63   C67   A    
N26   Ni7   S    
C103  H53   S    
N16   N21   A    
C9    O19   S    
N9    Ni1   S    
C17   C86   A    
C95   O26   S    
C10   O20   S    
C26   O23   S    
C36   C40   D    
N22   Ni6   S    
C64   N7    A    
N32   Ni2   S    
C93   H26   S    
C105  H62   S    
C102  H52   S    
C106  O9    S    
C49   N28   A    
N6    Ni5   S    
C24   O12   S    
C101  H48   S    
C52   N31   A    
C1    I1    S    
C29   C34   D    
C21   I12   S    
C75   C98   A    
N21   Ni3   S    
C18   C23   D    
C108  H71   S    
C12   C26   S    
C44   I4    S    
C38   H24   S    
C4    H77   S    
C40   I20   S    
C43   I15   S    
C85   I10   S    
C59   N2    A    
C7    O17   S    
C90   H15   S    
C82   H8    S    
C6    H84   S    
C88   N21   A    
C94   H29   S    
C94   H28   S    
C89   H12   S    
C49   O9    S    
C80   H6    S    
N15   N18   A    
C19   O19   S    
C81   H7    S    
C16   C82   A    
C94   H27   S    
C39   C69   S    
C106  H64   S    
C108  H70   S    
C65   O15   S    
C18   C29   S    
C66   N8    A    
N3    N30   A    
C4    H76   S    
C7    H86   S    
C76   N25   A    
C3    H73   S    
C104  O7    S    
C52   O13   S    
N19   Ni1   S    
C9    H93   S    
C34   C74   S    
C37   H13   S    
C41   I2    S    
C48   O8    S    
C31   C72   S    
C50   N29   A    
C51   N30   A    
C39   H35   S    
C28   C33   D    
C43   C70   A    
C14   C80   A    
C65   N24   A    
C91   H19   S    
C27   C31   D    
C22   C26   D    
C77   N10   A    
C60   H68   S    
C62   I5    S    
C89   O1    S    
C34   O3    S    
N10   Ni2   S    
N17   Ni8   S    
C11   H100  S    
C39   C44   D    
C7    H87   S    
C12   C76   A    
C2    C23   S    
C31   O28   S    
C11   O21   S    
C16   C88   A    
C75   H90   S    
C43   N27   A    
N7    Ni8   S    
C95   H31   S    
C23   O1    S    
C103  H54   S    
C86   N20   A    
C91   H17   S    
C93   O24   S    
N10   N24   A    
C5    O15   S    
C105  O8    S    
C103  H55   S    
N5    N12   A    
C6    O16   S    
N29   Ni6   S    
C51   C73   A    
C14   C85   A    
N12   Ni2   S    
N18   Ni2   S    
C102  H51   S    
C104  H56   S    
C51   O11   S    
C32   I14   S    
C5    H81   S    
C36   C68   S    
C32   C69   A    
C18   O18   S    
C20   C27   S    
N1    Ni1   S    
C61   C74   A    
C50   O10   S    
C99   O2    S    
C52   C74   A    
N14   N19   A    
C15   C46   S    
C105  H60   S    
C62   C68   A    
C25   O22   S    
C82   N16   A    
N16   Ni7   S    
C55   I17   S    
C79   H5    S    
C19   C24   D    
C10   H98   S    
C96   O27   S    
N7    N27   A    
C21   C68   A    
C2    C77   A    
C63   N6    A    
C107  O10   S    
C44   C55   S    
C83   H9    S    
C107  H67   S    
C56   I18   S    
C8    H92   S    
C45   O5    S    
C37   C67   S    
C92   O23   S    
C1    C67   A    
C106  H65   S    
C80   N14   A    
C92   H21   S    
C29   O26   S    
C86   I11   S    
C95   H30   S    
C63   I6    S    
C37   C41   D    
C77   H2    S    
N9    N22   A    
C3    H74   S    
C89   H10   S    
C57   I19   S    
C75   N9    A    
C9    H94   S    
C33   C71   S    
C41   C57   S    
C107  H66   S    
C97   H38   S    
C1    N1    A    
N24   Ni5   S    
C3    O13   S    
C21   N12   A    
C97   H37   S    
N27   Ni4   S    
C49   C71   A    
N17   N20   A    
C58   N32   A    
C36   H1    S    
C85   N19   A    
C11   H3    S    
C88   I13   S    
C54   C98   A    
C8    H91   S    
C78   H4    S    
N13   N26   A    
N8    N23   A    
C5    H80   S    
C17   C83   A    
C7    H88   S    
C93   H23   S    
C19   C30   S    
C3    H75   S    
N13   Ni4   S    
C6    H85   S    
C83   N17   A    
C42   I3    S    
C81   N15   A    
N23   Ni3   S    
C47   C56   D    
C104  H59   S    
C100  O3    S    
C10   H96   S    
