data_mof_unit_62239.cif
_audit_creation_date              2012-12-10T17:29:11-0500
_audit_creation_method            fapswitch 2.2
_symmetry_space_group_name_H-M    P1
_symmetry_Int_Tables_number       1
_space_group_crystal_system       triclinic
_cell_length_a                    21.561336
_cell_length_b                    21.557853
_cell_length_c                    47.431119
_cell_angle_alpha                 89.698832
_cell_angle_beta                  89.775375
_cell_angle_gamma                 89.061419
_cell_volume                      22043.3236667

loop_
_atom_site_label
_atom_site_type_symbol
_atom_type_description
_atom_site_fract_x
_atom_site_fract_y
_atom_site_fract_z
_atom_type_partial_charge
C1    C     C_R   0.880089 0.998967 0.500048 0.838508
C2    C     C_R   0.999335 0.880067 0.499985 0.838768
C3    C     C_R   0.119942 0.000651 0.500024 0.838680
C4    C     C_R   0.001048 0.119900 0.499940 0.838666
C5    C     C_R   0.380101 0.498982 0.000053 0.838657
C6    C     C_R   0.499376 0.380049 0.999989 0.838672
C7    C     C_R   0.619946 0.500676 0.000019 0.838519
C8    C     C_R   0.501081 0.619893 0.999945 0.838635
C9    C     C_R   0.045428 0.782713 0.516912 -0.072129
C10   C     C_R   0.218364 0.044382 0.514979 -0.082197
C11   C     C_R   0.956604 0.217892 0.516377 -0.080884
C12   C     C_R   0.782273 0.954200 0.515979 -0.080062
C13   C     C_R   0.045698 0.217775 0.484007 -0.080116
C14   C     C_R   0.217269 0.954609 0.483109 -0.071295
C15   C     C_R   0.955657 0.781684 0.484988 -0.081290
C16   C     C_R   0.782048 0.043366 0.483582 -0.081040
C17   C     C_R   0.545338 0.282620 0.016924 -0.072013
C18   C     C_R   0.718266 0.544470 0.015073 -0.081602
C19   C     C_R   0.456757 0.717945 0.016328 -0.081191
C20   C     C_R   0.282251 0.454322 0.015954 -0.080296
C21   C     C_R   0.545828 0.717699 0.983941 -0.079623
C22   C     C_R   0.717394 0.454680 0.983202 -0.071974
C23   C     C_R   0.455555 0.281704 0.985000 -0.082112
C24   C     C_R   0.282122 0.543476 0.983554 -0.081021
C25   C     C_R   0.999416 0.686747 0.503930 -0.056753
C26   C     C_R   0.313307 0.000926 0.495863 -0.056349
C27   C     C_R   0.000531 0.313032 0.500463 -0.055657
C28   C     C_R   0.686956 0.999429 0.499575 -0.056081
C29   C     C_R   0.499138 0.186674 0.003983 -0.056273
C30   C     C_R   0.813315 0.500767 0.996268 -0.056498
C31   C     C_R   0.500601 0.813017 0.000213 -0.055509
C32   C     C_R   0.186997 0.499505 0.999401 -0.055816
C33   C     C_R   0.000867 0.813800 0.500062 -0.028478
C34   C     C_R   0.186235 0.999111 0.499960 -0.029223
C35   C     C_R   0.001035 0.186085 0.499955 -0.033742
C36   C     C_R   0.813895 0.998884 0.499999 -0.033774
C37   C     C_R   0.500802 0.313741 0.000084 -0.029529
C38   C     C_R   0.686250 0.499265 0.999961 -0.028883
C39   C     C_R   0.501218 0.686064 0.999967 -0.033620
C40   C     C_R   0.313932 0.499023 0.000019 -0.033896
C41   C     C_R   0.055712 0.493141 0.368690 -0.029062
C42   C     C_R   0.509697 0.058846 0.369054 -0.027719
C43   C     C_R   0.943780 0.513464 0.369156 -0.034256
C44   C     C_R   0.494365 0.947318 0.368133 -0.030395
C45   C     C_R   0.053123 0.505517 0.632154 -0.032465
C46   C     C_R   0.504260 0.943841 0.631070 -0.023345
C47   C     C_R   0.942081 0.491263 0.631208 -0.030486
C48   C     C_R   0.488462 0.056153 0.630975 -0.032891
C49   C     C_R   0.556328 0.994570 0.868827 -0.025433
C50   C     C_R   0.011807 0.559514 0.868859 -0.029627
C51   C     C_R   0.444308 0.012201 0.869202 -0.031627
C52   C     C_R   0.993771 0.447902 0.868219 -0.027997
C53   C     C_R   0.551207 0.007088 0.132076 -0.026033
C54   C     C_R   0.007640 0.442975 0.131098 -0.029719
C55   C     C_R   0.440307 0.985293 0.130968 -0.033687
C56   C     C_R   0.991862 0.555390 0.130708 -0.026458
C57   C     C_R   0.053824 0.482771 0.398130 0.211219
C58   C     C_R   0.519119 0.055901 0.398406 0.211379
C59   C     C_R   0.946249 0.521272 0.398576 0.211020
C60   C     C_R   0.484633 0.948503 0.397496 0.219176
C61   C     C_R   0.052778 0.514291 0.602523 0.220256
C62   C     C_R   0.515376 0.945680 0.601816 0.210423
C63   C     C_R   0.943774 0.482570 0.602090 0.216065
C64   C     C_R   0.480195 0.054297 0.601468 0.214472
C65   C     C_R   0.554580 0.983882 0.898168 0.212173
C66   C     C_R   0.020802 0.556054 0.898311 0.214413
C67   C     C_R   0.446827 0.021148 0.898564 0.211336
C68   C     C_R   0.983771 0.449403 0.897541 0.216723
C69   C     C_R   0.550134 0.016657 0.102705 0.217207
C70   C     C_R   0.016714 0.444620 0.101779 0.211778
C71   C     C_R   0.444597 0.976810 0.101470 0.213748
C72   C     C_R   0.981143 0.553021 0.101505 0.212136
C73   C     C_R   0.000008 0.501233 0.413419 -0.231676
C74   C     C_R   0.502023 0.001281 0.413171 -0.234123
C75   C     C_R   0.999221 0.498179 0.587074 -0.234076
C76   C     C_R   0.498721 0.000061 0.586572 -0.236705
C77   C     C_R   0.500517 0.001494 0.913440 -0.234906
C78   C     C_R   0.002179 0.501796 0.913114 -0.233072
C79   C     C_R   0.498292 0.997386 0.086915 -0.230610
C80   C     C_R   0.999097 0.498924 0.086614 -0.236001
C81   C     C_R   0.999683 0.503279 0.354038 0.100134
C82   C     C_R   0.501897 0.003870 0.353700 0.095824
C83   C     C_R   0.996219 0.499107 0.646425 0.086590
C84   C     C_R   0.496568 0.999821 0.645934 0.096288
C85   C     C_R   0.500181 0.003065 0.854040 0.097267
C86   C     C_R   0.002037 0.504352 0.853635 0.095791
C87   C     C_R   0.494925 0.997177 0.146430 0.094977
C88   C     C_R   0.999932 0.499386 0.145922 0.099334
C89   C     C_R   0.498986 0.000191 0.735144 -0.078056
C90   C     C_R   0.992478 0.505940 0.735190 -0.077981
C91   C     C_R   0.493897 0.007436 0.264893 -0.078393
C92   C     C_R   0.999268 0.501066 0.264768 -0.077401
C93   C     C_R   0.999210 0.500608 0.235107 -0.078447
C94   C     C_R   0.492792 0.006259 0.235354 -0.077427
C95   C     C_R   0.993647 0.507016 0.764745 -0.078003
C96   C     C_R   0.499666 0.000958 0.764804 -0.077960
C97   C     C_R   0.000058 0.500276 0.444562 0.929964
C98   C     C_R   0.500435 0.000250 0.444472 0.921846
C99   C     C_R   0.999857 0.499115 0.555562 0.919433
C100  C     C_R   0.499717 0.999960 0.555440 0.929286
C101  C     C_R   0.500164 0.000284 0.944570 0.929930
C102  C     C_R   0.000657 0.500364 0.944453 0.922566
C103  C     C_R   0.499689 0.999378 0.055551 0.923864
C104  C     C_R   0.999845 0.499708 0.055450 0.929312
C105  C     C_R   0.999713 0.620282 0.501701 0.879498
C106  C     C_R   0.379733 0.000358 0.498234 0.879335
C107  C     C_R   0.000267 0.379570 0.500230 0.876912
C108  C     C_R   0.620432 0.999724 0.499792 0.876710
C109  C     C_R   0.499653 0.120260 0.001698 0.880638
C110  C     C_R   0.879722 0.500330 0.998394 0.880648
C111  C     C_R   0.500281 0.879565 0.000122 0.878538
C112  C     C_R   0.120444 0.499739 0.999712 0.877001
C113  C     C_R   0.454778 0.036685 0.720332 -0.127979
C114  C     C_R   0.956117 0.461850 0.721120 -0.128308
C115  C     C_R   0.542228 0.962790 0.720227 -0.128243
C116  C     C_R   0.027918 0.548856 0.719643 -0.125889
C117  C     C_R   0.451220 0.971733 0.280430 -0.126509
C118  C     C_R   0.962904 0.545396 0.279461 -0.126913
C119  C     C_R   0.538036 0.043849 0.278941 -0.129171
C120  C     C_R   0.035893 0.457445 0.279849 -0.127367
C121  C     C_R   0.955587 0.537533 0.220104 -0.128160
C122  C     C_R   0.457121 0.961534 0.221358 -0.127079
C123  C     C_R   0.042955 0.463416 0.220397 -0.127808
C124  C     C_R   0.527831 0.049188 0.219712 -0.126386
C125  C     C_R   0.950839 0.471662 0.780362 -0.126976
C126  C     C_R   0.463191 0.045194 0.779557 -0.127651
C127  C     C_R   0.037973 0.543161 0.778775 -0.128079
C128  C     C_R   0.536625 0.957442 0.779802 -0.128304
C129  C     C_R   0.416524 0.079643 0.735132 0.263395
C130  C     C_R   0.913647 0.425440 0.736649 0.264022
C131  C     C_R   0.581492 0.920834 0.735243 0.263942
C132  C     C_R   0.069050 0.588814 0.733790 0.262779
C133  C     C_R   0.411208 0.930589 0.266242 0.264178
C134  C     C_R   0.920188 0.583702 0.264536 0.261903
C135  C     C_R   0.574192 0.086480 0.263412 0.264062
C136  C     C_R   0.078290 0.418332 0.265139 0.262938
C137  C     C_R   0.916544 0.579879 0.234951 0.264977
C138  C     C_R   0.414501 0.925295 0.236726 0.262132
C139  C     C_R   0.081606 0.421077 0.235493 0.264421
C140  C     C_R   0.568935 0.089356 0.233832 0.262119
C141  C     C_R   0.910854 0.430474 0.766229 0.261985
C142  C     C_R   0.420527 0.083704 0.764665 0.263834
C143  C     C_R   0.074146 0.585833 0.763331 0.263521
C144  C     C_R   0.578819 0.918328 0.764932 0.262965
C145  C     C_R   0.545121 0.970531 0.690677 0.570593
C146  C     C_R   0.019523 0.550517 0.690348 0.563283
C147  C     C_R   0.449856 0.027342 0.691101 0.564844
C148  C     C_R   0.965923 0.455137 0.691929 0.568957
C149  C     C_R   0.544971 0.034283 0.308125 0.571868
C150  C     C_R   0.026920 0.453996 0.309261 0.567338
C151  C     C_R   0.449948 0.979960 0.309789 0.565049
C152  C     C_R   0.972303 0.550399 0.308727 0.566632
C153  C     C_R   0.047106 0.471603 0.190968 0.567585
C154  C     C_R   0.518726 0.050464 0.190321 0.567824
C155  C     C_R   0.952207 0.529154 0.190688 0.568528
C156  C     C_R   0.467235 0.954034 0.192317 0.566846
C157  C     C_R   0.045175 0.533320 0.807896 0.567909
C158  C     C_R   0.528274 0.954134 0.809290 0.570308
C159  C     C_R   0.949541 0.480230 0.809755 0.568509
C160  C     C_R   0.472214 0.049823 0.808851 0.565976
C161  C     C_R   0.085068 0.815953 0.534726 0.181417
C162  C     C_R   0.188941 0.084629 0.534756 0.171677
C163  C     C_R   0.917458 0.186689 0.535540 0.181932
C164  C     C_R   0.813108 0.914506 0.535363 0.170349
C165  C     C_R   0.085432 0.187059 0.464629 0.170500
C166  C     C_R   0.183931 0.914603 0.465517 0.181358
C167  C     C_R   0.915229 0.811021 0.465224 0.171736
C168  C     C_R   0.813221 0.082559 0.464411 0.181616
C169  C     C_R   0.585201 0.315885 0.034628 0.181497
C170  C     C_R   0.688575 0.584661 0.034777 0.171649
C171  C     C_R   0.417518 0.686981 0.035556 0.182476
C172  C     C_R   0.312847 0.414484 0.035378 0.170213
C173  C     C_R   0.585526 0.686802 0.964625 0.170454
C174  C     C_R   0.684180 0.414915 0.965443 0.181597
C175  C     C_R   0.415320 0.311293 0.965243 0.172081
C176  C     C_R   0.313369 0.582642 0.964411 0.182143
C177  C     C_R   0.146946 0.800085 0.535918 0.143100
C178  C     C_R   0.207555 0.145747 0.536974 0.156683
C179  C     C_R   0.855580 0.203377 0.537414 0.152351
C180  C     C_R   0.795606 0.853316 0.538005 0.153974
C181  C     C_R   0.146589 0.204679 0.462023 0.154297
C182  C     C_R   0.199945 0.852725 0.464609 0.142186
C183  C     C_R   0.854174 0.792126 0.463021 0.156993
C184  C     C_R   0.796529 0.144470 0.462524 0.152303
C185  C     C_R   0.647078 0.299930 0.035678 0.142564
C186  C     C_R   0.706976 0.645806 0.037015 0.156662
C187  C     C_R   0.355678 0.703978 0.037460 0.152412
C188  C     C_R   0.295005 0.353347 0.038004 0.154751
C189  C     C_R   0.646708 0.704255 0.962037 0.154065
C190  C     C_R   0.700004 0.353019 0.964385 0.142803
C191  C     C_R   0.354179 0.292823 0.963021 0.156539
C192  C     C_R   0.296750 0.644562 0.962540 0.151525
C193  C     C_R   0.164841 0.739975 0.529012 0.230398
C194  C     C_R   0.263541 0.163064 0.524558 0.205768
C195  C     C_R   0.836695 0.261173 0.526904 0.211154
C196  C     C_R   0.738252 0.835812 0.527379 0.211679
C197  C     C_R   0.164050 0.261965 0.472769 0.211723
C198  C     C_R   0.260186 0.835200 0.471430 0.231948
C199  C     C_R   0.837000 0.736249 0.475605 0.206397
C200  C     C_R   0.738763 0.163349 0.473023 0.211065
C201  C     C_R   0.664776 0.239751 0.028810 0.231382
C202  C     C_R   0.763211 0.663149 0.024859 0.207026
C203  C     C_R   0.336891 0.761580 0.026677 0.212348
C204  C     C_R   0.237858 0.335967 0.027091 0.211086
C205  C     C_R   0.664200 0.761696 0.972584 0.211977
C206  C     C_R   0.760076 0.335173 0.971348 0.230737
C207  C     C_R   0.336828 0.236731 0.975338 0.207395
C208  C     C_R   0.238922 0.663462 0.972961 0.212444
C209  C     C_R   0.119681 0.696633 0.519772 0.222959
C210  C     C_R   0.299019 0.119419 0.508543 0.230053
C211  C     C_R   0.879887 0.300174 0.512666 0.227603
C212  C     C_R   0.700398 0.879366 0.512250 0.224268
C213  C     C_R   0.120486 0.299615 0.487947 0.225655
C214  C     C_R   0.303710 0.880947 0.479786 0.223701
C215  C     C_R   0.880797 0.701015 0.491640 0.230674
C216  C     C_R   0.699778 0.120138 0.487275 0.228019
C217  C     C_R   0.619276 0.196309 0.020050 0.224963
C218  C     C_R   0.799084 0.619511 0.008988 0.230036
C219  C     C_R   0.380119 0.800080 0.012222 0.231824
C220  C     C_R   0.200499 0.379596 0.011808 0.225616
C221  C     C_R   0.620631 0.799695 0.987601 0.225005
C222  C     C_R   0.803483 0.380445 0.980410 0.225379
C223  C     C_R   0.380489 0.201032 0.991288 0.230459
C224  C     C_R   0.199782 0.620246 0.987124 0.228806
C225  C     C_R   0.055503 0.718931 0.513070 -0.048258
C226  C     C_R   0.278718 0.055717 0.505942 -0.060233
C227  C     C_R   0.944733 0.279670 0.509329 -0.054602
C228  C     C_R   0.720881 0.943369 0.508624 -0.058596
C229  C     C_R   0.056534 0.279110 0.491447 -0.058528
C230  C     C_R   0.281186 0.944927 0.486662 -0.049191
C231  C     C_R   0.944487 0.721330 0.494029 -0.060852
C232  C     C_R   0.720295 0.055250 0.490650 -0.054808
C233  C     C_R   0.555198 0.218771 0.013212 -0.048764
C234  C     C_R   0.778770 0.555742 0.006243 -0.059343
C235  C     C_R   0.444885 0.779582 0.009087 -0.054306
C236  C     C_R   0.220986 0.443521 0.008426 -0.059103
C237  C     C_R   0.556646 0.779159 0.991223 -0.058664
C238  C     C_R   0.781157 0.444662 0.987089 -0.048488
C239  C     C_R   0.444244 0.221278 0.993943 -0.059734
C240  C     C_R   0.220304 0.555347 0.990530 -0.054615
N1    N     N_R   0.497307 0.999319 0.676555 -0.356444
N2    N     N_R   0.994577 0.501104 0.676964 -0.358855
N3    N     N_R   0.499178 0.005864 0.323199 -0.356758
N4    N     N_R   0.999485 0.502495 0.323393 -0.355566
N5    N     N_R   0.999779 0.500064 0.176530 -0.355911
N6    N     N_R   0.493280 0.000693 0.176969 -0.355950
N7    N     N_R   0.999043 0.505861 0.823115 -0.356461
N8    N     N_R   0.500030 0.002172 0.823426 -0.356076
O1    O     O_R   0.908370 1.000000 0.476360 -0.577874
O2    O     O_R   1.000000 0.908370 0.476360 -0.571684
O3    O     O_R   0.091630 1.000000 0.476360 -0.578235
O4    O     O_R   0.000000 0.091630 0.476360 -0.573826
O5    O     O_R   0.908370 0.000000 0.523640 -0.573658
O6    O     O_R   0.000000 0.091630 0.523640 -0.577850
O7    O     O_R   0.091630 0.000000 0.523640 -0.571677
O8    O     O_R   1.000000 0.908370 0.523640 -0.578258
O9    O     O_R   0.408370 0.500000 0.976360 -0.577828
O10   O     O_R   0.500000 0.408370 0.976360 -0.571691
O11   O     O_R   0.591630 0.500000 0.976360 -0.578088
O12   O     O_R   0.500000 0.591630 0.976360 -0.573869
O13   O     O_R   0.408370 0.500000 0.023640 -0.573920
O14   O     O_R   0.500000 0.591630 0.023640 -0.577903
O15   O     O_R   0.591630 0.500000 0.023640 -0.571834
O16   O     O_R   0.500000 0.408370 0.023640 -0.578249
O17   O     O_R   0.948250 0.500010 0.458110 -0.568583
O18   O     O_R   0.499990 0.948250 0.458110 -0.562677
O19   O     O_R   0.051750 0.499990 0.458110 -0.572749
O20   O     O_R   0.500010 0.051750 0.458110 -0.570301
O21   O     O_R   0.948250 0.499990 0.541890 -0.570151
O22   O     O_R   0.499990 0.051750 0.541890 -0.568515
O23   O     O_R   0.051750 0.500010 0.541890 -0.562576
O24   O     O_R   0.500010 0.948250 0.541890 -0.572662
O25   O     O_R   0.448250 0.000010 0.958110 -0.568568
O26   O     O_R   0.999990 0.448250 0.958110 -0.562583
O27   O     O_R   0.551750 0.999990 0.958110 -0.573359
O28   O     O_R   0.000010 0.551750 0.958110 -0.570682
O29   O     O_R   0.448250 0.999990 0.041890 -0.571044
O30   O     O_R   0.999990 0.551750 0.041890 -0.568488
O31   O     O_R   0.551750 0.000010 0.041890 -0.562117
O32   O     O_R   0.000010 0.448250 0.041890 -0.573051
O33   O     O_R   0.948250 0.591600 0.500040 -0.589021
O34   O     O_R   0.408400 0.948250 0.500040 -0.586014
O35   O     O_R   0.051750 0.408400 0.500040 -0.587954
O36   O     O_R   0.591600 0.051750 0.500040 -0.587934
O37   O     O_R   0.948250 0.408400 0.499960 -0.588430
O38   O     O_R   0.408400 0.051750 0.499960 -0.589621
O39   O     O_R   0.051750 0.591600 0.499960 -0.585922
O40   O     O_R   0.591600 0.948250 0.499960 -0.588142
O41   O     O_R   0.448250 0.091600 0.000040 -0.589526
O42   O     O_R   0.908400 0.448250 0.000040 -0.585943
O43   O     O_R   0.551750 0.908400 0.000040 -0.588271
O44   O     O_R   0.091600 0.551750 0.000040 -0.587679
O45   O     O_R   0.448250 0.908400 0.999960 -0.587425
O46   O     O_R   0.908400 0.551750 0.999960 -0.589333
O47   O     O_R   0.551750 0.091600 0.999960 -0.585967
O48   O     O_R   0.091600 0.448250 0.999960 -0.588306
O49   O     O_2   0.595449 0.951049 0.676099 -0.463924
O50   O     O_2   0.035245 0.600925 0.675194 -0.465966
O51   O     O_2   0.397895 0.044527 0.677244 -0.465479
O52   O     O_2   0.948647 0.403134 0.678639 -0.463427
O53   O     O_2   0.597061 0.051489 0.321348 -0.464738
O54   O     O_2   0.043927 0.402491 0.323669 -0.465585
O55   O     O_2   0.399940 0.963462 0.325000 -0.464283
O56   O     O_2   0.956236 0.602909 0.322404 -0.466029
O57   O     O_2   0.098305 0.452917 0.176811 -0.465749
O58   O     O_2   0.533947 0.100929 0.175110 -0.463117
O59   O     O_2   0.901639 0.548260 0.176274 -0.464813
O60   O     O_2   0.453087 0.900417 0.179560 -0.467709
O61   O     O_2   0.097974 0.549223 0.820897 -0.466524
O62   O     O_2   0.546707 0.903228 0.823781 -0.463625
O63   O     O_2   0.899334 0.464341 0.824981 -0.462686
O64   O     O_2   0.455093 0.101784 0.822704 -0.465437
Zn1   Zn    Zn3+2 1.000000 0.000000 0.468420 1.201731
Zn2   Zn    Zn3+2 0.000000 0.000000 0.531580 1.201792
Zn3   Zn    Zn3+2 0.500000 0.500000 0.968420 1.201790
Zn4   Zn    Zn3+2 0.500000 0.500000 0.031580 1.201628
Zn5   Zn    Zn3+2 0.930910 0.500000 0.500000 1.199179
Zn6   Zn    Zn3+2 0.500000 0.930910 0.500000 1.201008
Zn7   Zn    Zn3+2 0.069090 0.500000 0.500000 1.201924
Zn8   Zn    Zn3+2 0.500000 0.069090 0.500000 1.199731
Zn9   Zn    Zn3+2 0.430910 0.000000 0.000000 1.198596
Zn10  Zn    Zn3+2 0.000000 0.430910 0.000000 1.201212
Zn11  Zn    Zn3+2 0.569090 0.000000 0.000000 1.201307
Zn12  Zn    Zn3+2 0.000000 0.569090 0.000000 1.199159
Br1   Br    Br    0.795265 0.843449 0.442641 -0.284104
Br2   Br    Br    0.140860 0.795316 0.449757 -0.327530
Br3   Br    Br    0.204230 0.150456 0.442514 -0.287856
Br4   Br    Br    0.852753 0.201114 0.444512 -0.295507
Br5   Br    Br    0.798962 0.147117 0.555417 -0.296102
Br6   Br    Br    0.155799 0.204418 0.557230 -0.284078
Br7   Br    Br    0.203841 0.859407 0.550998 -0.327405
Br8   Br    Br    0.850000 0.795799 0.557539 -0.287914
Br9   Br    Br    0.295608 0.344858 0.942804 -0.284225
Br10  Br    Br    0.640733 0.296011 0.949344 -0.326978
Br11  Br    Br    0.704347 0.649528 0.942811 -0.289184
Br12  Br    Br    0.353085 0.701129 0.944555 -0.296366
Br13  Br    Br    0.298853 0.648297 0.055703 -0.295945
Br14  Br    Br    0.654586 0.704406 0.056985 -0.285290
Br15  Br    Br    0.704237 0.359128 0.050648 -0.327131
Br16  Br    Br    0.348870 0.295494 0.057638 -0.286593
C241  C     C_2   0.115023 0.492572 0.352273 0.300857
H1    H     H_    0.161175 0.484795 0.361270 -0.022942
O65   O     O_2   0.164568 0.483710 0.362880 0.010245
C242  C     C_2   0.502544 0.118358 0.353786 0.304898
H2    H     H_    0.531251 0.157263 0.358120 -0.030754
O66   O     O_2   0.535455 0.162235 0.358918 0.015551
C243  C     C_2   0.884158 0.515586 0.353402 0.312272
H3    H     H_    0.839460 0.513708 0.363938 -0.029504
O67   O     O_2   0.833764 0.513498 0.365110 0.012582
C244  C     C_2   0.495075 0.889022 0.351448 0.299649
H4    H     H_    0.488871 0.843869 0.361071 -0.029288
O68   O     O_2   0.488121 0.838038 0.362098 0.013249
C245  C     C_2   0.110927 0.507011 0.649361 0.307223
H5    H     H_    0.157626 0.515902 0.642199 -0.033069
O69   O     O_2   0.160599 0.517318 0.639382 0.015143
C246  C     C_2   0.497740 0.885093 0.647126 0.296830
H6    H     H_    0.515006 0.841285 0.639512 -0.031660
O70   O     O_2   0.517538 0.835490 0.638276 0.015144
C247  C     C_2   0.887142 0.499129 0.647240 0.321243
H7    H     H_    0.845948 0.475193 0.642398 -0.059719
O71   O     O_2   0.837157 0.468227 0.640418 0.031410
C248  C     C_2   0.489657 0.115149 0.647277 0.308652
H8    H     H_    0.482286 0.159947 0.637930 -0.035391
O72   O     O_2   0.481644 0.166005 0.635943 0.016129
C249  C     C_2   0.615068 0.999551 0.852618 0.297189
H9    H     H_    0.659310 0.985095 0.860944 -0.031420
O73   O     O_2   0.665140 0.983022 0.862228 0.014799
C250  C     C_2   0.008719 0.619169 0.852910 0.308230
H10   H     H_    0.030224 0.661080 0.860284 -0.028408
O74   O     O_2   0.032669 0.666638 0.860900 0.013836
C251  C     C_2   0.384785 0.011428 0.853563 0.307218
H11   H     H_    0.340318 0.014675 0.864064 -0.030472
O75   O     O_2   0.334560 0.015095 0.865419 0.013402
C252  C     C_2   0.995444 0.389045 0.851861 0.298357
H12   H     H_    0.988273 0.344146 0.861450 -0.030451
O76   O     O_2   0.987313 0.338401 0.862798 0.013875
C253  C     C_2   0.609263 0.007167 0.148946 0.296848
H13   H     H_    0.654361 0.016983 0.139676 -0.027333
O77   O     O_2   0.659952 0.017980 0.138890 0.012615
C254  C     C_2   0.005516 0.383945 0.147536 0.297809
H14   H     H_    0.012976 0.337916 0.138015 -0.023253
O78   O     O_2   0.013751 0.333395 0.136998 0.010535
C255  C     C_2   0.380380 0.984148 0.146730 0.316127
H15   H     H_    0.337329 0.969820 0.137257 -0.028706
O79   O     O_2   0.331723 0.968116 0.136331 0.013267
C256  C     C_2   0.996563 0.614849 0.146212 0.299240
H16   H     H_    0.984076 0.659046 0.136749 -0.029778
O80   O     O_2   0.982602 0.664965 0.135762 0.013893
Br17  Br    Br    0.052137 0.847005 0.569949 -0.228480
Br18  Br    Br    0.153609 0.050669 0.568932 -0.226075
Br19  Br    Br    0.952397 0.154681 0.570229 -0.231618
Br20  Br    Br    0.846505 0.949245 0.569446 -0.228805
Br21  Br    Br    0.050790 0.153527 0.430553 -0.228069
Br22  Br    Br    0.152586 0.946800 0.430189 -0.227070
Br23  Br    Br    0.948892 0.846774 0.431082 -0.225423
Br24  Br    Br    0.845334 0.047654 0.429756 -0.232132
Br25  Br    Br    0.552684 0.347175 0.069884 -0.226604
Br26  Br    Br    0.653505 0.550598 0.068985 -0.225038
Br27  Br    Br    0.452412 0.654683 0.070205 -0.230023
Br28  Br    Br    0.346693 0.448990 0.069420 -0.229639
Br29  Br    Br    0.550903 0.653386 0.930525 -0.228486
Br30  Br    Br    0.653104 0.447624 0.930159 -0.226426
Br31  Br    Br    0.449307 0.346480 0.931045 -0.225074
Br32  Br    Br    0.345395 0.547734 0.929741 -0.230936
Br33  Br    Br    0.251074 0.718046 0.536887 -0.195726
Br34  Br    Br    0.294487 0.244863 0.532005 -0.183362
Br35  Br    Br    0.752785 0.288877 0.535038 -0.184394
Br36  Br    Br    0.708940 0.753928 0.536731 -0.180207
Br37  Br    Br    0.245890 0.291464 0.463576 -0.180758
Br38  Br    Br    0.281907 0.748455 0.464644 -0.195158
Br39  Br    Br    0.755225 0.705048 0.468382 -0.184333
Br40  Br    Br    0.711072 0.247302 0.464855 -0.184419
Br41  Br    Br    0.751312 0.217971 0.036075 -0.195377
Br42  Br    Br    0.793699 0.745116 0.032388 -0.184129
Br43  Br    Br    0.253149 0.789886 0.034666 -0.185365
Br44  Br    Br    0.208066 0.254141 0.036137 -0.181673
Br45  Br    Br    0.746248 0.790702 0.963381 -0.181235
Br46  Br    Br    0.781813 0.248725 0.963811 -0.195664
Br47  Br    Br    0.255019 0.205918 0.967802 -0.183930
Br48  Br    Br    0.211316 0.747407 0.964703 -0.184221
Br49  Br    Br    0.161656 0.615680 0.516653 -0.230162
Br50  Br    Br    0.354029 0.158033 0.481383 -0.249505
Br51  Br    Br    0.837272 0.361555 0.489030 -0.242628
Br52  Br    Br    0.642175 0.837679 0.487677 -0.244688
Br53  Br    Br    0.161908 0.357335 0.512824 -0.243606
Br54  Br    Br    0.385615 0.840439 0.480473 -0.231690
Br55  Br    Br    0.842631 0.646443 0.519114 -0.250533
Br56  Br    Br    0.638363 0.162823 0.510829 -0.241516
Br57  Br    Br    0.660424 0.114722 0.018403 -0.231049
Br58  Br    Br    0.854505 0.658595 0.982120 -0.249580
Br59  Br    Br    0.338122 0.860280 0.987856 -0.244514
Br60  Br    Br    0.143378 0.338588 0.986559 -0.245965
Br61  Br    Br    0.662424 0.858127 0.012064 -0.243595
Br62  Br    Br    0.884575 0.338509 0.983156 -0.230515
Br63  Br    Br    0.341735 0.145785 0.018313 -0.251800
Br64  Br    Br    0.138005 0.663061 0.010469 -0.243092
Br65  Br    Br    0.120844 0.436208 0.416029 -0.326109
Br66  Br    Br    0.555886 0.126065 0.417263 -0.317821
Br67  Br    Br    0.880114 0.567930 0.417188 -0.325869
Br68  Br    Br    0.434757 0.884732 0.414341 -0.308977
Br69  Br    Br    0.120261 0.558313 0.585049 -0.307709
Br70  Br    Br    0.558901 0.876743 0.583790 -0.319966
Br71  Br    Br    0.875326 0.444033 0.583688 -0.316258
Br72  Br    Br    0.435820 0.121973 0.582835 -0.320492
Br73  Br    Br    0.622815 0.939392 0.916273 -0.321779
Br74  Br    Br    0.061463 0.623528 0.917412 -0.322902
Br75  Br    Br    0.381243 0.068852 0.917031 -0.324332
Br76  Br    Br    0.933766 0.385812 0.914729 -0.311244
Br77  Br    Br    0.613481 0.066739 0.085572 -0.311874
Br78  Br    Br    0.061164 0.376629 0.083585 -0.324397
Br79  Br    Br    0.380418 0.931798 0.081994 -0.330280
Br80  Br    Br    0.934096 0.619535 0.083275 -0.319908
Br81  Br    Br    0.364054 0.139611 0.715575 -0.234141
Br82  Br    Br    0.853249 0.374385 0.718035 -0.230780
Br83  Br    Br    0.633801 0.860386 0.716001 -0.228362
Br84  Br    Br    0.125325 0.642366 0.713502 -0.230537
Br85  Br    Br    0.357069 0.874699 0.286416 -0.227676
Br86  Br    Br    0.860087 0.635883 0.284102 -0.237489
Br87  Br    Br    0.625167 0.146989 0.282016 -0.232642
Br88  Br    Br    0.138358 0.366414 0.284863 -0.234319
Br89  Br    Br    0.863126 0.639229 0.215553 -0.228493
Br90  Br    Br    0.354350 0.874441 0.217804 -0.240957
Br91  Br    Br    0.133571 0.360170 0.216351 -0.232066
Br92  Br    Br    0.624878 0.142849 0.213364 -0.230281
Br93  Br    Br    0.857627 0.374100 0.786633 -0.229310
Br94  Br    Br    0.360687 0.136404 0.784119 -0.233734
Br95  Br    Br    0.124716 0.646456 0.782096 -0.236910
Br96  Br    Br    0.639430 0.866619 0.784440 -0.231081

loop_
_geom_bond_atom_site_label_1
_geom_bond_atom_site_label_2
_ccdc_geom_bond_type
O3    Zn1   S    
C119  C149  A    
C7    O11   A    
C70   Br78  S    
C117  C133  A    
C51   C85   A    
C25   C105  S    
C90   C95   A    
C165  Br21  S    
C26   C230  A    
C64   Br72  S    
C177  C193  A    
C46   C62   A    
C164  Br20  S    
C29   C109  S    
C93   C121  A    
C152  N4    A    
C63   Br71  S    
O9    Zn3   S    
C205  Br45  S    
C20   C40   A    
C175  Br31  S    
C22   C38   A    
C111  O43   A    
C186  C202  A    
C130  C141  A    
C77   C101  S    
C190  C206  A    
C197  Br37  S    
C154  N6    A    
C56   C72   A    
C85   N8    S    
C105  O33   A    
O27   Zn11  S    
C196  Br36  S    
C90   C116  A    
C32   C112  S    
C127  C157  A    
C24   C240  A    
O32   Zn10  S    
C58   Br66  S    
C241  O65   D    
C53   C69   A    
C10   C162  A    
C53   C253  S    
C5    O13   A    
C114  C130  A    
C42   C58   A    
O18   Zn6   S    
C203  C219  A    
C160  N8    A    
C66   Br74  S    
C250  O74   D    
C250  H10   S    
C245  O69   D    
C159  N7    A    
C154  O58   S    
C89   C113  A    
C65   C77   A    
C169  C185  A    
O14   Zn4   S    
C30   C110  S    
C217  C233  A    
C100  O22   A    
C129  C142  A    
C3    C34   S    
C23   C37   A    
C56   C256  S    
C221  C237  A    
O5    Zn2   S    
C184  Br4   S    
C52   C252  S    
C11   C163  A    
C256  O80   D    
C185  Br15  S    
C49   C85   A    
C178  C194  A    
C54   C70   A    
C149  N3    A    
C125  C159  A    
C186  Br14  S    
O33   Zn5   S    
C102  O26   A    
C128  C144  A    
C29   C233  A    
O35   Zn7   S    
C157  N7    A    
O8    Zn2   S    
C94   C122  A    
C97   O17   A    
C20   C172  A    
C204  C220  A    
C21   C173  A    
C67   Br75  S    
C68   Br76  S    
C161  C177  A    
C255  H15   S    
C24   C176  A    
C213  C229  A    
C32   C236  A    
C209  Br49  S    
C191  C207  A    
O47   Zn11  S    
C48   C248  S    
C93   C123  A    
C55   C255  S    
C18   C234  A    
C76   C100  S    
C89   C96   A    
C52   C86   A    
C18   C38   A    
C130  Br82  S    
C249  H9    S    
O16   Zn4   S    
C91   C94   A    
C54   C88   A    
C27   C227  A    
C183  Br1   S    
C28   C108  S    
O12   Zn3   S    
C25   C225  A    
C222  C238  A    
C194  Br34  S    
C145  O49   S    
C90   C114  A    
C244  H4    S    
C129  Br81  S    
C14   C230  A    
C48   C64   A    
C151  N3    A    
C196  C212  A    
O21   Zn5   S    
C247  H7    S    
O23   Zn7   S    
C223  C239  A    
C190  Br10  S    
C55   C71   A    
C254  H14   S    
C180  Br8   S    
C170  Br26  S    
C21   C237  A    
C89   C115  A    
C207  C223  A    
C86   N7    S    
C187  C203  A    
C166  C182  A    
C4    O6    A    
C181  C197  A    
C50   C250  S    
O41   Zn9   S    
C74   C98   S    
C83   N2    S    
C189  Br11  S    
C199  C215  A    
C81   N4    S    
C3    O3    A    
C13   C35   A    
C1    O1    A    
C56   C88   A    
C42   C242  S    
C248  H8    S    
C147  N1    A    
O31   Zn11  S    
C123  C139  A    
C144  Br96  S    
C121  C137  A    
C92   C118  A    
C252  H12   S    
C97   O19   A    
C125  C141  A    
C184  C200  A    
C7    O15   A    
C14   C166  A    
C28   C232  A    
C118  C134  A    
C43   C59   A    
C172  Br28  S    
C215  Br55  S    
C166  Br22  S    
C45   C245  S    
C224  Br64  S    
C148  N2    A    
C28   C228  A    
C210  C226  A    
C15   C167  A    
C45   C83   A    
O24   Zn6   S    
C30   C238  A    
C223  Br63  S    
C216  C232  A    
C27   C229  A    
C5    O9    A    
C206  Br46  S    
C153  O57   S    
C155  N5    A    
C138  Br90  S    
C219  C235  A    
C47   C247  S    
C117  C151  A    
C210  Br50  S    
C203  Br43  S    
C204  Br44  S    
C137  Br89  S    
C109  O47   A    
C20   C236  A    
C198  Br38  S    
C31   C235  A    
C188  C204  A    
O45   Zn9   S    
C106  O34   A    
C60   Br68  S    
C118  C152  A    
C177  Br7   S    
C108  O40   A    
C194  C210  A    
C246  O70   D    
C116  C132  A    
O22   Zn8   S    
C146  N2    A    
C75   C99   S    
C96   C126  A    
C53   C87   A    
C51   C67   A    
C149  O53   S    
C9    C161  A    
C224  C240  A    
C174  Br30  S    
C147  O51   S    
C211  Br51  S    
C163  C179  A    
C43   C81   A    
C91   C119  A    
C69   C79   A    
C151  O55   S    
C152  O56   S    
C161  Br17  S    
O7    Zn2   S    
C58   C74   A    
C59   C73   A    
C173  C189  A    
C15   C231  A    
C157  O61   S    
O28   Zn12  S    
C242  O66   D    
C108  O36   A    
C14   C34   A    
C6    O16   A    
C200  Br40  S    
C208  C224  A    
O25   Zn9   S    
C179  C195  A    
C202  C218  A    
O34   Zn6   S    
O40   Zn6   S    
C72   C80   A    
C156  N6    A    
C16   C36   A    
C116  C146  A    
C63   C75   A    
C206  C222  A    
C99   O23   A    
C200  C216  A    
C82   N3    S    
C134  Br86  S    
C55   C87   A    
C43   C243  S    
C162  C178  A    
C148  O52   S    
C47   C83   A    
C242  H2    S    
C11   C227  A    
C222  Br62  S    
C31   C111  S    
C143  Br95  S    
C1    C36   S    
O11   Zn3   S    
C111  O45   A    
C78   C102  S    
C158  O62   S    
C131  Br83  S    
C26   C106  S    
C134  C137  A    
C69   Br77  S    
C245  H5    S    
C109  O41   A    
C26   C226  A    
C110  O46   A    
C105  O39   A    
C80   C104  S    
C107  O37   A    
C44   C82   A    
C47   C63   A    
O20   Zn8   S    
C12   C228  A    
C23   C175  A    
C142  Br94  S    
C251  H11   S    
C141  Br93  S    
C136  Br88  S    
C96   C128  A    
C49   C249  S    
C185  C201  A    
C46   C246  S    
C139  Br91  S    
C213  Br53  S    
C189  C205  A    
C153  N5    A    
C91   C117  A    
C169  Br25  S    
C84   N1    S    
C212  Br52  S    
C41   C241  S    
C164  C180  A    
C132  C143  A    
C18   C170  A    
C4    C35   S    
C219  Br59  S    
C133  C138  A    
C9    C33   A    
C62   C76   A    
C209  C225  A    
C136  C139  A    
C71   C79   A    
C188  Br16  S    
C1    O5    A    
C68   C78   A    
C135  C140  A    
C66   C78   A    
O37   Zn5   S    
C44   C244  S    
C70   C80   A    
C112  O48   A    
O39   Zn7   S    
C122  C138  A    
C104  O32   A    
C243  H3    S    
O10   Zn3   S    
C126  C142  A    
C119  C135  A    
C120  C136  A    
C59   Br67  S    
C67   C77   A    
C12   C164  A    
C23   C239  A    
C13   C165  A    
C27   C107  S    
C41   C81   A    
C170  C186  A    
C30   C234  A    
C244  O68   D    
C192  Br12  S    
C4    O4    A    
C113  C129  A    
C174  C190  A    
C176  Br32  S    
C2    C33   S    
O4    Zn1   S    
O17   Zn5   S    
C172  C188  A    
C214  C230  A    
C132  Br84  S    
C197  C213  A    
C254  O78   D    
C100  O24   A    
C25   C231  A    
C121  C155  A    
O13   Zn4   S    
C106  O38   A    
C178  Br6   S    
C122  C156  A    
C124  C140  A    
C107  O35   A    
C19   C171  A    
C19   C235  A    
O44   Zn12  S    
C17   C233  A    
C115  C145  A    
C120  C150  A    
C217  Br57  S    
C6    O10   A    
C113  C147  A    
C249  O73   D    
C256  H16   S    
C41   C57   A    
C248  O72   D    
C44   C60   A    
C173  Br29  S    
C45   C61   A    
C92   C93   A    
C150  O54   S    
C99   O21   A    
C180  C196  A    
C167  Br23  S    
C92   C120  A    
C252  O76   D    
C162  Br18  S    
C13   C229  A    
C212  C228  A    
C95   C127  A    
C191  Br9   S    
C5    C40   S    
C207  Br47  S    
C202  Br42  S    
C208  Br48  S    
C135  Br87  S    
C195  Br35  S    
C131  C144  A    
C187  Br13  S    
C8    O12   A    
C22   C238  A    
C124  C154  A    
C42   C82   A    
C103  O31   A    
O42   Zn10  S    
C61   Br69  S    
C128  C158  A    
C115  C131  A    
C241  H1    S    
C61   C75   A    
C126  C160  A    
C73   C97   S    
C156  O60   S    
C49   C65   A    
C215  C231  A    
C98   O18   A    
O19   Zn7   S    
C2    O2    A    
C175  C191  A    
C17   C169  A    
C176  C192  A    
C57   C73   A    
C205  C221  A    
C221  Br61  S    
C54   C254  S    
C159  O63   S    
C88   N5    S    
C11   C35   A    
C160  O64   S    
C167  C183  A    
C251  O75   D    
C72   Br80  S    
C8    C39   S    
C12   C36   A    
C52   C68   A    
C199  Br39  S    
C79   C103  S    
C110  O42   A    
O48   Zn10  S    
C133  Br85  S    
C192  C208  A    
C101  O25   A    
C146  O50   S    
C158  N8    A    
C22   C174  A    
C253  O77   D    
C163  Br19  S    
C10   C34   A    
C114  C148  A    
O6    Zn2   S    
C218  C234  A    
C104  O30   A    
O2    Zn1   S    
C127  C143  A    
C32   C240  A    
C168  C184  A    
C214  Br54  S    
C16   C232  A    
C183  C199  A    
C48   C84   A    
O38   Zn8   S    
C255  O79   D    
C195  C211  A    
C243  O67   D    
C123  C153  A    
C218  Br58  S    
C193  C209  A    
C21   C39   A    
O43   Zn11  S    
C65   Br73  S    
C64   C76   A    
C6    C37   S    
C145  N1    A    
C247  O71   D    
C17   C37   A    
C50   C66   A    
O30   Zn12  S    
C253  H13   S    
C19   C39   A    
C168  Br24  S    
C95   C125  A    
O46   Zn12  S    
C193  Br33  S    
C112  O44   A    
C46   C84   A    
C150  N4    A    
C103  O29   A    
C8    O14   A    
O36   Zn8   S    
O15   Zn4   S    
C87   N6    S    
O29   Zn9   S    
C220  C236  A    
C155  O59   S    
C98   O20   A    
C2    O8    A    
C71   Br79  S    
C9    C225  A    
C216  Br56  S    
O26   Zn10  S    
C57   Br65  S    
C171  Br27  S    
C182  Br2   S    
C171  C187  A    
C62   Br70  S    
C165  C181  A    
C201  C217  A    
C220  Br60  S    
C16   C168  A    
C140  Br92  S    
C60   C74   A    
C246  H6    S    
C24   C40   A    
C7    C38   S    
C15   C33   A    
C31   C237  A    
C3    O7    A    
C50   C86   A    
O1    Zn1   S    
C181  Br3   S    
C201  Br41  S    
C10   C226  A    
C101  O27   A    
C211  C227  A    
C182  C198  A    
C102  O28   A    
C29   C239  A    
C51   C251  S    
C179  Br5   S    
C94   C124  A    
C198  C214  A    
