data_mof_unit_16609.cif
_audit_creation_date              2012-12-11T17:41:34-0500
_audit_creation_method            fapswitch 2.2
_symmetry_space_group_name_H-M    P1
_symmetry_Int_Tables_number       1
_space_group_crystal_system       triclinic
_cell_length_a                    15.475782
_cell_length_b                    14.873281
_cell_length_c                    15.148951
_cell_angle_alpha                 109.71792
_cell_angle_beta                  121.591045
_cell_angle_gamma                 59.348638
_cell_volume                      2543.41709822

loop_
_atom_site_label
_atom_site_type_symbol
_atom_type_description
_atom_site_fract_x
_atom_site_fract_y
_atom_site_fract_z
_atom_type_partial_charge
C1    C     C_R   0.798794 0.943694 0.777120 -0.088150
C2    C     C_R   0.324972 0.374593 0.165457 -0.107606
C3    C     C_R   0.596612 0.715806 0.907141 -0.143617
C4    C     C_R   0.397027 0.274733 0.141268 -0.141464
C5    C     C_R   0.642569 0.789817 0.952138 0.123587
C6    C     C_R   0.354980 0.211963 0.051526 0.119077
C7    C     C_R   0.757069 0.755961 0.985456 -0.173026
C8    C     C_R   0.239794 0.251671 0.985872 -0.171312
C9    C     C_R   0.823809 0.649707 0.970310 -0.115236
C10   C     C_R   0.168119 0.351666 0.010275 -0.113869
C11   C     C_R   0.777400 0.576396 0.925102 -0.110311
C12   C     C_R   0.238110 0.011726 0.209436 -0.065126
C13   C     C_R   0.210642 0.412993 0.100065 -0.095656
C14   C     C_R   0.580697 0.929820 0.075391 -0.218371
C15   C     C_R   0.425007 0.074589 0.928235 -0.241682
C16   C     C_R   0.224838 0.288234 0.475983 -0.135572
C17   C     C_R   0.798798 0.723910 0.556328 -0.097780
C18   C     C_R   0.508976 0.029948 0.099746 0.067139
C19   C     C_R   0.495716 0.973561 0.903628 0.064910
C20   C     C_R   0.430634 0.104325 0.026912 0.019230
C21   C     C_R   0.573787 0.900029 0.976848 0.003941
C22   C     C_2   0.128652 0.394920 0.594101 -0.220609
C23   C     C_R   0.192033 0.297280 0.549173 0.152241
C24   C     C_2   0.974434 0.650459 0.532493 -0.208071
C25   C     C_2   0.124735 0.485338 0.590229 -0.116168
C26   C     C_2   0.035507 0.582277 0.603740 -0.076567
C27   C     C_2   0.980308 0.960506 0.854120 -0.305473
C28   C     C_2   0.139170 0.891892 0.099262 -0.312149
C29   C     C_R   0.200557 0.882870 0.648609 -0.124650
C30   C     C_R   0.920497 0.274160 0.774942 -0.131911
C31   C     C_R   0.299650 0.796155 0.652881 -0.150788
C32   C     C_R   0.815192 0.338521 0.706775 -0.176794
C33   C     C_R   0.297062 0.709499 0.577424 0.121051
C34   C     C_R   0.860452 0.724408 0.515370 0.144516
C35   C     C_R   0.719402 0.363391 0.716204 0.107063
C36   C     C_R   0.193342 0.711520 0.497621 -0.177806
C37   C     C_R   0.730841 0.320733 0.793535 -0.162870
C38   C     C_R   0.094499 0.798610 0.493491 -0.109402
C39   C     C_R   0.836496 0.256504 0.861701 -0.106952
C40   C     C_R   0.596512 0.229750 0.554110 -0.139613
C41   C     C_R   0.406700 0.782523 0.510586 -0.139468
C42   C     C_R   0.098057 0.884041 0.569073 -0.076443
C43   C     C_R   0.931288 0.234360 0.853178 -0.117744
C44   C     C_R   0.407809 0.516935 0.578890 -0.240371
C45   C     C_R   0.506512 0.325272 0.548474 0.058562
C46   C     C_R   0.603131 0.537658 0.651591 -0.235053
C47   C     C_R   0.509330 0.427802 0.598854 0.062539
C48   C     C_R   0.500029 0.620620 0.606167 0.060781
C49   C     C_R   0.609306 0.441763 0.652730 0.016078
C50   C     C_R   0.402289 0.615461 0.585687 0.024386
C51   C     C_2   0.047291 0.877440 0.910840 0.389295
C52   C     C_2   0.142737 0.885113 0.010113 0.388069
C53   C     C_R   0.406302 0.997039 0.718607 -0.152552
C54   C     C_R   0.595541 0.001027 0.282496 -0.150788
C55   C     C_R   0.411579 0.306998 0.477344 -0.121433
C56   C     C_R   0.498261 0.700628 0.568191 0.059104
C57   C     C_R   0.591199 0.710486 0.587673 -0.116487
C58   C     C_R   0.592132 0.926819 0.796353 -0.123408
C59   C     C_R   0.409562 0.074594 0.204550 -0.079459
C60   C     C_R   0.232571 0.197703 0.573674 -0.145902
C61   C     C_R   0.799759 0.814700 0.465544 -0.141898
C62   C     C_R   0.804343 0.030835 0.687299 -0.165281
C63   C     C_R   0.238205 0.918093 0.298712 -0.184493
C64   C     C_R   0.864486 0.980629 0.777508 0.208614
C65   C     C_R   0.205028 0.936420 0.198784 0.214892
C66   C     C_R   0.498277 0.955712 0.807194 0.061625
C67   C     C_R   0.504495 0.043841 0.194461 0.046751
C68   C     C_R   0.664129 0.609382 0.894615 -0.090984
H1    H     H_    0.821944 0.893128 0.829944 0.146137
H2    H     H_    0.485447 0.246263 0.192581 0.111033
H3    H     H_    0.794452 0.811764 0.023411 0.108518
H4    H     H_    0.205265 0.204553 0.916779 0.103638
H5    H     H_    0.911814 0.623973 0.995137 0.108013
H6    H     H_    0.079500 0.381437 0.959816 0.111089
H7    H     H_    0.637289 0.871565 0.131254 0.137177
H8    H     H_    0.368426 0.132068 0.871653 0.132427
H9    H     H_    0.007045 0.586894 0.657764 0.137513
H10   H     H_    0.172987 0.487173 0.559000 0.126522
H11   H     H_    0.003691 0.644218 0.478297 0.128352
H12   H     H_    0.220000 0.049162 0.148333 0.132965
H13   H     H_    0.079786 0.393462 0.624883 0.128786
H14   H     H_    0.021390 0.951126 0.566004 0.094009
H15   H     H_    0.013257 0.186655 0.907380 0.105970
H16   H     H_    0.194301 0.349088 0.430540 0.086318
H17   H     H_    0.825083 0.671173 0.608720 0.087193
H18   H     H_    0.203233 0.949036 0.707209 0.103549
H19   H     H_    0.993920 0.256394 0.768047 0.104018
H20   H     H_    0.378290 0.796484 0.714985 0.114070
H21   H     H_    0.808471 0.370163 0.647606 0.111418
H22   H     H_    0.188905 0.646057 0.438338 0.102526
H23   H     H_    0.077593 0.874954 0.097271 0.105647
H24   H     H_    0.658395 0.339568 0.802783 0.117410
H25   H     H_    0.015066 0.799708 0.431778 0.095669
H26   H     H_    0.845049 0.224984 0.922019 0.112524
H27   H     H_    0.332349 0.509550 0.555248 0.118991
H28   H     H_    0.680068 0.545876 0.685114 0.129140
H29   H     H_    0.683870 0.212072 0.595145 0.121930
H30   H     H_    0.320066 0.806269 0.488126 0.114933
H31   H     H_    0.320014 0.021292 0.699095 0.093272
H32   H     H_    0.682639 0.974381 0.302915 0.094011
H33   H     H_    0.327843 0.365640 0.444945 0.084603
H34   H     H_    0.007492 0.021467 0.872301 0.105502
H35   H     H_    0.676890 0.669378 0.640479 0.088835
H36   H     H_    0.678481 0.890036 0.850091 0.097642
H37   H     H_    0.324024 0.116683 0.151870 0.099997
H38   H     H_    0.218296 0.176452 0.624821 0.092845
H39   H     H_    0.829551 0.845537 0.436951 0.087355
H40   H     H_    0.837739 0.056113 0.657481 0.107030
H41   H     H_    0.223357 0.865490 0.318451 0.110400
H42   H     H_    0.213082 0.890839 0.938800 0.308671
H43   H     H_    0.080270 0.741252 0.934853 0.307816
H44   H     H_    0.829438 0.494002 0.914791 0.127270
H45   H     H_    0.154988 0.490267 0.118965 0.096813
H46   H     H_    0.628605 0.552479 0.861834 0.123776
H47   H     H_    0.357802 0.422200 0.234987 0.113070
H48   H     H_    0.509593 0.740062 0.885311 0.114125
N1    N     N_R   0.705410 0.966550 0.689210 -0.058549
N2    N     N_R   0.556610 0.796750 0.548620 -0.040527
N3    N     N_R   0.556610 0.951620 0.703500 -0.042750
N4    N     N_R   0.443390 0.048380 0.296500 -0.043845
N5    N     N_R   0.294590 0.131500 0.522480 -0.041489
N6    N     N_R   0.705410 0.868500 0.477520 -0.040813
N7    N     N_R   0.705410 0.023370 0.632390 -0.046435
N8    N     N_R   0.294590 0.976630 0.367610 -0.045087
N9    N     N_R   0.294590 0.033450 0.310790 -0.063165
N10   N     N_R   0.294590 0.188320 0.465660 -0.044478
N11   N     N_R   0.705410 0.811680 0.534340 -0.045986
N12   N     N_R   0.556610 0.157790 0.497330 -0.042477
N13   N     N_R   0.443390 0.842210 0.502670 -0.037255
N14   N     N_R   0.443390 0.997080 0.657540 -0.034710
N15   N     N_R   0.556610 0.002920 0.342460 -0.035938
N16   N     N_R   0.443390 0.203250 0.451380 -0.040338
Ni1   Ni    Ni4+2 0.629830 0.882720 0.617850 0.219830
Ni2   Ni    Ni4+2 0.370170 0.117280 0.382150 0.212804
Ni3   Ni    Ni4+2 0.629830 0.013030 0.487540 0.210163
Ni4   Ni    Ni4+2 0.370170 0.986970 0.512460 0.216170
O1    O     O_3   0.225329 0.899074 0.011702 -0.763456
O2    O     O_3   0.020187 0.793513 0.883725 -0.775271

loop_
_geom_bond_atom_site_label_1
_geom_bond_atom_site_label_2
_ccdc_geom_bond_type
N9    Ni2   S    
C41   N13   A    
C63   C65   A    
C59   N4    A    
C29   C42   A    
N4    N15   A    
C43   H15   S    
C14   C18   A    
C3    C68   A    
C42   H14   S    
N1    Ni1   S    
C33   C36   A    
C4    H2    S    
C63   N8    A    
C47   C49   A    
C53   H31   S    
C15   C19   A    
C54   N15   A    
C46   C49   A    
C59   H37   S    
C17   H17   S    
C14   C21   A    
C35   C37   A    
C24   C26   D    
C38   C42   A    
N15   Ni3   S    
C3    H48   S    
C7    H3    S    
C62   H40   S    
C36   H22   S    
C40   N12   A    
C16   H16   S    
N3    N14   A    
C56   C57   A    
C19   C66   S    
C48   C56   S    
N6    N11   A    
C2    C13   A    
C62   C64   A    
C33   C50   S    
C59   C67   A    
C58   C66   A    
C22   C25   D    
C35   C49   S    
C31   C33   A    
N4    Ni2   S    
C44   C47   A    
C28   C52   D    
C48   C50   A    
C15   H8    S    
C54   H32   S    
C23   C60   A    
C9    H5    S    
N12   N16   A    
C62   N7    A    
C27   C51   D    
C45   C47   S    
C40   C45   A    
C57   H35   S    
C46   C48   A    
C8    H4    S    
C26   H9    S    
N8    Ni4   S    
C51   C52   S    
C22   H13   S    
C4    C6    A    
N12   Ni3   S    
C40   H29   S    
C5    C7    A    
C17   N11   A    
C39   C43   A    
C12   N9    A    
C25   C26   S    
C34   C61   A    
C24   C34   S    
C25   H10   S    
N7    Ni3   S    
C61   N6    A    
C63   H41   S    
C2    C4    A    
C32   C35   A    
C41   C56   A    
N13   Ni4   S    
C2    H47   S    
C24   H11   S    
C32   H21   S    
C15   C20   A    
C52   O1    S    
C46   H28   S    
N3    Ni1   S    
C53   C66   A    
C9    C11   A    
C45   C55   A    
C29   H18   S    
N2    Ni1   S    
N16   Ni2   S    
C39   H26   S    
C30   C43   A    
C58   H36   S    
C17   C34   A    
C1    C64   A    
C60   H38   S    
C11   C68   A    
C44   C50   A    
C7    C9    A    
C31   H20   S    
C37   H24   S    
C19   C21   A    
C11   H44   S    
C22   C23   S    
H42   O1    S    
N14   Ni4   S    
N11   Ni1   S    
C3    C5    A    
C10   C13   A    
C6    C8    A    
C54   C67   A    
C16   C23   A    
C6    C20   S    
C12   C65   A    
C55   H33   S    
C27   H34   S    
C14   H7    S    
C36   C38   A    
C28   C65   S    
C18   C67   S    
N5    N10   A    
C29   C31   A    
C44   H27   S    
C30   C32   A    
C10   H6    S    
C12   H12   S    
C38   H25   S    
C58   N3    A    
C28   H23   S    
C18   C20   A    
N5    Ni4   S    
N1    N7    A    
C60   N5    A    
C61   H39   S    
C1    H1    S    
N6    Ni3   S    
C27   C64   S    
C51   O2    S    
C37   C39   A    
C5    C21   S    
N10   Ni2   S    
C8    C10   A    
C55   N16   A    
N2    N13   A    
C41   H30   S    
N8    N9    A    
C53   N14   A    
C30   H19   S    
C1    N1    A    
C16   N10   A    
C13   H45   S    
H43   O2    S    
C68   H46   S    
C57   N2    A    
