data_mof_unit_15079.cif
_audit_creation_date              2012-12-10T19:10:06-0500
_audit_creation_method            fapswitch 2.2
_symmetry_space_group_name_H-M    P1
_symmetry_Int_Tables_number       1
_space_group_crystal_system       triclinic
_cell_length_a                    10.852154
_cell_length_b                    10.805432
_cell_length_c                    9.543504
_cell_angle_alpha                 89.965254
_cell_angle_beta                  90.387732
_cell_angle_gamma                 90.589243
_cell_volume                      1119.00742589

loop_
_atom_site_label
_atom_site_type_symbol
_atom_type_description
_atom_site_fract_x
_atom_site_fract_y
_atom_site_fract_z
_atom_type_partial_charge
C1    C     C_R   0.498121 0.262508 0.499805 0.808990
C2    C     C_R   0.212390 0.654177 0.986846 -0.205814
C3    C     C_R   0.932869 0.538862 0.384859 -0.172515
C4    C     C_R   0.871313 0.491641 0.501384 -0.079745
C5    C     C_R   0.938419 0.440755 0.614460 0.004642
C6    C     C_R   0.066394 0.448107 0.612980 -0.233067
C7    C     C_R   0.128064 0.496918 0.496516 -0.091984
C8    C     C_R   0.060150 0.537151 0.378360 0.061436
C9    C     C_R   0.878328 0.416521 0.865790 -0.136364
C10   C     C_R   0.813188 0.353878 0.970539 -0.021195
C11   C     C_R   0.753063 0.241924 0.940433 -0.079436
C12   C     C_R   0.262160 0.499820 0.499073 0.795674
C13   C     C_R   0.756734 0.193170 0.804930 -0.137873
C14   C     C_R   0.817654 0.257876 0.698715 -0.102941
C15   C     C_R   0.878153 0.370454 0.728438 0.123866
C16   C     C_R   0.421828 0.062964 0.594068 0.120884
C17   C     C_R   0.490810 0.129448 0.496211 -0.087391
C18   C     C_R   0.544299 0.065320 0.384421 -0.193666
C19   C     C_R   0.544533 0.936417 0.384668 -0.207854
C20   C     C_R   0.491310 0.870793 0.496456 -0.095654
C21   C     C_R   0.422378 0.935776 0.594427 0.119533
C22   C     C_3   0.414617 0.929296 0.750337 -0.466412
C23   C     C_R   0.498438 0.737599 0.499779 0.797085
C24   C     C_3   0.413058 0.070193 0.749778 -0.476330
C25   C     C_R   0.534961 0.603571 0.073725 0.283922
C26   C     C_R   0.457121 0.401066 0.073947 -0.052365
C27   C     C_R   0.456584 0.401297 0.925381 -0.087750
C28   C     C_R   0.534196 0.603834 0.926213 0.256206
C29   C     C_3   0.656131 0.667938 0.919916 -0.500431
C30   C     C_3   0.658263 0.665869 0.078654 -0.516948
C31   C     C_R   0.737543 0.496177 0.500623 0.789045
C32   C     C_R   0.193708 0.739427 0.094137 -0.117637
C33   C     C_R   0.145375 0.700096 0.222079 -0.194010
C34   C     C_R   0.116607 0.574659 0.244151 -0.003400
C35   C     C_R   0.137107 0.487552 0.136053 0.455084
C36   C     C_R   0.184286 0.529191 0.007659 -0.220829
Cu1   Cu    Cu3+1 0.499990 0.499980 0.640670 0.940722
Cu2   Cu    Cu3+1 0.500010 0.500020 0.359330 0.969607
H1    H     H_    0.249576 0.684637 0.887565 0.155792
H2    H     H_    0.703747 0.193005 0.022042 0.116948
H3    H     H_    0.711893 0.105623 0.781757 0.123827
H4    H     H_    0.817564 0.220571 0.593370 0.122636
H5    H     H_    0.591825 0.114344 0.301348 0.156633
H6    H     H_    0.592362 0.888820 0.302081 0.149554
H7    H     H_    0.326423 0.887147 0.785986 0.195429
H8    H     H_    0.498852 0.891283 0.799618 0.195674
H9    H     H_    0.323561 0.108679 0.784038 0.216603
H10   H     H_    0.495696 0.112796 0.799824 0.194782
H11   H     H_    0.424091 0.319967 0.128629 0.201286
H12   H     H_    0.216076 0.836206 0.077869 0.161195
H13   H     H_    0.421606 0.321172 0.870032 0.152921
H14   H     H_    0.728122 0.610607 0.871445 0.219598
H15   H     H_    0.650116 0.762757 0.876196 0.186711
H16   H     H_    0.731120 0.605517 0.122319 0.202071
H17   H     H_    0.654605 0.759765 0.125003 0.190592
H18   H     H_    0.129943 0.767396 0.304034 0.147434
H19   H     H_    0.200951 0.464635 0.923674 0.170959
H20   H     H_    0.881730 0.575106 0.296352 0.136134
H21   H     H_    0.118027 0.409358 0.699779 0.164853
H22   H     H_    0.925250 0.502791 0.890514 0.119974
H23   H     H_    0.809118 0.392221 0.075020 0.153188
N1    N     N_R   0.500790 0.500930 0.147930 -0.195974
N2    N     N_R   0.500790 0.500890 0.852020 -0.187668
O1    O     O_R   0.500000 0.319640 0.618810 -0.589396
O2    O     O_R   0.500010 0.319680 0.381230 -0.575071
O3    O     O_R   0.319640 0.499990 0.618790 -0.594973
O4    O     O_R   0.319650 0.500030 0.381210 -0.547313
O5    O     O_R   0.499990 0.680320 0.618770 -0.584244
O6    O     O_R   0.500000 0.680360 0.381190 -0.581322
O7    O     O_R   0.680350 0.499970 0.618790 -0.575485
O8    O     O_R   0.680360 0.500010 0.381210 -0.588137
S1    S     S_3+6 0.110239 0.326495 0.159919 -0.036032
O9    O     O_2   0.987080 0.303824 0.226836 -0.339946
O10   O     O_2   0.112659 0.260476 0.021386 -0.300128
O11   O     O_3   0.221008 0.267654 0.263803 -0.537170
H24   H     H_    0.182859 0.257147 0.357090 0.352981

loop_
_geom_bond_atom_site_label_1
_geom_bond_atom_site_label_2
_ccdc_geom_bond_type
C16   C21   A    
C23   O6    A    
C19   C20   A    
C13   H3    S    
C7    C8    A    
C25   C28   A    
C30   H16   S    
C26   C27   A    
C29   C30   S    
C28   C29   S    
C18   C19   A    
C5    C6    A    
Cu1   O5    S    
C2    C32   A    
C34   C35   A    
C2    H1    S    
C31   O7    A    
C35   C36   A    
C16   C17   A    
C1    O2    A    
C20   C23   S    
C9    C10   A    
C14   H4    S    
C33   H18   S    
C31   O8    A    
Cu2   O6    S    
C16   C24   S    
C21   C22   S    
S1    O11   S    
Cu1   N2    S    
C27   H13   S    
C17   C18   A    
C7    C12   S    
C12   O4    A    
C24   H10   S    
S1    O10   D    
C3    C8    A    
C26   H11   S    
S1    O9    D    
C12   O3    A    
C23   O5    A    
O11   H24   S    
C28   N2    A    
Cu1   Cu2   S    
Cu2   O2    S    
Cu1   O3    S    
C33   C34   A    
C8    C34   S    
C20   C21   A    
C32   H12   S    
C27   N2    A    
C22   H8    S    
C35   S1    S    
C36   H19   S    
C22   C24   S    
C10   H23   S    
C3    C4    A    
C1    O1    A    
Cu1   O1    S    
C19   H6    S    
C2    C36   A    
C25   C30   S    
Cu2   O8    S    
C24   H9    S    
C6    H21   S    
C4    C5    A    
C6    C7    A    
C30   H17   S    
C1    C17   S    
C9    H22   S    
Cu1   O7    S    
C32   C33   A    
C26   N1    A    
C18   H5    S    
C11   C13   A    
C29   H15   S    
C25   N1    A    
C9    C15   A    
C11   H2    S    
C5    C15   S    
C4    C31   S    
C10   C11   A    
C3    H20   S    
C22   H7    S    
Cu2   O4    S    
C14   C15   A    
C13   C14   A    
Cu2   N1    S    
C29   H14   S    
