data_mof_unit_47123.cif
_audit_creation_date              2012-12-10T17:29:14-0500
_audit_creation_method            fapswitch 2.2
_symmetry_space_group_name_H-M    P1
_symmetry_Int_Tables_number       1
_space_group_crystal_system       triclinic
_cell_length_a                    12.009422
_cell_length_b                    12.892075
_cell_length_c                    13.25599
_cell_angle_alpha                 87.327731
_cell_angle_beta                  113.544637
_cell_angle_gamma                 93.202624
_cell_volume                      1877.91367881

loop_
_atom_site_label
_atom_site_type_symbol
_atom_type_description
_atom_site_fract_x
_atom_site_fract_y
_atom_site_fract_z
_atom_type_partial_charge
C1    C     C_R   0.477396 0.299505 0.497916 0.893138
C2    C     C_R   0.607727 0.491233 0.827699 -0.134575
C3    C     C_R   0.535187 0.811760 0.501444 -0.058790
C4    C     C_R   0.567128 0.499791 0.708322 0.866779
C5    C     C_R   0.463920 0.188262 0.496589 -0.055795
C6    C     C_R   0.354467 0.029711 0.509265 -0.211526
C7    C     C_R   0.362285 0.137194 0.505836 -0.195729
C8    C     C_R   0.556508 0.132664 0.488692 -0.269196
C9    C     C_R   0.549920 0.025903 0.492794 0.185662
C10   C     C_R   0.448330 0.974115 0.503544 0.177430
C11   C     C_R   0.442089 0.867390 0.508346 -0.258778
C12   C     C_R   0.538776 0.470240 0.977087 0.011756
C13   C     C_R   0.636463 0.862787 0.491468 -0.203093
C14   C     C_R   0.643785 0.970270 0.487086 -0.212396
C15   C     C_R   0.019467 0.618665 0.423176 0.315978
C16   C     C_R   0.522428 0.700499 0.501670 0.887202
C17   C     C_R   0.135699 0.602375 0.422847 0.538113
C18   C     C_R   0.153005 0.448247 0.532522 -0.179511
C19   C     C_R   0.034327 0.458064 0.529047 0.019718
C20   C     C_R   0.966489 0.543850 0.473110 -0.090561
C21   C     C_R   0.847440 0.553076 0.469458 0.010389
C22   C     C_R   0.864129 0.397559 0.575501 0.009813
C23   C     C_R   0.529720 0.519442 0.876818 0.079677
C24   C     C_R   0.982233 0.384940 0.581107 -0.253208
C25   C     C_R   0.433295 0.502976 0.291773 0.886448
C26   C     C_R   0.260310 0.571151 0.994281 -0.202202
C27   C     C_R   0.393070 0.506517 0.172940 -0.062898
C28   C     C_R   0.708871 0.432511 0.887136 -0.262056
C29   C     C_R   0.720633 0.384419 0.986660 0.018990
C30   C     C_R   0.630022 0.394903 0.027195 -0.047353
C31   C     C_3   0.998076 0.787690 0.448780 -0.329490
C32   C     C_3   0.120662 0.677643 0.258005 -0.244020
C33   C     C_1   0.622739 0.317240 0.107514 0.147977
C34   C     C_R   0.453504 0.496987 0.020116 0.083786
C35   C     C_1   0.820504 0.316314 0.040324 0.161387
C36   C     C_R   0.349919 0.553830 0.954907 0.180262
C37   C     C_R   0.343891 0.601568 0.857039 -0.245951
C38   C     C_R   0.438264 0.591811 0.823867 -0.175526
C39   C     C_R   0.476639 0.481047 0.130602 -0.238247
C40   C     C_R   0.280738 0.544675 0.103052 -0.195106
H1    H     H_    0.213667 0.561784 0.134195 0.147720
H2    H     H_    0.270501 0.652002 0.810024 0.142007
H3    H     H_    0.206735 0.383622 0.577467 0.167322
H4    H     H_    0.178390 0.610516 0.943314 0.136295
H5    H     H_    0.565764 0.458996 0.186989 0.176420
H6    H     H_    0.771571 0.414578 0.850563 0.167961
H7    H     H_    0.436856 0.639470 0.753984 0.159217
H8    H     H_    0.364057 0.827942 0.517024 0.178294
H9    H     H_    0.096134 0.808323 0.471100 0.181482
H10   H     H_    0.981114 0.767511 0.524172 0.148118
H11   H     H_    0.946325 0.857654 0.409645 0.195082
H12   H     H_    0.708746 0.819908 0.485832 0.161962
H13   H     H_    0.045352 0.731778 0.235438 0.212015
H14   H     H_    0.084774 0.599468 0.223994 0.127796
H15   H     H_    0.181282 0.709288 0.218156 0.169716
H16   H     H_    0.276107 0.990249 0.517150 0.134024
H17   H     H_    0.722022 0.009694 0.478955 0.140308
H18   H     H_    0.290223 0.180047 0.511887 0.159113
H19   H     H_    0.634687 0.172185 0.480353 0.163760
H20   H     H_    0.793276 0.617833 0.425634 0.168622
H21   H     H_    0.824806 0.340382 0.615370 0.127852
H22   H     H_    0.032137 0.318261 0.625529 0.139365
N1    N     N_R   0.798200 0.480260 0.519790 -0.110325
N2    N     N_R   0.201820 0.519740 0.480210 -0.153599
N3    N     N_1   0.617156 0.255003 0.171349 -0.197489
N4    N     N_1   0.900451 0.261903 0.083285 -0.200547
O1    O     O_R   0.579910 0.341070 0.505280 -0.629185
O2    O     O_3   0.188411 0.674370 0.372890 -0.589344
O3    O     O_R   0.388440 0.353740 0.492580 -0.624207
O4    O     O_R   0.643280 0.490550 0.663120 -0.617593
O5    O     O_R   0.451810 0.503220 0.650420 -0.615801
O6    O     O_R   0.611560 0.646260 0.507420 -0.638193
O7    O     O_R   0.420090 0.658930 0.494720 -0.571673
O8    O     O_R   0.548190 0.496780 0.349580 -0.621635
O9    O     O_R   0.356720 0.509450 0.336880 -0.591856
O10   O     O_3   0.957248 0.706573 0.373075 -0.612447
Zn1   Zn    Zn3+2 0.627850 0.491540 0.508480 0.943124
Zn2   Zn    Zn3+2 0.372150 0.508460 0.491520 0.977822

loop_
_geom_bond_atom_site_label_1
_geom_bond_atom_site_label_2
_ccdc_geom_bond_type
C19   C20   A    
O1    Zn1   S    
C26   C40   A    
C4    O4    A    
C11   H8    S    
C33   N3    T    
C12   C23   A    
C28   H6    S    
C29   C30   A    
C1    C5    S    
C36   C37   A    
C37   C38   A    
C18   C19   A    
C8    H19   S    
C25   O8    A    
C37   H2    S    
C22   N1    A    
C27   C39   A    
C8    C9    A    
O8    Zn1   S    
C16   O6    A    
O7    Zn2   S    
C9    C10   A    
C32   H15   S    
C3    C13   A    
C32   O2    S    
C15   O10   S    
C13   C14   A    
O4    Zn1   S    
O3    Zn2   S    
C31   H9    S    
C32   H14   S    
C15   C20   A    
C26   H4    S    
C34   C39   A    
C21   H20   S    
C31   H11   S    
C5    C7    A    
C35   N4    T    
C1    O3    A    
C16   O7    A    
C25   O9    A    
C2    C4    S    
C9    C14   A    
O6    Zn1   S    
C13   H12   S    
C27   C40   A    
C38   H7    S    
C26   C36   A    
C40   H1    S    
C22   C24   A    
C31   H10   S    
C12   C34   A    
C32   H13   S    
N1    Zn1   S    
C15   C17   A    
C14   H17   S    
C28   C29   A    
C17   O2    S    
C24   H22   S    
C7    H18   S    
C30   C33   S    
C12   C30   A    
N2    Zn2   S    
C6    H16   S    
C6    C10   A    
C5    C8    A    
C6    C7    A    
C25   C27   S    
C23   C38   A    
C29   C35   S    
C39   H5    S    
C19   C24   A    
C17   N2    A    
C18   H3    S    
C22   H21   S    
C18   N2    A    
C31   O10   S    
C1    O1    A    
C34   C36   A    
O5    Zn2   S    
O9    Zn2   S    
C21   N1    A    
C3    C11   A    
C10   C11   A    
C20   C21   A    
C2    C23   A    
C2    C28   A    
C4    O5    A    
C3    C16   S    
