data_mof_unit_65655.cif
_audit_creation_date              2012-12-10T18:11:02-0500
_audit_creation_method            fapswitch 2.2
_symmetry_space_group_name_H-M    P1
_symmetry_Int_Tables_number       1
_space_group_crystal_system       triclinic
_cell_length_a                    21.67661
_cell_length_b                    21.676661
_cell_length_c                    35.546343
_cell_angle_alpha                 90.000838
_cell_angle_beta                  90.008344
_cell_angle_gamma                 90.000098
_cell_volume                      16702.3920032

loop_
_atom_site_label
_atom_site_type_symbol
_atom_type_description
_atom_site_fract_x
_atom_site_fract_y
_atom_site_fract_z
_atom_type_partial_charge
C1    C     C_R   0.500000 0.880057 0.999998 0.896000
C2    C     C_R   0.119945 0.500000 0.000002 0.896056
C3    C     C_R   0.500000 0.119943 0.999999 0.896012
C4    C     C_R   0.880057 0.500000 0.999999 0.896002
C5    C     C_R   1.000000 0.380057 0.499999 0.895989
C6    C     C_R   0.619943 0.000000 0.500002 0.896006
C7    C     C_R   1.000000 0.619943 0.500000 0.896012
C8    C     C_R   0.380056 0.000000 0.499995 0.896032
C9    C     C_1   0.499973 0.999996 0.733196 0.215761
C10   C     C_1   0.000032 0.499992 0.733197 0.215762
C11   C     C_1   0.500026 0.999986 0.266804 0.215760
C12   C     C_1   0.999976 0.499986 0.266803 0.215762
C13   C     C_1   0.999980 0.499988 0.233196 0.215760
C14   C     C_1   0.500028 0.999984 0.233197 0.215762
C15   C     C_1   0.000030 0.499993 0.766804 0.215760
C16   C     C_1   0.499971 0.999995 0.766803 0.215761
C17   C     C_R   0.541787 0.718138 0.023652 0.134581
C18   C     C_R   0.281875 0.541856 0.023598 0.134703
C19   C     C_R   0.458220 0.281863 0.023648 0.134570
C20   C     C_R   0.718143 0.458232 0.023661 0.134557
C21   C     C_R   0.541789 0.281862 0.976356 0.134627
C22   C     C_R   0.281863 0.458184 0.976370 0.134584
C23   C     C_R   0.458191 0.718136 0.976364 0.134630
C24   C     C_R   0.718133 0.541798 0.976361 0.134631
C25   C     C_R   0.041792 0.218137 0.523646 0.134592
C26   C     C_R   0.781868 0.041812 0.523629 0.134663
C27   C     C_R   0.958218 0.781862 0.523646 0.134612
C28   C     C_R   0.218139 0.958226 0.523656 0.134499
C29   C     C_R   0.041774 0.781861 0.476347 0.134574
C30   C     C_R   0.781858 0.958229 0.476340 0.134542
C31   C     C_R   0.958202 0.218137 0.476354 0.134620
C32   C     C_R   0.218129 0.041848 0.476395 0.134747
C33   C     C_R   0.379722 0.500002 0.999996 0.898040
C34   C     C_R   0.500000 0.379720 0.000000 0.898257
C35   C     C_R   0.620280 0.500003 0.000003 0.898325
C36   C     C_R   0.500000 0.620280 0.000001 0.898170
C37   C     C_R   0.879720 0.000003 0.499996 0.898293
C38   C     C_R   0.000000 0.879720 0.499999 0.898326
C39   C     C_R   0.120279 0.000004 0.500005 0.898183
C40   C     C_R   0.999998 0.120280 0.500000 0.898212
C41   C     C_R   0.537412 0.782312 0.026239 0.136744
C42   C     C_R   0.217707 0.537459 0.026206 0.136395
C43   C     C_R   0.462600 0.217689 0.026238 0.136698
C44   C     C_R   0.782319 0.462602 0.026245 0.136759
C45   C     C_R   0.537403 0.217689 0.973763 0.136614
C46   C     C_R   0.217689 0.462558 0.973778 0.136587
C47   C     C_R   0.462577 0.782307 0.973768 0.136621
C48   C     C_R   0.782303 0.537406 0.973765 0.136612
C49   C     C_R   0.037416 0.282311 0.526236 0.136755
C50   C     C_R   0.717699 0.037417 0.526230 0.136554
C51   C     C_R   0.962603 0.717690 0.526239 0.136623
C52   C     C_R   0.282317 0.962585 0.526236 0.136790
C53   C     C_R   0.037394 0.717687 0.473757 0.136669
C54   C     C_R   0.717681 0.962597 0.473757 0.136773
C55   C     C_R   0.962585 0.282310 0.473762 0.136697
C56   C     C_R   0.282295 0.037440 0.473784 0.136332
C57   C     C_R   0.499996 0.999999 0.926632 0.936287
C58   C     C_R   0.000001 0.499999 0.926633 0.936317
C59   C     C_R   0.500004 0.999999 0.073368 0.936282
C60   C     C_R   0.000000 0.500001 0.073367 0.936322
C61   C     C_R   0.999996 0.499999 0.426632 0.936272
C62   C     C_R   0.500000 1.000000 0.426633 0.936307
C63   C     C_R   0.000004 0.499999 0.573368 0.936280
C64   C     C_R   0.500000 0.000000 0.573367 0.936302
C65   C     C_R   0.499991 0.686569 0.000006 -0.134287
C66   C     C_R   0.313438 0.500020 0.999985 -0.133941
C67   C     C_R   0.500005 0.313431 0.000002 -0.134288
C68   C     C_R   0.686570 0.500017 0.000012 -0.134343
C69   C     C_R   0.999994 0.186570 0.500002 -0.134359
C70   C     C_R   0.813431 0.000023 0.499985 -0.134294
C71   C     C_R   0.999997 0.813431 0.499997 -0.134297
C72   C     C_R   0.186565 0.000040 0.500025 -0.134103
C73   C     C_R   0.499998 0.813870 0.000001 -0.128218
C74   C     C_R   0.186135 0.500002 0.999997 -0.128309
C75   C     C_R   0.500000 0.186129 0.999999 -0.128200
C76   C     C_R   0.813871 0.500000 0.000002 -0.128190
C77   C     C_R   0.000000 0.313871 0.499999 -0.128215
C78   C     C_R   0.686129 0.000001 0.499997 -0.128207
C79   C     C_R   0.999999 0.686129 0.499999 -0.128186
C80   C     C_R   0.313868 0.000002 0.500002 -0.128250
C81   C     C_R   0.542339 0.963358 0.673889 0.605780
C82   C     C_R   0.036674 0.542342 0.673886 0.605772
C83   C     C_R   0.457626 0.036638 0.673878 0.605775
C84   C     C_R   0.963379 0.457641 0.673882 0.605776
C85   C     C_R   0.542372 0.036633 0.326122 0.605776
C86   C     C_R   0.036623 0.457635 0.326118 0.605774
C87   C     C_R   0.457659 0.963351 0.326111 0.605781
C88   C     C_R   0.963331 0.542337 0.326113 0.605775
C89   C     C_R   0.042347 0.463357 0.173888 0.605780
C90   C     C_R   0.536670 0.042338 0.173887 0.605776
C91   C     C_R   0.957632 0.536635 0.173879 0.605778
C92   C     C_R   0.463379 0.957633 0.173881 0.605775
C93   C     C_R   0.042379 0.536633 0.826123 0.605777
C94   C     C_R   0.536620 0.957641 0.826117 0.605777
C95   C     C_R   0.957663 0.463355 0.826110 0.605782
C96   C     C_R   0.463330 0.042345 0.826115 0.605774
C97   C     C_R   0.542955 0.962844 0.634502 -0.005420
C98   C     C_R   0.037182 0.542953 0.634499 -0.005422
C99   C     C_R   0.457024 0.037156 0.634491 -0.005417
C100  C     C_R   0.962856 0.457034 0.634495 -0.005421
C101  C     C_R   0.542973 0.037153 0.365509 -0.005425
C102  C     C_R   0.037144 0.457029 0.365505 -0.005419
C103  C     C_R   0.457043 0.962841 0.365498 -0.005420
C104  C     C_R   0.962820 0.542949 0.365501 -0.005422
C105  C     C_R   0.042963 0.462847 0.134501 -0.005415
C106  C     C_R   0.537179 0.042951 0.134500 -0.005420
C107  C     C_R   0.957029 0.537156 0.134492 -0.005430
C108  C     C_R   0.462858 0.957028 0.134494 -0.005418
C109  C     C_R   0.042980 0.537150 0.865510 -0.005419
C110  C     C_R   0.537142 0.957033 0.865504 -0.005422
C111  C     C_R   0.957046 0.462842 0.865497 -0.005421
C112  C     C_R   0.462821 0.042955 0.865502 -0.005423
C113  C     C_R   0.499994 0.000001 0.614618 -0.216844
C114  C     C_R   0.000014 0.499996 0.614618 -0.216843
C115  C     C_R   0.500005 0.999999 0.385382 -0.216848
C116  C     C_R   0.999986 0.499992 0.385382 -0.216842
C117  C     C_R   0.999998 0.500002 0.114617 -0.216850
C118  C     C_R   0.500014 0.999993 0.114618 -0.216842
C119  C     C_R   0.000008 0.499998 0.885382 -0.216849
C120  C     C_R   0.499986 0.999996 0.885382 -0.216845
C121  C     C_R   0.499979 0.999997 0.693153 -0.259512
C122  C     C_R   0.000029 0.499991 0.693153 -0.259509
C123  C     C_R   0.500020 0.999989 0.306847 -0.259512
C124  C     C_R   0.999976 0.499985 0.306847 -0.259509
C125  C     C_R   0.999985 0.499992 0.193153 -0.259512
C126  C     C_R   0.500027 0.999984 0.193153 -0.259511
C127  C     C_R   0.000025 0.499993 0.806847 -0.259514
C128  C     C_R   0.499972 0.999993 0.806847 -0.259510
O1    O     O_R   0.448380 0.908480 0.999900 -0.616134
O2    O     O_R   0.091520 0.448380 0.999900 -0.616144
O3    O     O_R   0.551620 0.091520 0.999900 -0.616130
O4    O     O_R   0.908480 0.551620 0.999900 -0.616131
O5    O     O_R   0.448380 0.091520 0.000100 -0.616128
O6    O     O_R   0.091520 0.551620 0.000100 -0.616164
O7    O     O_R   0.551620 0.908480 0.000100 -0.616121
O8    O     O_R   0.908480 0.448380 0.000100 -0.616118
O9    O     O_R   0.948380 0.408480 0.499900 -0.616124
O10   O     O_R   0.591520 0.948380 0.499900 -0.616118
O11   O     O_R   0.051620 0.591520 0.499900 -0.616127
O12   O     O_R   0.408480 0.051620 0.499900 -0.616160
O13   O     O_R   0.948380 0.591520 0.500100 -0.616130
O14   O     O_R   0.591520 0.051620 0.500100 -0.616138
O15   O     O_R   0.051620 0.408480 0.500100 -0.616122
O16   O     O_R   0.408480 0.948380 0.500100 -0.616123
O17   O     O_R   0.448380 0.000100 0.944450 -0.620472
O18   O     O_R   0.999900 0.448380 0.944450 -0.620467
O19   O     O_R   0.551620 0.999900 0.944450 -0.620465
O20   O     O_R   0.000100 0.551620 0.944450 -0.620465
O21   O     O_R   0.448380 0.999900 0.055550 -0.620464
O22   O     O_R   0.999900 0.551620 0.055550 -0.620451
O23   O     O_R   0.551620 0.000100 0.055550 -0.620474
O24   O     O_R   0.000100 0.448380 0.055550 -0.620479
O25   O     O_R   0.948380 0.500100 0.444450 -0.620474
O26   O     O_R   0.499900 0.948380 0.444450 -0.620480
O27   O     O_R   0.051620 0.499900 0.444450 -0.620466
O28   O     O_R   0.500100 0.051620 0.444450 -0.620453
O29   O     O_R   0.948380 0.499900 0.555550 -0.620463
O30   O     O_R   0.499900 0.051620 0.555550 -0.620460
O31   O     O_R   0.051620 0.500100 0.555550 -0.620476
O32   O     O_R   0.500100 0.948380 0.555550 -0.620474
O33   O     O_R   0.408370 0.500100 0.031180 -0.617041
O34   O     O_R   0.499900 0.408370 0.031180 -0.617226
O35   O     O_R   0.591630 0.499900 0.031180 -0.617275
O36   O     O_R   0.500100 0.591630 0.031180 -0.617325
O37   O     O_R   0.408370 0.499900 0.968820 -0.617179
O38   O     O_R   0.499900 0.591630 0.968820 -0.617201
O39   O     O_R   0.591630 0.500100 0.968820 -0.617200
O40   O     O_R   0.500100 0.408370 0.968820 -0.617216
O41   O     O_R   0.908370 0.000100 0.531180 -0.617163
O42   O     O_R   0.999900 0.908370 0.531180 -0.617187
O43   O     O_R   0.091630 0.999900 0.531180 -0.617282
O44   O     O_R   0.000100 0.091630 0.531180 -0.617296
O45   O     O_R   0.908370 0.999900 0.468820 -0.617287
O46   O     O_R   0.999900 0.091630 0.468820 -0.617306
O47   O     O_R   0.091630 0.000100 0.468820 -0.617020
O48   O     O_R   0.000100 0.908370 0.468820 -0.617213
Zn1   Zn    Zn3+2 0.431030 0.000000 0.000000 0.956741
Zn2   Zn    Zn3+2 0.000000 0.431030 0.000000 0.956744
Zn3   Zn    Zn3+2 0.568970 0.000000 0.000000 0.956759
Zn4   Zn    Zn3+2 0.000000 0.568970 0.000000 0.956698
Zn5   Zn    Zn3+2 0.931030 0.500000 0.500000 0.956755
Zn6   Zn    Zn3+2 0.500000 0.931030 0.500000 0.956777
Zn7   Zn    Zn3+2 0.068970 0.500000 0.500000 0.956761
Zn8   Zn    Zn3+2 0.500000 0.068970 0.500000 0.956693
Zn9   Zn    Zn3+2 0.500000 0.500000 0.041690 0.963942
Zn10  Zn    Zn3+2 0.500000 0.500000 0.958310 0.964009
Zn11  Zn    Zn3+2 0.000000 0.000000 0.541690 0.963883
Zn12  Zn    Zn3+2 0.000000 0.000000 0.458310 0.963986
C129  C     C_3   0.590580 0.683626 0.046096 -0.828837
H1    H     H_    0.631991 0.712444 0.051291 0.240787
H2    H     H_    0.571034 0.668604 0.073465 0.255726
H3    H     H_    0.607865 0.642814 0.030524 0.223763
C130  C     C_3   0.316333 0.590754 0.045985 -0.829263
H4    H     H_    0.287641 0.632411 0.050702 0.240744
H5    H     H_    0.330692 0.571544 0.073577 0.255451
H6    H     H_    0.357556 0.607571 0.030631 0.224144
C131  C     C_3   0.409428 0.316365 0.046090 -0.828844
H7    H     H_    0.367986 0.287563 0.051222 0.240772
H8    H     H_    0.428947 0.331296 0.073488 0.255691
H9    H     H_    0.392195 0.357234 0.030549 0.223839
C132  C     C_3   0.683634 0.409453 0.046111 -0.828813
H10   H     H_    0.712457 0.368054 0.051328 0.240788
H11   H     H_    0.668590 0.429024 0.073470 0.255735
H12   H     H_    0.642835 0.392141 0.030531 0.223751
C133  C     C_3   0.590592 0.316351 0.953918 -0.828932
H13   H     H_    0.632085 0.287577 0.948879 0.240762
H14   H     H_    0.571131 0.331137 0.926475 0.255630
H15   H     H_    0.607731 0.357311 0.969409 0.223885
C134  C     C_3   0.316341 0.409334 0.953960 -0.829078
H16   H     H_    0.287587 0.367793 0.949016 0.240773
H17   H     H_    0.331012 0.428704 0.926474 0.255589
H18   H     H_    0.357372 0.392295 0.969422 0.223936
C135  C     C_3   0.409369 0.683641 0.953935 -0.828934
H19   H     H_    0.367883 0.712422 0.948881 0.240767
H20   H     H_    0.428817 0.668818 0.926499 0.255641
H21   H     H_    0.392222 0.642705 0.969443 0.223930
C136  C     C_3   0.683640 0.590601 0.953918 -0.828933
H22   H     H_    0.712408 0.632102 0.948890 0.240760
H23   H     H_    0.668870 0.571148 0.926470 0.255622
H24   H     H_    0.642670 0.607726 0.969399 0.223901
C137  C     C_3   0.090592 0.183621 0.546082 -0.828831
H25   H     H_    0.131984 0.212452 0.551306 0.240793
H26   H     H_    0.071038 0.168539 0.573436 0.255744
H27   H     H_    0.107909 0.142846 0.530484 0.223782
C138  C     C_3   0.816353 0.090636 0.546061 -0.829014
H28   H     H_    0.787602 0.132173 0.551018 0.240756
H29   H     H_    0.831029 0.071238 0.573542 0.255579
H30   H     H_    0.857382 0.107691 0.530609 0.223960
C139  C     C_3   0.909420 0.816353 0.546089 -0.828921
H31   H     H_    0.867930 0.787577 0.551136 0.240762
H32   H     H_    0.928890 0.831148 0.573528 0.255633
H33   H     H_    0.892271 0.857306 0.530597 0.223882
C140  C     C_3   0.183629 0.909431 0.546092 -0.828850
H34   H     H_    0.212453 0.868028 0.551300 0.240798
H35   H     H_    0.168582 0.928983 0.573455 0.255741
H36   H     H_    0.142832 0.892128 0.530506 0.223725
C141  C     C_3   0.090560 0.816356 0.453897 -0.828862
H37   H     H_    0.132024 0.787569 0.448801 0.240766
H38   H     H_    0.071055 0.831217 0.426481 0.255666
H39   H     H_    0.107757 0.857269 0.469410 0.223844
C142  C     C_3   0.816368 0.909446 0.453893 -0.828817
H40   H     H_    0.787542 0.868051 0.448670 0.240793
H41   H     H_    0.831426 0.929017 0.426538 0.255742
H42   H     H_    0.857158 0.892128 0.469480 0.223736
C143  C     C_3   0.909401 0.183630 0.453913 -0.828867
H43   H     H_    0.867966 0.212437 0.448763 0.240781
H44   H     H_    0.928917 0.168672 0.426523 0.255696
H45   H     H_    0.892160 0.142778 0.469464 0.223812
C144  C     C_3   0.183681 0.090730 0.453991 -0.829263
H46   H     H_    0.212352 0.132417 0.449325 0.240725
H47   H     H_    0.169424 0.071534 0.426376 0.255410
H48   H     H_    0.142397 0.107499 0.469303 0.224198
F1    F     F_    0.582814 0.928110 0.693720 -0.625361
F2    F     F_    0.071932 0.582813 0.693713 -0.625371
F3    F     F_    0.417143 0.071885 0.693697 -0.625372
F4    F     F_    0.928128 0.417168 0.693705 -0.625362
F5    F     F_    0.582853 0.071879 0.306302 -0.625370
F6    F     F_    0.071874 0.417160 0.306296 -0.625365
F7    F     F_    0.417184 0.928101 0.306281 -0.625362
F8    F     F_    0.928075 0.582809 0.306286 -0.625368
F9    F     F_    0.082825 0.428109 0.193717 -0.625361
F10   F     F_    0.571925 0.082811 0.193715 -0.625368
F11   F     F_    0.917150 0.571880 0.193700 -0.625370
F12   F     F_    0.428130 0.917157 0.193703 -0.625365
F13   F     F_    0.082863 0.571878 0.806304 -0.625370
F14   F     F_    0.571869 0.917165 0.806293 -0.625362
F15   F     F_    0.917187 0.428107 0.806279 -0.625362
F16   F     F_    0.428075 0.082819 0.806288 -0.625371
C145  C     C_3   0.590167 0.923704 0.614191 -0.726996
H49   H     H_    0.624581 0.903190 0.633617 0.280064
H50   H     H_    0.566829 0.885169 0.599379 0.245863
H51   H     H_    0.615929 0.952139 0.593546 0.206288
C146  C     C_3   0.076331 0.590154 0.614184 -0.726994
H52   H     H_    0.096854 0.624566 0.633607 0.280059
H53   H     H_    0.114859 0.566805 0.599377 0.245862
H54   H     H_    0.047899 0.615919 0.593534 0.206305
C147  C     C_3   0.409821 0.076299 0.614167 -0.727016
H55   H     H_    0.375400 0.096812 0.633583 0.280058
H56   H     H_    0.433165 0.114834 0.599363 0.245861
H57   H     H_    0.384066 0.047866 0.593512 0.206319
C148  C     C_3   0.923704 0.409832 0.614176 -0.726988
H58   H     H_    0.903191 0.375416 0.633595 0.280057
H59   H     H_    0.885168 0.433179 0.599369 0.245866
H60   H     H_    0.952130 0.384072 0.593525 0.206313
C149  C     C_3   0.590174 0.076301 0.385832 -0.727010
H61   H     H_    0.624594 0.096815 0.366416 0.280059
H62   H     H_    0.566827 0.114837 0.400635 0.245863
H63   H     H_    0.615931 0.047873 0.406488 0.206322
C150  C     C_3   0.076293 0.409827 0.385825 -0.726988
H64   H     H_    0.096805 0.375409 0.366406 0.280058
H65   H     H_    0.114830 0.433173 0.400633 0.245867
H66   H     H_    0.047866 0.384069 0.406476 0.206309
C151  C     C_3   0.409829 0.923705 0.385810 -0.726978
H67   H     H_    0.375414 0.903190 0.366384 0.280064
H68   H     H_    0.433166 0.885170 0.400623 0.245859
H69   H     H_    0.384069 0.952143 0.406455 0.206260
C152  C     C_3   0.923672 0.590152 0.385815 -0.727001
H70   H     H_    0.903149 0.624563 0.366392 0.280061
H71   H     H_    0.885143 0.566804 0.400622 0.245861
H72   H     H_    0.952103 0.615918 0.406466 0.206312
C153  C     C_3   0.090179 0.423715 0.114188 -0.726986
H73   H     H_    0.124596 0.403204 0.133613 0.280064
H74   H     H_    0.066846 0.385179 0.099374 0.245857
H75   H     H_    0.115936 0.452157 0.093543 0.206257
C154  C     C_3   0.576325 0.090155 0.114186 -0.727004
H76   H     H_    0.596847 0.124566 0.133609 0.280061
H77   H     H_    0.614854 0.066809 0.099378 0.245861
H78   H     H_    0.547892 0.115920 0.093537 0.206311
C155  C     C_3   0.909828 0.576304 0.114170 -0.727012
H79   H     H_    0.875409 0.596818 0.133587 0.280061
H80   H     H_    0.933175 0.614839 0.099367 0.245862
H81   H     H_    0.884070 0.547875 0.093514 0.206322
C156  C     C_3   0.423708 0.909826 0.114173 -0.726997
H82   H     H_    0.403196 0.875408 0.133592 0.280058
H83   H     H_    0.385171 0.933172 0.099366 0.245865
H84   H     H_    0.452135 0.884069 0.093522 0.206315
C157  C     C_3   0.090186 0.576289 0.885835 -0.726998
H85   H     H_    0.124609 0.596800 0.866420 0.280059
H86   H     H_    0.066845 0.614827 0.900639 0.245857
H87   H     H_    0.115939 0.547855 0.906490 0.206289
C158  C     C_3   0.576291 0.909829 0.885823 -0.726982
H88   H     H_    0.596802 0.875411 0.866402 0.280058
H89   H     H_    0.614828 0.933173 0.900630 0.245865
H90   H     H_    0.547863 0.884070 0.906473 0.206298
C159  C     C_3   0.909835 0.423701 0.885807 -0.727008
H91   H     H_    0.875422 0.403185 0.866380 0.280066
H92   H     H_    0.933174 0.385167 0.900620 0.245861
H93   H     H_    0.884072 0.452135 0.906452 0.206297
C160  C     C_3   0.423675 0.090158 0.885818 -0.726997
H94   H     H_    0.403153 0.124572 0.866396 0.280061
H95   H     H_    0.385145 0.066811 0.900625 0.245860
H96   H     H_    0.452108 0.115921 0.906469 0.206303
C161  C     C_3   0.571678 0.816215 0.057348 -0.835218
H97   H     H_    0.570357 0.789287 0.083909 0.245152
H98   H     H_    0.620371 0.823865 0.048884 0.249190
H99   H     H_    0.550410 0.861214 0.064402 0.228684
C162  C     C_3   0.183809 0.571838 0.057264 -0.834759
H100  H     H_    0.210830 0.570836 0.083796 0.245119
H101  H     H_    0.175947 0.620436 0.048667 0.249245
H102  H     H_    0.138922 0.550432 0.064431 0.228557
C163  C     C_3   0.428340 0.183787 0.057342 -0.835172
H103  H     H_    0.429646 0.210725 0.083901 0.245149
H104  H     H_    0.379652 0.176117 0.048868 0.249195
H105  H     H_    0.449625 0.138798 0.064407 0.228662
C164  C     C_3   0.816230 0.428350 0.057356 -0.835251
H106  H     H_    0.789317 0.429706 0.083920 0.245156
H107  H     H_    0.823854 0.379647 0.048902 0.249187
H108  H     H_    0.861243 0.449603 0.064399 0.228695
C165  C     C_3   0.571679 0.183785 0.942665 -0.835098
H109  H     H_    0.570415 0.210732 0.916110 0.245147
H110  H     H_    0.620356 0.176092 0.951157 0.249207
H111  H     H_    0.550379 0.138809 0.935587 0.228642
C166  C     C_3   0.183773 0.428216 0.942706 -0.834952
H112  H     H_    0.210739 0.429351 0.916159 0.245132
H113  H     H_    0.176011 0.379578 0.951253 0.249221
H114  H     H_    0.138832 0.449557 0.935588 0.228635
C167  C     C_3   0.428284 0.816208 0.942671 -0.835106
H115  H     H_    0.429522 0.789252 0.916118 0.245151
H116  H     H_    0.379616 0.823915 0.951167 0.249200
H117  H     H_    0.449590 0.861177 0.935586 0.228642
C168  C     C_3   0.816197 0.571682 0.942663 -0.835101
H118  H     H_    0.789242 0.570416 0.916109 0.245146
H119  H     H_    0.823892 0.620359 0.951150 0.249205
H120  H     H_    0.861173 0.550384 0.935587 0.228636
C169  C     C_3   0.071678 0.316212 0.557346 -0.835241
H121  H     H_    0.070358 0.289278 0.583905 0.245156
H122  H     H_    0.120370 0.323869 0.548883 0.249187
H123  H     H_    0.050404 0.361208 0.564404 0.228680
C170  C     C_3   0.683804 0.071715 0.557323 -0.835030
H124  H     H_    0.710774 0.070505 0.583872 0.245141
H125  H     H_    0.676075 0.120375 0.548813 0.249214
H126  H     H_    0.638848 0.050394 0.564418 0.228618
C171  C     C_3   0.928333 0.683787 0.557339 -0.835108
H127  H     H_    0.929606 0.710734 0.583894 0.245147
H128  H     H_    0.879653 0.676097 0.548852 0.249207
H129  H     H_    0.949632 0.638810 0.564414 0.228640
C172  C     C_3   0.316230 0.928311 0.557336 -0.835200
H130  H     H_    0.289310 0.929624 0.583899 0.245144
H131  H     H_    0.323879 0.879621 0.548862 0.249191
H132  H     H_    0.361230 0.949580 0.564395 0.228701
C173  C     C_3   0.071654 0.683782 0.442653 -0.835153
H133  H     H_    0.070347 0.710717 0.416094 0.245149
H134  H     H_    0.120343 0.676116 0.451128 0.249200
H135  H     H_    0.050371 0.638792 0.435591 0.228658
C174  C     C_3   0.683770 0.928339 0.442648 -0.835245
H136  H     H_    0.710684 0.929689 0.416084 0.245153
H137  H     H_    0.676143 0.879639 0.451105 0.249187
H138  H     H_    0.638759 0.949594 0.435602 0.228699
C175  C     C_3   0.928314 0.316211 0.442655 -0.835189
H139  H     H_    0.929616 0.289273 0.416097 0.245153
H140  H     H_    0.879627 0.323875 0.451126 0.249193
H141  H     H_    0.949591 0.361202 0.435593 0.228668
C176  C     C_3   0.316192 0.071803 0.442720 -0.834765
H142  H     H_    0.289179 0.070768 0.416185 0.245124
H143  H     H_    0.324033 0.120412 0.451303 0.249245
H144  H     H_    0.361091 0.050411 0.435565 0.228550

loop_
_geom_bond_atom_site_label_1
_geom_bond_atom_site_label_2
_ccdc_geom_bond_type
O14   Zn8   S    
O45   Zn12  S    
C167  H115  S    
C57   O17   A    
C132  H11   S    
C52   C172  S    
C162  H100  S    
C27   C71   A    
C89   C125  A    
C161  H97   S    
C148  H60   S    
C2    O6    A    
C3    O3    A    
C20   C132  S    
C1    O1    A    
C26   C50   A    
C153  H75   S    
C108  C156  S    
C138  H30   S    
O32   Zn6   S    
C131  H8    S    
C172  H132  S    
C39   O43   A    
C88   C104  A    
O47   Zn12  S    
C104  C116  A    
C27   C139  S    
C30   C142  S    
O42   Zn11  S    
C84   F4    S    
C9    C121  S    
C170  H126  S    
C13   C125  S    
C133  H14   S    
C15   C127  S    
C143  H43   S    
C106  C118  A    
C56   C176  S    
C82   C98   A    
C61   O27   A    
C166  H113  S    
O48   Zn12  S    
O16   Zn6   S    
C59   O21   A    
C43   C75   A    
C168  H120  S    
C84   C100  A    
C91   C107  A    
O40   Zn10  S    
O41   Zn11  S    
C171  H129  S    
C87   F7    S    
C112  C120  A    
C153  H73   S    
C35   O35   A    
C81   C121  A    
C29   C53   A    
C157  H87   S    
C33   O33   A    
C139  H31   S    
C38   O48   A    
C90   C126  A    
C101  C149  S    
C60   C117  S    
C105  C153  S    
C111  C159  S    
C164  H108  S    
C92   F12   S    
C87   C103  A    
C167  H117  S    
C57   O19   A    
C173  H133  S    
C101  C115  A    
C89   F9    S    
C5    C77   S    
C162  H102  S    
C91   F11   S    
C7    C79   S    
C23   C135  S    
C161  H99   S    
C91   C125  A    
O38   Zn10  S    
C20   C68   A    
C29   C71   A    
C10   C122  S    
C5    O9    A    
C132  H12   S    
C151  H69   S    
C176  H142  S    
C14   C126  S    
C8    O12   A    
C37   C70   S    
C149  H62   S    
C169  H121  S    
C40   O46   A    
C150  H65   S    
C58   C119  S    
C85   C123  A    
O13   Zn5   S    
O10   Zn6   S    
C98   C114  A    
C152  H70   S    
O19   Zn3   S    
C165  H111  S    
C158  H88   S    
C143  H45   S    
C85   F5    S    
C82   C122  A    
C174  H137  S    
C96   F16   S    
C165  H109  S    
C159  H93   S    
C48   C76   A    
C63   O31   A    
C88   C124  A    
C150  H66   S    
C4    O4    A    
C30   C54   A    
C144  H46   S    
C137  H25   S    
C46   C166  S    
C139  H33   S    
C18   C42   A    
C37   O41   A    
O27   Zn7   S    
C156  H83   S    
O9    Zn5   S    
C26   C138  S    
O18   Zn2   S    
C111  C119  A    
C142  H40   S    
C44   C76   A    
C92   C108  A    
C154  H77   S    
C173  H135  S    
C3    C75   S    
C140  H34   S    
C130  H6    S    
C141  H37   S    
C152  H71   S    
C159  H91   S    
O21   Zn1   S    
C20   C44   A    
C27   C51   A    
C33   C66   S    
C138  H28   S    
C21   C45   A    
C163  H104  S    
C176  H144  S    
C23   C47   A    
C24   C48   A    
C100  C114  A    
C39   O47   A    
C169  H123  S    
C88   F8    S    
C136  H22   S    
C32   C144  S    
C109  C157  S    
C151  H67   S    
C47   C167  S    
C16   C128  S    
C95   F15   S    
C158  H90   S    
C134  H16   S    
C60   O22   A    
C112  C160  S    
O4    Zn4   S    
C57   C120  S    
C155  H81   S    
C130  H4    S    
C59   C118  S    
C102  C150  S    
C86   C124  A    
C6    O14   A    
C63   O29   A    
C86   C102  A    
C7    O13   A    
C173  H134  S    
C144  H48   S    
C33   O37   A    
C34   O34   A    
O34   Zn9   S    
C18   C66   A    
O37   Zn10  S    
C56   C80   A    
C132  H10   S    
C142  H42   S    
C81   F1    S    
C23   C65   A    
C141  H38   S    
C135  H20   S    
C62   C115  S    
C55   C175  S    
C87   C123  A    
C99   C147  S    
C97   C145  S    
C107  C155  S    
C146  H53   S    
C32   C56   A    
C131  H7    S    
C90   F10   S    
C140  H36   S    
C51   C79   A    
C172  H131  S    
C41   C73   A    
C43   C163  S    
C31   C69   A    
C12   C13   T    
O20   Zn4   S    
C141  H39   S    
C89   C105  A    
O6    Zn4   S    
C1    O7    A    
C93   C109  A    
C170  H125  S    
C158  H89   S    
C166  H112  S    
O28   Zn8   S    
C85   C101  A    
C32   C72   A    
C135  H19   S    
C136  H24   S    
C168  H119  S    
O12   Zn8   S    
C137  H27   S    
C171  H128  S    
C163  H105  S    
C93   F13   S    
O44   Zn11  S    
C134  H18   S    
C96   C128  A    
C49   C169  S    
C60   O24   A    
C157  H86   S    
C54   C174  S    
C86   F6    S    
O33   Zn9   S    
O2    Zn2   S    
C162  H101  S    
C100  C148  S    
C19   C67   A    
C164  H107  S    
C5    O15   A    
C4    O8    A    
C24   C136  S    
C161  H98   S    
C167  H116  S    
C83   C99   A    
C145  H49   S    
C105  C117  A    
C28   C72   A    
O29   Zn5   S    
C34   O40   A    
C50   C78   A    
C30   C70   A    
C19   C43   A    
C38   O42   A    
C153  H74   S    
C103  C151  S    
C42   C74   A    
C19   C131  S    
C47   C73   A    
O36   Zn9   S    
C142  H41   S    
C36   C65   S    
C155  H79   S    
O39   Zn10  S    
O1    Zn1   S    
C94   C110  A    
C83   F3    S    
O15   Zn7   S    
C131  H9    S    
C103  C115  A    
C149  H61   S    
C96   C112  A    
C146  H54   S    
C45   C165  S    
C64   O32   A    
C61   C116  S    
C90   C106  A    
C22   C46   A    
O25   Zn5   S    
C143  H44   S    
C26   C70   A    
C148  H59   S    
C40   O44   A    
C166  H114  S    
C109  C119  A    
O22   Zn4   S    
C174  H136  S    
C135  H21   S    
C11   C123  S    
C92   C126  A    
C34   C67   S    
C99   C113  A    
C94   C128  A    
O35   Zn9   S    
C1    C73   S    
C139  H32   S    
O5    Zn1   S    
C156  H82   S    
C42   C162  S    
C2    O2    A    
C62   O28   A    
C129  H1    S    
C25   C49   A    
C6    C78   S    
C24   C68   A    
C50   C170  S    
C95   C127  A    
C137  H26   S    
C154  H76   S    
C145  H51   S    
C175  H140  S    
C82   F2    S    
C31   C55   A    
C52   C80   A    
O30   Zn8   S    
C107  C117  A    
C129  H2    S    
C54   C78   A    
C160  H94   S    
C48   C168  S    
C133  H13   S    
C176  H143  S    
C53   C173  S    
C53   C79   A    
C9    C16   T    
C149  H63   S    
C10   C15   T    
C169  H122  S    
C55   C77   A    
C11   C14   T    
C58   O20   A    
C84   C122  A    
C22   C134  S    
O8    Zn2   S    
C159  H92   S    
C21   C133  S    
C22   C66   A    
C138  H29   S    
C63   C114  S    
O23   Zn3   S    
C49   C77   A    
C104  C152  S    
C130  H5    S    
C64   O30   A    
C35   O39   A    
C39   C72   S    
C25   C137  S    
C2    C74   S    
C28   C140  S    
C174  H138  S    
O46   Zn12  S    
C165  H110  S    
C21   C67   A    
C18   C130  S    
C29   C141  S    
C51   C171  S    
C94   F14   S    
C36   O36   A    
C144  H47   S    
C40   C69   S    
C108  C118  A    
C110  C120  A    
O3    Zn3   S    
C156  H84   S    
C152  H72   S    
C17   C129  S    
C148  H58   S    
C44   C164  S    
C62   O26   A    
C3    O5    A    
C6    O10   A    
C129  H3    S    
C93   C127  A    
C98   C146  S    
C175  H141  S    
C106  C154  S    
C12   C124  S    
C154  H78   S    
C36   O38   A    
C146  H52   S    
C160  H95   S    
C8    O16   A    
C83   C121  A    
C140  H35   S    
C172  H130  S    
C41   C161  S    
C147  H56   S    
C160  H96   S    
C147  H57   S    
C97   C113  A    
C46   C74   A    
O11   Zn7   S    
C150  H64   S    
C170  H124  S    
C133  H15   S    
C38   C71   S    
C64   C113  S    
C61   O25   A    
C58   O18   A    
C59   O23   A    
C136  H23   S    
C168  H118  S    
C17   C65   A    
O43   Zn11  S    
C45   C75   A    
C110  C158  S    
C145  H50   S    
O7    Zn3   S    
C151  H68   S    
C95   C111  A    
C171  H127  S    
C7    O11   A    
C28   C52   A    
C175  H139  S    
C155  H80   S    
C81   C97   A    
C35   C68   S    
O26   Zn6   S    
C134  H17   S    
O24   Zn2   S    
C157  H85   S    
C17   C41   A    
C4    C76   S    
C102  C116  A    
C37   O45   A    
C25   C69   A    
O17   Zn1   S    
C8    C80   S    
C163  H103  S    
C31   C143  S    
O31   Zn7   S    
C164  H106  S    
C147  H55   S    
