data_mof_unit_51893.cif
_audit_creation_date              2012-10-26T19:55:49-0400
_audit_creation_method            fapswitch 2.2
_symmetry_space_group_name_H-M    P1
_symmetry_Int_Tables_number       1
_space_group_crystal_system       triclinic
_cell_length_a                    10.961825
_cell_length_b                    10.860732
_cell_length_c                    9.646936
_cell_angle_alpha                 89.682277
_cell_angle_beta                  91.369979
_cell_angle_gamma                 93.60918
_cell_volume                      1145.88603897

loop_
_atom_site_label
_atom_site_type_symbol
_atom_type_description
_atom_site_fract_x
_atom_site_fract_y
_atom_site_fract_z
_atom_type_partial_charge
C1    C     C_R   0.506069 0.262624 0.501768 0.567337
C2    C     C_R   0.928817 0.681334 0.946259 -0.107752
C3    C     C_R   0.878870 0.596723 0.040686 -0.114381
C4    C     C_R   0.262358 0.497368 0.498028 0.541675
C5    C     C_R   0.837875 0.478026 0.998215 -0.118662
C6    C     C_R   0.852296 0.440015 0.861013 0.099420
C7    C     C_R   0.900527 0.528212 0.764417 0.021823
C8    C     C_R   0.522443 0.112474 0.767912 -0.097266
C9    C     C_R   0.485818 0.049439 0.887397 -0.141852
C10   C     C_R   0.426122 0.933452 0.876805 -0.121367
C11   C     C_R   0.414244 0.875420 0.748375 -0.092853
C12   C     C_R   0.208873 0.568831 0.975602 -0.096328
C13   C     C_R   0.462909 0.933594 0.628004 0.023982
C14   C     C_R   0.499246 0.060213 0.634507 0.031839
C15   C     C_R   0.510341 0.127808 0.507535 0.009141
C16   C     C_R   0.490146 0.736463 0.499986 0.531363
C17   C     C_R   0.510093 0.064215 0.381589 -0.158495
C18   C     C_R   0.499407 0.936808 0.379571 -0.169867
C19   C     C_R   0.478452 0.870032 0.502068 -0.009770
C20   C     C_R   0.632572 0.690517 0.144636 -0.102470
C21   C     C_R   0.681071 0.793476 0.073735 -0.186234
C22   C     C_R   0.681915 0.792472 0.930471 -0.145668
C23   C     C_R   0.929592 0.475187 0.378725 -0.150731
C24   C     C_R   0.634912 0.688293 0.859522 -0.063391
C25   C     C_R   0.563958 0.594039 0.926542 0.145902
C26   C     C_R   0.563290 0.594563 0.075454 0.152639
C27   C     C_R   0.442542 0.407774 0.072743 0.009177
C28   C     C_R   0.737610 0.497299 0.501902 0.558749
C29   C     C_R   0.442358 0.407958 0.925153 -0.017261
C30   C     C_R   0.208043 0.660333 0.076314 -0.097798
C31   C     C_R   0.157654 0.633187 0.204983 -0.056377
C32   C     C_R   0.109371 0.513282 0.234365 0.055630
C33   C     C_R   0.109646 0.421501 0.132916 -0.083863
C34   C     C_R   0.871330 0.488056 0.504847 0.029254
C35   C     C_R   0.158922 0.449584 0.003461 -0.114973
C36   C     C_2   0.822346 0.307882 0.825747 0.555572
C37   C     C_R   0.943797 0.493955 0.627915 0.016158
C38   C     C_R   0.069327 0.486024 0.620924 -0.141610
C39   C     C_R   0.127987 0.489775 0.494699 -0.011316
C40   C     C_R   0.056591 0.486854 0.370980 -0.036723
C41   C     C_R   0.936322 0.648615 0.808224 -0.143611
Cu1   Cu    Cu3+1 0.499990 0.499990 0.640660 0.920489
Cu2   Cu    Cu3+1 0.500010 0.500010 0.359340 0.933296
H1    H     H_    0.249027 0.590707 0.876527 0.125506
H2    H     H_    0.393847 0.332797 0.126384 0.115671
H3    H     H_    0.244981 0.752610 0.054412 0.087557
H4    H     H_    0.660648 0.684680 0.250976 0.177357
H5    H     H_    0.729701 0.868138 0.129927 0.123981
H6    H     H_    0.730862 0.866524 0.875302 0.126917
H7    H     H_    0.663269 0.680837 0.754951 0.181852
H8    H     H_    0.393171 0.333374 0.869719 0.115156
H9    H     H_    0.156692 0.705180 0.282161 0.094736
H10   H     H_    0.071703 0.328999 0.153959 0.119361
H11   H     H_    0.159717 0.378365 0.925606 0.104742
H12   H     H_    0.870715 0.625322 0.146761 0.112344
H13   H     H_    0.875896 0.463775 0.284767 0.127588
H14   H     H_    0.122297 0.487523 0.716380 0.129809
H15   H     H_    0.977111 0.715320 0.736279 0.107205
H16   H     H_    0.960167 0.773093 0.979901 0.115770
H17   H     H_    0.780238 0.135060 0.895797 0.330006
H18   H     H_    0.797141 0.414760 0.073376 0.153280
H19   H     H_    0.520268 0.112889 0.283796 0.136205
H20   H     H_    0.573388 0.199343 0.783959 0.185337
H21   H     H_    0.502327 0.091528 0.988164 0.114451
H22   H     H_    0.393942 0.886470 0.969128 0.107950
H23   H     H_    0.365672 0.785734 0.744872 0.138427
H24   H     H_    0.507633 0.890717 0.281326 0.140246
N1    N     N_R   0.501190 0.501210 0.147910 -0.241907
N2    N     N_R   0.501230 0.501290 0.852040 -0.259140
O1    O     O_R   0.499990 0.319640 0.618810 -0.511373
O2    O     O_R   0.797421 0.222130 0.931769 -0.742148
O3    O     O_R   0.500000 0.319660 0.381240 -0.508208
O4    O     O_R   0.319640 0.500000 0.618780 -0.524263
O5    O     O_R   0.319650 0.500020 0.381210 -0.483775
O6    O     O_R   0.500000 0.680340 0.618760 -0.537404
O7    O     O_R   0.500010 0.680360 0.381190 -0.525793
O8    O     O_R   0.680350 0.499980 0.618790 -0.500059
O9    O     O_R   0.680360 0.500000 0.381220 -0.534148
O10   O     O_2   0.819659 0.273019 0.705401 -0.526064

loop_
_geom_bond_atom_site_label_1
_geom_bond_atom_site_label_2
_ccdc_geom_bond_type
Cu2   O3    S    
C27   C29   A    
C34   C37   A    
C31   H9    S    
C23   H13   S    
Cu2   O9    S    
Cu1   O6    S    
C5    C6    A    
C41   H15   S    
C30   C31   A    
C2    C41   A    
C23   C40   A    
C16   O6    A    
Cu1   O1    S    
C18   C19   A    
C27   N1    A    
C3    H12   S    
C8    C9    A    
C1    C15   S    
C28   O9    A    
C9    C10   A    
C4    O5    A    
C36   O2    S    
C21   H5    S    
C27   H2    S    
Cu2   O5    S    
C32   C40   S    
C28   C34   S    
C13   C14   A    
C9    H21   S    
C33   H10   S    
C29   N2    A    
C24   H7    S    
C1    O3    A    
C13   C19   A    
C24   C25   A    
C39   C40   A    
C2    H16   S    
Cu2   N1    S    
H17   O2    S    
C25   C26   A    
Cu1   N2    S    
C37   C38   A    
C17   H19   S    
C38   H14   S    
C31   C32   A    
C4    C39   S    
C23   C34   A    
C17   C18   A    
C7    C37   S    
C5    H18   S    
C12   C35   A    
C28   O8    A    
C4    O4    A    
C22   H6    S    
C22   C24   A    
C25   N2    A    
Cu1   Cu2   S    
C29   H8    S    
C10   H22   S    
Cu2   O7    S    
C15   C17   A    
Cu1   O4    S    
C8    C14   A    
C12   C30   A    
C16   O7    A    
C30   H3    S    
C3    C5    A    
C36   O10   D    
C11   H23   S    
C6    C7    A    
C1    O1    A    
C26   N1    A    
C32   C33   A    
C2    C3    A    
C18   H24   S    
C12   H1    S    
C11   C13   A    
C38   C39   A    
C20   C26   A    
C16   C19   S    
C33   C35   A    
C6    C36   S    
C7    C41   A    
C20   H4    S    
C10   C11   A    
C8    H20   S    
C20   C21   A    
Cu1   O8    S    
C14   C15   A    
C21   C22   A    
C35   H11   S    
