data_mof_unit_55544.cif
_audit_creation_date              2012-12-10T19:07:36-0500
_audit_creation_method            fapswitch 2.2
_symmetry_space_group_name_H-M    P1
_symmetry_Int_Tables_number       1
_space_group_crystal_system       triclinic
_cell_length_a                    10.859882
_cell_length_b                    10.971594
_cell_length_c                    9.608998
_cell_angle_alpha                 91.524892
_cell_angle_beta                  89.218041
_cell_angle_gamma                 91.104109
_cell_volume                      1144.19741332

loop_
_atom_site_label
_atom_site_type_symbol
_atom_type_description
_atom_site_fract_x
_atom_site_fract_y
_atom_site_fract_z
_atom_type_partial_charge
C1    C     C_R   0.501327 0.263039 0.498578 0.774866
C2    C     C_R   0.932948 0.515041 0.620387 0.060813
C3    C     C_3   0.928097 0.436228 0.744505 -0.507334
C4    C     C_3   0.065207 0.461473 0.756367 0.084043
C5    C     C_R   0.509048 0.067217 0.619538 -0.048928
C6    C     C_R   0.505525 0.130790 0.496589 -0.106813
C7    C     C_R   0.508095 0.061396 0.371387 -0.204063
C8    C     C_R   0.509964 0.933165 0.373696 -0.212260
C9    C     C_R   0.511448 0.871140 0.500824 -0.112971
C10   C     C_R   0.517411 0.944229 0.621484 0.030130
C11   C     C_3   0.527184 0.945160 0.777772 0.169866
C12   C     C_R   0.262338 0.500303 0.500746 0.791975
C13   C     C_3   0.511386 0.087686 0.774915 0.192494
C14   C     C_R   0.605879 0.523982 0.072932 0.247431
C15   C     C_R   0.400232 0.460203 0.074406 -0.085076
C16   C     C_R   0.400246 0.460248 0.926050 -0.015866
C17   C     C_R   0.605748 0.524384 0.925752 0.235586
C18   C     C_3   0.676949 0.640958 0.925616 -0.496270
C19   C     C_3   0.682185 0.637509 0.082882 -0.504503
C20   C     C_R   0.504482 0.737588 0.501239 0.789006
C21   C     C_R   0.737114 0.496821 0.498827 0.790255
C22   C     C_R   0.060107 0.526897 0.622385 0.060370
C23   C     C_R   0.128549 0.505051 0.500282 -0.120178
C24   C     C_R   0.065665 0.486829 0.374424 -0.220050
C25   C     C_R   0.937415 0.486583 0.371583 -0.221648
C26   C     C_R   0.870173 0.497391 0.496578 -0.075173
Cu1   Cu    Cu3+1 0.499990 0.499980 0.640670 0.958897
Cu2   Cu    Cu3+1 0.500010 0.500020 0.359330 0.929584
H1    H     H_    0.115783 0.466054 0.279845 0.161173
H2    H     H_    0.319480 0.427733 0.129639 0.143110
H3    H     H_    0.319706 0.427729 0.871200 0.171282
H4    H     H_    0.768063 0.636806 0.873131 0.195688
H5    H     H_    0.616449 0.710675 0.887409 0.257335
H6    H     H_    0.776054 0.620112 0.121492 0.188492
H7    H     H_    0.634281 0.713632 0.137477 0.211091
H8    H     H_    0.891391 0.471713 0.273228 0.152625
H9    H     H_    0.871939 0.472968 0.831954 0.201661
H10   H     H_    0.906081 0.339292 0.716372 0.168639
H11   H     H_    0.124848 0.381238 0.750250 0.152121
H12   H     H_    0.508515 0.105720 0.272486 0.149544
H13   H     H_    0.510676 0.882918 0.276117 0.148381
N1    N     N_R   0.500790 0.500930 0.147930 -0.189605
N2    N     N_R   0.500790 0.500890 0.852020 -0.189276
O1    O     O_R   0.500000 0.319640 0.618810 -0.587937
O2    O     O_R   0.500010 0.319680 0.381230 -0.584662
O3    O     O_R   0.319650 0.499970 0.618810 -0.576764
O4    O     O_R   0.319660 0.500010 0.381230 -0.594082
O5    O     O_R   0.499990 0.680320 0.618770 -0.562317
O6    O     O_R   0.500000 0.680360 0.381190 -0.589814
O7    O     O_R   0.680340 0.499990 0.618770 -0.581595
O8    O     O_R   0.680350 0.500030 0.381190 -0.587842
N3    N     N_2   0.649442 0.910664 0.824766 -0.429513
H14   H     H_    0.671635 0.937798 0.924711 0.254872
C27   C     C_3   0.754494 0.907447 0.729659 -0.643519
H15   H     H_    0.837771 0.880850 0.786540 0.202913
H16   H     H_    0.772033 0.998390 0.684721 0.236871
H17   H     H_    0.738678 0.838143 0.645253 0.224252
C28   C     C_R   0.387888 0.133323 0.838217 0.134627
C29   C     C_R   0.367283 0.130897 0.983539 -0.134363
C30   C     C_R   0.249943 0.146349 0.041795 -0.151335
C31   C     C_R   0.149105 0.159406 0.956015 -0.128207
C32   C     C_R   0.166240 0.160821 0.812236 -0.172917
C33   C     C_R   0.284398 0.152283 0.753764 -0.165201
H18   H     H_    0.439411 0.107434 0.052476 0.120527
H19   H     H_    0.236576 0.142712 0.153464 0.130574
H20   H     H_    0.057540 0.167458 0.000809 0.128931
H21   H     H_    0.087432 0.168256 0.745414 0.123553
H22   H     H_    0.291645 0.151958 0.641672 0.118514
N4    N     N_2   0.622326 0.159199 0.813173 -0.405504
H23   H     H_    0.658054 0.218290 0.740822 0.271359
C34   C     C_3   0.646644 0.197103 0.955694 -0.704009
H24   H     H_    0.581027 0.267859 0.990792 0.229628
H25   H     H_    0.741127 0.237267 0.962136 0.214834
H26   H     H_    0.642120 0.118825 0.025938 0.210230
N5    N     N_2   0.093603 0.545711 0.870541 -0.389625
H27   H     H_    0.047160 0.626658 0.867427 0.257545
C35   C     C_3   0.086038 0.494576 0.006894 -0.756060
H28   H     H_    0.988375 0.482870 0.040244 0.218573
H29   H     H_    0.133320 0.558202 0.080731 0.231765
H30   H     H_    0.131573 0.405232 0.008123 0.232624
C36   C     C_R   0.420304 0.876145 0.849263 0.098478
C37   C     C_R   0.304833 0.861084 0.783918 -0.101199
C38   C     C_R   0.200362 0.826212 0.859900 -0.090006
C39   C     C_R   0.209583 0.799963 0.000471 -0.100274
C40   C     C_R   0.323768 0.806955 0.064764 -0.112792
C41   C     C_R   0.427830 0.846835 0.990489 -0.162267
H31   H     H_    0.292482 0.884869 0.676599 0.104193
H32   H     H_    0.111573 0.822707 0.810053 0.103160
H33   H     H_    0.127968 0.775248 0.059886 0.117910
H34   H     H_    0.330535 0.785925 0.173708 0.142097
H35   H     H_    0.512816 0.860719 0.045196 0.097327

loop_
_geom_bond_atom_site_label_1
_geom_bond_atom_site_label_2
_ccdc_geom_bond_type
Cu1   O5    S    
C21   C26   S    
Cu2   O4    S    
C36   C37   A    
C7    C8    A    
C35   H28   S    
C11   C36   S    
C16   H3    S    
C8    H13   S    
C12   C23   S    
C29   H18   S    
C32   C33   A    
C32   H21   S    
C41   H35   S    
C5    C6    A    
Cu2   O8    S    
C15   C16   A    
C18   C19   S    
N4    C34   S    
C24   H1    S    
C4    N5    S    
C11   N3    S    
C9    C20   S    
C33   H22   S    
Cu1   O1    S    
C3    H10   S    
C8    C9    A    
C2    C22   A    
C23   C24   A    
C9    C10   A    
C5    C13   S    
C36   C41   A    
Cu1   O7    S    
C14   N1    A    
C38   H32   S    
C29   C30   A    
C14   C17   A    
N4    H23   S    
C12   O4    A    
C31   H20   S    
C21   O7    A    
N3    C27   S    
C35   H29   S    
C27   H16   S    
Cu2   O2    S    
C1    C6    S    
C24   C25   A    
C12   O3    A    
C34   H25   S    
C13   C28   S    
C28   C29   A    
C40   C41   A    
C30   C31   A    
N5    H27   S    
C17   N2    A    
C20   O6    A    
C4    C22   S    
Cu2   O6    S    
C1    O1    A    
C38   C39   A    
C4    H11   S    
C7    H12   S    
C17   C18   S    
C2    C26   A    
C39   C40   A    
N5    C35   S    
C16   N2    A    
C20   O5    A    
Cu1   O3    S    
C30   H19   S    
C18   H4    S    
C39   H33   S    
C3    C4    S    
C21   O8    A    
N3    H14   S    
C15   H2    S    
C35   H30   S    
C28   C33   A    
C27   H15   S    
C14   C19   S    
C15   N1    A    
C19   H6    S    
C34   H26   S    
C40   H34   S    
C6    C7    A    
C2    C3    S    
C25   C26   A    
C5    C10   A    
C19   H7    S    
C11   C13   S    
C1    O2    A    
C13   N4    S    
Cu2   N1    S    
C31   C32   A    
C18   H5    S    
C10   C11   S    
C25   H8    S    
Cu1   N2    S    
C34   H24   S    
C3    H9    S    
C37   C38   A    
Cu1   Cu2   S    
C22   C23   A    
C37   H31   S    
C27   H17   S    
