data_mof_unit_45779.cif
_audit_creation_date              2012-12-10T17:11:30-0500
_audit_creation_method            fapswitch 2.2
_symmetry_space_group_name_H-M    P1
_symmetry_Int_Tables_number       1
_space_group_crystal_system       triclinic
_cell_length_a                    15.141361
_cell_length_b                    13.078796
_cell_length_c                    11.655672
_cell_angle_alpha                 99.697632
_cell_angle_beta                  93.871101
_cell_angle_gamma                 90.328483
_cell_volume                      2269.66445287

loop_
_atom_site_label
_atom_site_type_symbol
_atom_type_description
_atom_site_fract_x
_atom_site_fract_y
_atom_site_fract_z
_atom_type_partial_charge
C1    C     C_R   0.498001 0.299002 0.478793 0.829112
C2    C     C_R   0.500521 0.701024 0.521215 0.828614
C3    C     C_R   0.042112 0.311065 0.463098 -0.212259
C4    C     C_R   0.956832 0.688337 0.522931 -0.214576
C5    C     C_R   0.498608 0.814351 0.533254 -0.006695
C6    C     C_R   0.496244 0.185665 0.466592 -0.014923
C7    C     C_R   0.499807 0.016100 0.345040 -0.269229
C8    C     C_R   0.493366 0.983961 0.654863 -0.271064
C9    C     C_R   0.500677 0.123769 0.356355 -0.193150
C10   C     C_R   0.496506 0.876311 0.643929 -0.164441
C11   C     C_R   0.490989 0.138618 0.565649 -0.267411
C12   C     C_R   0.498660 0.861320 0.433590 -0.269993
C13   C     C_R   0.493266 0.030848 0.555407 0.147466
C14   C     C_R   0.496975 0.969081 0.444066 0.158430
C15   C     C_R   0.419016 0.398241 0.021931 -0.110229
C16   C     C_R   0.580580 0.602421 0.977927 -0.109924
C17   C     C_R   0.427476 0.408518 0.144413 0.031484
C18   C     C_R   0.573227 0.590711 0.855324 0.029822
C19   C     C_R   0.533586 0.544347 0.157743 0.015667
C20   C     C_R   0.466155 0.456118 0.842311 0.014701
C21   C     C_R   0.528247 0.538316 0.034606 -0.004052
C22   C     C_R   0.470004 0.463879 0.965601 -0.004858
C23   C     C_R   0.328938 0.499291 0.500026 0.841034
C24   C     C_R   0.671136 0.499836 0.499905 0.847282
C25   C     C_R   0.814569 0.594563 0.506362 -0.081760
C26   C     C_R   0.184027 0.404893 0.469213 -0.086570
C27   C     C_R   0.767996 0.500494 0.500194 -0.149671
C28   C     C_R   0.232343 0.499098 0.499226 -0.147471
C29   C     C_R   0.814158 0.408144 0.503965 -0.090413
C30   C     C_R   0.187974 0.593568 0.524279 -0.083763
C31   C     C_R   0.905615 0.405793 0.489151 0.075542
C32   C     C_R   0.094660 0.594317 0.515226 0.073549
C33   C     C_R   0.952951 0.499918 0.493787 0.040922
C34   C     C_R   0.046387 0.499545 0.493897 0.040054
C35   C     C_R   0.907680 0.594926 0.506481 0.075634
C36   C     C_R   0.091233 0.404435 0.474961 0.072759
C37   C     C_R   0.951367 0.311981 0.474282 -0.212509
C38   C     C_R   0.048406 0.688079 0.529139 -0.213987
Cu1   Cu    Cu3+1 0.506660 0.507730 0.615930 0.948156
Cu2   Cu    Cu3+1 0.493340 0.492270 0.384070 0.946017
H1    H     H_    0.917115 0.238296 0.468435 0.154224
H2    H     H_    0.082258 0.762685 0.544470 0.166672
H3    H     H_    0.073554 0.236362 0.449114 0.163629
H4    H     H_    0.925379 0.763059 0.534033 0.165078
H5    H     H_    0.501186 0.814268 0.347935 0.148324
H6    H     H_    0.487120 0.185757 0.651061 0.157434
H7    H     H_    0.496503 0.841643 0.722002 0.154910
H8    H     H_    0.504070 0.158464 0.278670 0.154052
H9    H     H_    0.501471 0.969752 0.258993 0.131886
H10   H     H_    0.491140 0.030389 0.740869 0.138910
H11   H     H_    0.423116 0.399423 0.786905 0.140405
H12   H     H_    0.578384 0.599245 0.212865 0.143401
H13   H     H_    0.612578 0.639686 0.811561 0.128919
H14   H     H_    0.388898 0.358579 0.187884 0.136431
N1    N     N_R   0.516670 0.519360 0.790130 -0.189339
N2    N     N_R   0.483330 0.480640 0.209870 -0.191830
O1    O     O_R   0.504720 0.354460 0.582000 -0.587567
O2    O     O_R   0.495280 0.645540 0.418000 -0.596212
O3    O     O_R   0.493480 0.341410 0.386200 -0.596056
O4    O     O_R   0.506520 0.658590 0.613800 -0.591730
O5    O     O_R   0.375880 0.506510 0.597910 -0.587069
O6    O     O_R   0.624120 0.493490 0.402090 -0.582048
O7    O     O_R   0.364640 0.493450 0.402110 -0.585318
O8    O     O_R   0.635360 0.506550 0.597890 -0.587504
C39   C     C_R   0.767889 0.693032 0.535310 0.091910
C40   C     C_R   0.751963 0.757079 0.451444 -0.165097
C41   C     C_R   0.719942 0.856644 0.484871 -0.141996
C42   C     C_R   0.702993 0.891294 0.601190 -0.095333
C43   C     C_R   0.716295 0.826676 0.684250 -0.153693
C44   C     C_R   0.749054 0.727605 0.651547 -0.133693
H15   H     H_    0.767156 0.731097 0.361878 0.152529
H16   H     H_    0.708799 0.907186 0.421142 0.127500
H17   H     H_    0.677496 0.967261 0.626825 0.132585
H18   H     H_    0.702025 0.853748 0.773949 0.132120
H19   H     H_    0.762091 0.678837 0.717061 0.122665
C45   C     C_R   0.229230 0.307387 0.426625 0.102680
C46   C     C_R   0.236718 0.276707 0.306389 -0.125563
C47   C     C_R   0.266553 0.177678 0.263321 -0.162352
C48   C     C_R   0.287748 0.108687 0.339960 -0.098957
C49   C     C_R   0.282328 0.140095 0.460005 -0.129456
C50   C     C_R   0.254012 0.239517 0.503554 -0.186137
H20   H     H_    0.217089 0.328358 0.246048 0.130651
H21   H     H_    0.271560 0.153759 0.170494 0.138896
H22   H     H_    0.309207 0.031311 0.306404 0.126150
H23   H     H_    0.300006 0.087680 0.519582 0.132011
H24   H     H_    0.248188 0.262280 0.596268 0.139968
C51   C     C_R   0.357612 0.317462 0.956346 0.090033
C52   C     C_R   0.375394 0.212173 0.955975 -0.166743
C53   C     C_R   0.317299 0.135572 0.894498 -0.158239
C54   C     C_R   0.240784 0.163589 0.834072 -0.120800
C55   C     C_R   0.222157 0.268323 0.835295 -0.147114
C56   C     C_R   0.280378 0.345191 0.896079 -0.157823
H25   H     H_    0.434401 0.189556 0.002664 0.118170
H26   H     H_    0.331602 0.054547 0.893917 0.117180
H27   H     H_    0.195851 0.104192 0.786522 0.124249
H28   H     H_    0.162756 0.289943 0.788756 0.130968
H29   H     H_    0.265390 0.426109 0.896331 0.126489
C57   C     C_R   0.643893 0.681565 0.042437 0.091429
C58   C     C_R   0.734987 0.670797 0.028669 -0.157875
C59   C     C_R   0.794936 0.747479 0.085628 -0.135622
C60   C     C_R   0.764254 0.835856 0.155310 -0.127016
C61   C     C_R   0.673619 0.847522 0.168374 -0.153733
C62   C     C_R   0.613436 0.770587 0.112497 -0.162638
H30   H     H_    0.759413 0.603124 0.973837 0.118256
H31   H     H_    0.865117 0.738665 0.075216 0.127736
H32   H     H_    0.810660 0.895374 0.199075 0.122124
H33   H     H_    0.650192 0.916499 0.221443 0.123809
H34   H     H_    0.543281 0.780822 0.122559 0.114615
C63   C     C_R   0.773121 0.327722 0.558930 0.110155
C64   C     C_R   0.740784 0.233810 0.493590 -0.187121
C65   C     C_R   0.702033 0.160570 0.549835 -0.131337
C66   C     C_R   0.693236 0.182199 0.670478 -0.112429
C67   C     C_R   0.725214 0.275797 0.735492 -0.128849
C68   C     C_R   0.765764 0.348059 0.680186 -0.094414
H35   H     H_    0.745548 0.217597 0.400011 0.126742
H36   H     H_    0.676670 0.088449 0.498963 0.136712
H37   H     H_    0.660315 0.127906 0.714269 0.115637
H38   H     H_    0.718184 0.292553 0.828553 0.122089
H39   H     H_    0.790386 0.420764 0.731435 0.115391
C69   C     C_R   0.237815 0.692330 0.561400 0.101787
C70   C     C_R   0.256016 0.754411 0.478578 -0.169416
C71   C     C_R   0.281772 0.858057 0.515023 -0.132411
C72   C     C_R   0.290083 0.899659 0.634012 -0.107387
C73   C     C_R   0.276420 0.836576 0.716866 -0.161934
C74   C     C_R   0.250046 0.733070 0.680766 -0.119860
H40   H     H_    0.245508 0.724192 0.386227 0.133300
H41   H     H_    0.293958 0.906161 0.450764 0.127818
H42   H     H_    0.308466 0.980334 0.662387 0.129332
H43   H     H_    0.283940 0.868548 0.808908 0.118736
H44   H     H_    0.234768 0.686211 0.745364 0.125718

loop_
_geom_bond_atom_site_label_1
_geom_bond_atom_site_label_2
_ccdc_geom_bond_type
C19   N2    A    
C51   C52   A    
C8    C13   A    
C27   C29   A    
C65   C66   A    
C24   C27   S    
C6    C9    A    
C72   H42   S    
C72   C73   A    
C46   C47   A    
Cu1   O8    S    
C3    H3    S    
C59   H31   S    
C16   C21   A    
Cu2   O7    S    
C3    C36   A    
C29   C63   S    
C19   C21   A    
C38   H2    S    
C20   H11   S    
C1    O3    A    
C66   H37   S    
C2    O4    A    
C57   C62   A    
Cu1   O1    S    
C71   H41   S    
Cu2   O6    S    
C15   C17   A    
C41   H16   S    
C53   H26   S    
C64   C65   A    
C18   H13   S    
C55   H28   S    
C19   H12   S    
C15   C22   A    
Cu1   N1    S    
C58   C59   A    
C42   C43   A    
Cu2   N2    S    
C26   C45   S    
C31   C33   A    
C65   H36   S    
C32   C38   A    
C50   H24   S    
C23   O7    A    
C58   H30   S    
C4    C35   A    
C24   O8    A    
Cu2   O3    S    
C21   C22   A    
C61   C62   A    
C20   N1    A    
C47   H21   S    
C66   C67   A    
C56   H29   S    
C7    C14   A    
Cu1   O5    S    
Cu2   O2    S    
C41   C42   A    
C60   C61   A    
C43   H18   S    
C25   C39   S    
C45   C46   A    
C7    H9    S    
C5    C12   A    
C55   C56   A    
C69   C74   A    
C49   C50   A    
C4    H4    S    
C42   H17   S    
C31   C37   A    
C32   C34   A    
C49   H23   S    
C1    O1    A    
C40   H15   S    
C23   O5    A    
C33   C34   A    
C61   H33   S    
C16   C18   A    
C23   C28   S    
C17   N2    A    
C70   C71   A    
C62   H34   S    
C18   N1    A    
C25   C35   A    
C63   C68   A    
C26   C36   A    
C12   C14   A    
C57   C58   A    
C48   C49   A    
C2    C5    S    
C8    H10   S    
C6    C11   A    
C51   C56   A    
C69   C70   A    
C15   C51   S    
C67   C68   A    
C60   H32   S    
C7    C9    A    
C52   H25   S    
C24   O6    A    
C1    C6    S    
C47   C48   A    
C68   H39   S    
C20   C22   A    
C12   H5    S    
C11   H6    S    
C54   H27   S    
C45   C50   A    
C2    O2    A    
C25   C27   A    
C26   C28   A    
C28   C30   A    
C53   C54   A    
C5    C10   A    
C29   C31   A    
C63   C64   A    
C30   C32   A    
C11   C13   A    
C16   C57   S    
C54   C55   A    
C48   H22   S    
C30   C69   S    
C46   H20   S    
Cu1   O4    S    
C64   H35   S    
C59   C60   A    
C33   C35   A    
C73   H43   S    
C40   C41   A    
C34   C36   A    
C37   H1    S    
C43   C44   A    
C74   H44   S    
C67   H38   S    
Cu1   Cu2   S    
C70   H40   S    
C52   C53   A    
C3    C37   A    
C9    H8    S    
C8    C10   A    
C39   C40   A    
C10   H7    S    
C44   H19   S    
C4    C38   A    
C71   C72   A    
C13   C14   A    
C17   H14   S    
C39   C44   A    
C73   C74   A    
