data_mof_unit_36413.cif
_audit_creation_date              2012-12-11T16:33:26-0500
_audit_creation_method            fapswitch 2.2
_symmetry_space_group_name_H-M    P1
_symmetry_Int_Tables_number       1
_space_group_crystal_system       triclinic
_cell_length_a                    6.954736
_cell_length_b                    18.36606
_cell_length_c                    20.081522
_cell_angle_alpha                 68.595506
_cell_angle_beta                  90.969585
_cell_angle_gamma                 90.756102
_cell_volume                      2387.70737526

loop_
_atom_site_label
_atom_site_type_symbol
_atom_type_description
_atom_site_fract_x
_atom_site_fract_y
_atom_site_fract_z
_atom_type_partial_charge
O1    O     O_R   0.488960 0.443750 0.941980 -0.531225
O2    O     O_R   0.823890 0.406510 0.087590 -0.544419
O3    O     O_R   0.999680 0.556250 0.058020 -0.525476
C1    C     C_R   0.654378 0.380748 0.112736 0.726827
O4    O     O_R   0.818360 0.434410 0.944340 -0.545660
O5    O     O_R   0.994110 0.584350 0.913750 -0.523752
C2    C     C_R   0.648462 0.421177 0.923146 0.764245
O6    O     O_R   0.494530 0.415650 0.086250 -0.543219
O7    O     O_3   0.662590 0.549160 0.990130 -0.352713
V1    V     V_3+5 0.935320 0.490880 0.001830 1.449795
O8    O     O_R   0.324180 0.593490 0.912410 -0.537637
C3    C     C_R   0.153671 0.617841 0.885819 0.740613
O9    O     O_R   0.329720 0.565590 0.055660 -0.538957
C4    C     C_R   0.163027 0.578068 0.077507 0.760158
V2    V     V_3+5 0.435990 0.509120 0.998170 1.457778
O10   O     O_3   0.158850 0.450840 0.009870 -0.379445
C5    C     C_3   0.001565 0.717653 0.300223 -0.207753
C6    C     C_3   0.180368 0.675063 0.289106 0.337208
H1    H     H_    0.888890 0.691706 0.340754 0.157150
H2    H     H_    0.453339 0.740024 0.313617 0.141679
C7    C     C_1   0.158825 0.623834 0.122972 -0.161480
C8    C     C_1   0.111514 0.872710 0.379702 -0.099460
C9    C     C_3   0.970361 0.752322 0.217590 -0.212686
C10   C     C_3   0.149041 0.708196 0.208061 0.073911
C11   C     C_3   0.101655 0.822823 0.213012 0.240000
C12   C     C_3   0.133119 0.788256 0.294719 0.073654
C13   C     C_3   0.280256 0.778484 0.202806 -0.196106
C14   C     C_3   0.312973 0.744239 0.285330 -0.172140
C15   C     C_1   0.155195 0.662063 0.161101 -0.014874
C16   C     C_1   0.121051 0.834213 0.341840 0.056981
H3    H     H_    0.393480 0.803718 0.162336 0.147884
H4    H     H_    0.830336 0.756356 0.189114 0.144910
C17   C     C_R   0.160505 0.777797 0.882633 0.005446
C18   C     C_R   0.254844 0.843930 0.886169 0.273417
C19   C     C_R   0.288528 0.907329 0.822298 0.286622
C20   C     C_R   0.214652 0.904770 0.757159 0.011074
C21   C     C_R   0.164429 0.830734 0.752267 -0.027054
C22   C     C_R   0.156934 0.764501 0.817730 -0.013866
C23   C     C_R   0.118191 0.819702 0.686655 -0.105872
C24   C     C_R   0.080541 0.743009 0.687584 0.034763
C25   C     C_R   0.096432 0.677047 0.752432 0.034846
C26   C     C_R   0.136368 0.687500 0.817693 -0.098929
C27   C     C_R   0.030413 0.730442 0.623953 -0.239713
C28   C     C_R   0.000269 0.655554 0.623628 0.207482
C29   C     C_R   0.026306 0.590492 0.686505 0.308726
C30   C     C_R   0.071257 0.601309 0.750474 -0.266685
H5    H     H_    0.013920 0.778355 0.573314 0.135622
H6    H     H_    0.088871 0.549569 0.798234 0.112357
H7    H     H_    0.629161 0.373483 0.418224 0.162436
C31   C     C_R   0.621230 0.093733 0.244263 0.077775
C32   C     C_R   0.641502 0.086773 0.177843 -0.146333
C33   C     C_R   0.614744 0.150002 0.114782 0.178875
C34   C     C_R   0.559287 0.221940 0.118222 0.212552
C35   C     C_R   0.602543 0.235450 0.182602 -0.055033
C36   C     C_R   0.612980 0.169855 0.248945 0.002373
C37   C     C_R   0.641790 0.312192 0.181431 -0.137151
C38   C     C_R   0.664898 0.324370 0.246555 0.002034
C39   C     C_R   0.619979 0.263218 0.312238 0.026311
C40   C     C_R   0.611201 0.184087 0.314894 -0.127243
C41   C     C_R   0.722665 0.398490 0.246822 -0.174562
C42   C     C_R   0.720691 0.415001 0.309403 0.318506
C43   C     C_R   0.651057 0.358243 0.371628 -0.149712
C44   C     C_R   0.589246 0.285240 0.372382 0.075060
H8    H     H_    0.668766 0.030185 0.174803 0.203491
H9    H     H_    0.770614 0.444084 0.198432 0.121671
O11   O     O_R   0.770540 0.084530 0.414050 -0.530247
O12   O     O_R   0.445710 0.065660 0.555720 -0.518894
O13   O     O_R   0.270420 0.915650 0.586190 -0.537446
C45   C     C_R   0.615413 0.078851 0.577055 0.761910
O14   O     O_R   0.441140 0.093540 0.412470 -0.522708
O15   O     O_R   0.265820 0.943740 0.441930 -0.528274
C46   C     C_R   0.608759 0.117880 0.385526 0.766598
O16   O     O_R   0.775150 0.056440 0.558310 -0.525745
O17   O     O_3   0.602370 0.950960 0.510050 -0.365944
V3    V     V_3+5 0.329450 0.009140 0.498150 1.560344
O18   O     O_R   0.935790 0.934280 0.444060 -0.529324
C47   C     C_R   0.103621 0.919586 0.424241 0.736136
O19   O     O_R   0.940370 0.906390 0.587310 -0.540440
C48   C     C_R   0.109416 0.886137 0.616667 0.728113
V4    V     V_3+5 0.828810 0.990710 0.501460 1.544037
O20   O     O_3   0.105780 0.049100 0.489960 -0.346991
C49   C     C_3   0.553390 0.321625 0.712440 -0.187156
C50   C     C_3   0.450281 0.241283 0.729615 -0.159738
H10   H     H_    0.300864 0.232402 0.713639 0.200001
H11   H     H_    0.492204 0.379814 0.681896 0.153666
H12   H     H_    0.447990 0.182389 0.856945 0.160965
C51   C     C_1   0.625671 0.124455 0.622491 -0.083296
C52   C     C_1   0.637291 0.377071 0.876306 -0.193216
C53   C     C_3   0.734675 0.288572 0.689762 0.149431
C54   C     C_3   0.631803 0.209073 0.707271 0.017743
C55   C     C_3   0.810322 0.261084 0.767444 0.274214
C56   C     C_3   0.632009 0.293904 0.790074 0.058532
C57   C     C_3   0.711196 0.181152 0.784589 0.182181
C58   C     C_3   0.529698 0.213852 0.807681 -0.188013
C59   C     C_1   0.629639 0.162539 0.660703 0.085509
C60   C     C_1   0.632319 0.340119 0.837029 -0.026609
N1    N     N_2   0.225708 0.593741 0.328127 -0.543736
H13   H     H_    0.137547 0.555549 0.314733 0.281567
C61   C     C_3   0.253264 0.571998 0.404322 -0.470160
H14   H     H_    0.310711 0.511657 0.427263 0.218357
H15   H     H_    0.113846 0.573406 0.429780 0.226931
H16   H     H_    0.357940 0.612024 0.416118 0.214317
N2    N     N_2   0.391068 0.974646 0.823545 -0.499582
H17   H     H_    0.461151 0.007588 0.777326 0.281697
C62   C     C_3   0.310039 0.019079 0.862735 -0.344992
H18   H     H_    0.267584 0.077872 0.824911 0.195154
H19   H     H_    0.418804 0.025975 0.901015 0.230831
H20   H     H_    0.182702 0.989627 0.893833 0.240073
I1    I     I_    0.134257 0.017186 0.681623 -0.359430
I2    I     I_    0.909765 0.643987 0.526696 -0.460957
I3    I     I_    0.605409 0.980890 0.325669 -0.359644
I4    I     I_    0.677780 0.130935 0.019116 -0.426341
N3    N     N_2   0.430776 0.274011 0.066155 -0.513190
H21   H     H_    0.340767 0.301494 0.089620 0.273938
C63   C     C_3   0.317260 0.246491 0.018742 -0.478028
H22   H     H_    0.191123 0.285172 0.997834 0.182693
H23   H     H_    0.262301 0.186140 0.047241 0.230527
H24   H     H_    0.402377 0.250468 0.971562 0.218250
N4    N     N_2   0.777262 0.490049 0.309303 -0.529483
H25   H     H_    0.786759 0.493712 0.359334 0.272572
C64   C     C_3   0.681607 0.556655 0.257109 -0.526629
H26   H     H_    0.720132 0.610483 0.267347 0.199869
H27   H     H_    0.523046 0.548622 0.260920 0.222511
H28   H     H_    0.728027 0.565142 0.202177 0.198793
I5    I     I_    0.369970 0.238156 0.448472 -0.347857
I6    I     I_    0.819691 0.066894 0.840084 -0.435333
N5    N     N_2   0.006235 0.275144 0.785487 -0.520562
H29   H     H_    0.046170 0.332887 0.761425 0.262995
C65   C     C_3   0.058114 0.243505 0.860578 -0.500166
H30   H     H_    0.202224 0.265950 0.868177 0.180789
H31   H     H_    0.064489 0.178887 0.879987 0.246898
H32   H     H_    0.955068 0.261639 0.892975 0.216419
I7    I     I_    0.891670 0.346055 0.593899 -0.397250
I8    I     I_    0.044279 0.942223 0.149782 -0.364324
N6    N     N_2   0.013708 0.513875 0.685115 -0.488016
H33   H     H_    0.956733 0.473259 0.730988 0.249221
C66   C     C_3   0.192513 0.487867 0.665817 -0.483812
H34   H     H_    0.303578 0.481184 0.708098 0.171571
H35   H     H_    0.244848 0.530089 0.613940 0.233636
H36   H     H_    0.169954 0.430797 0.659901 0.217259
I9    I     I_    0.927510 0.734135 0.953648 -0.445848
N7    N     N_2   0.299523 0.850282 0.953448 -0.511738
H37   H     H_    0.202681 0.824575 0.993615 0.287614
C67   C     C_3   0.495251 0.830926 0.977764 -0.436841
H38   H     H_    0.522245 0.844657 0.026584 0.203813
H39   H     H_    0.597944 0.865661 0.936144 0.253824
H40   H     H_    0.518741 0.767439 0.991094 0.201388

loop_
_geom_bond_atom_site_label_1
_geom_bond_atom_site_label_2
_ccdc_geom_bond_type
C52   C60   T    
C57   C58   S    
C36   C40   A    
C42   N4    S    
C25   C26   A    
C19   C20   A    
C10   C13   S    
C1    O6    A    
C65   H30   S    
N1    H13   S    
N6    H33   S    
C34   C35   A    
C28   C29   A    
O13   V3    S    
C65   H31   S    
C66   H35   S    
C21   C22   A    
C49   C53   S    
C55   N5    S    
C6    C10   S    
C5    C12   S    
C4    C7    S    
C20   C21   A    
C22   C26   A    
C19   N2    S    
O5    C3    A    
O19   V4    S    
C33   I4    S    
V2    O10   S    
C56   C60   S    
C49   C56   S    
C37   C38   A    
C18   C19   A    
C10   C15   S    
C64   H28   S    
C3    C26   S    
H12   C58   S    
C57   I6    S    
O8    V2    S    
N2    C62   S    
C24   C27   A    
O11   C46   A    
C50   H10   S    
C63   H23   S    
C51   C59   T    
C25   C30   A    
C45   O16   A    
O1    V2    S    
C6    N1    S    
C53   C55   S    
O7    V1    S    
C45   C51   S    
C40   C46   S    
C65   H32   S    
O13   C48   A    
O17   V4    S    
O9    C4    A    
C1    C37   S    
C67   H40   S    
N1    C61   S    
C34   N3    S    
C5    C6    S    
C30   H6    S    
N4    C64   S    
C66   H36   S    
C35   C37   A    
C29   N6    S    
C53   I7    S    
O17   V3    S    
C13   H3    S    
C32   C33   A    
C54   C59   S    
C6    C14   S    
O18   C47   A    
C67   H39   S    
C55   C56   S    
O4    C2    A    
O19   C48   A    
V3    O20   S    
C38   C41   A    
H2    C14   S    
C17   I9    S    
C11   C12   S    
C29   C30   A    
C50   C58   S    
C7    C15   T    
C41   C42   A    
O12   C45   A    
C23   C48   S    
O2    C1    A    
C27   C28   A    
N5    C65   S    
C43   C44   A    
C55   C57   S    
C62   H19   S    
C2    C52   S    
C9    C10   S    
C63   H24   S    
C56   C58   S    
C17   C18   A    
C31   C32   A    
C5    C9    S    
C62   H20   S    
C11   I8    S    
C64   H26   S    
C44   I5    S    
O3    C4    A    
C24   C25   A    
C61   H15   S    
C41   H9    S    
C12   C16   S    
O6    V2    S    
O9    V2    S    
N7    C67   S    
O12   V3    S    
N5    H29   S    
O2    V1    S    
O15   C47   A    
C33   C34   A    
C54   C57   S    
N3    H21   S    
C66   H34   S    
C39   C44   A    
N6    C66   S    
C50   C54   S    
C35   C36   A    
C18   N7    S    
H7    C43   S    
C8    C16   T    
O1    C2    A    
C32   H8    S    
O18   V4    S    
C8    C47   S    
V4    O20   S    
C20   I1    S    
O5    V1    S    
N4    H25   S    
C11   C13   S    
C49   H11   S    
O11   V4    S    
C62   H18   S    
C12   C14   S    
C31   C36   A    
C61   H14   S    
C67   H38   S    
C9    H4    S    
C39   C40   A    
O4    V1    S    
C21   C23   A    
O3    V1    S    
V1    O10   S    
O15   V3    S    
C38   C39   A    
C31   I3    S    
C5    H1    S    
O16   V4    S    
C9    C11   S    
O7    V2    S    
C42   C43   A    
C64   H27   S    
C23   C24   A    
C61   H16   S    
O14   V3    S    
C49   C50   S    
N2    H17   S    
N7    H37   S    
C17   C22   A    
O14   C46   A    
N3    C63   S    
C53   C54   S    
C27   H5    S    
C63   H22   S    
O8    C3    A    
C13   C14   S    
C28   I2    S    
