data_mof_unit_11823.cif
_audit_creation_date              2012-12-10T17:32:19-0500
_audit_creation_method            fapswitch 2.2
_symmetry_space_group_name_H-M    P1
_symmetry_Int_Tables_number       1
_space_group_crystal_system       triclinic
_cell_length_a                    12.393417
_cell_length_b                    13.18746
_cell_length_c                    15.041921
_cell_angle_alpha                 75.883286
_cell_angle_beta                  101.939585
_cell_angle_gamma                 116.969175
_cell_volume                      2111.67602971

loop_
_atom_site_label
_atom_site_type_symbol
_atom_type_description
_atom_site_fract_x
_atom_site_fract_y
_atom_site_fract_z
_atom_type_partial_charge
C1    C     C_R   0.855203 0.286415 0.504035 0.797695
C2    C     C_R   0.007970 0.594935 0.075008 0.104926
C3    C     C_R   0.959184 0.291772 0.085054 -0.229806
C4    C     C_R   0.955627 0.290375 0.992591 -0.192935
C5    C     C_R   0.972251 0.390063 0.925510 0.115846
C6    C     C_R   0.991735 0.492804 0.953557 -0.004428
C7    C     C_R   0.010066 0.594829 0.888086 0.028959
C8    C     C_R   0.025468 0.694786 0.916838 -0.247759
C9    C     C_R   0.024101 0.695720 0.009299 0.169459
C10   C     C_R   0.969389 0.389061 0.831331 0.056987
C11   C     C_R   0.995331 0.493517 0.767867 -0.065492
C12   C     C_R   0.998834 0.497819 0.670936 0.867679
C13   C     C_R   0.013788 0.595155 0.795168 0.058628
C14   C     C_R   0.264816 0.039102 0.424690 0.164596
C15   C     C_R   0.227059 0.837432 0.473734 -0.074087
C16   C     C_R   0.813614 0.074618 0.541233 0.127777
C17   C     C_R   0.730463 0.965492 0.577881 -0.128197
C18   C     C_R   0.607325 0.939339 0.570733 0.122557
C19   C     C_R   0.561245 0.015432 0.508459 0.041103
C20   C     C_R   0.645784 0.127376 0.473747 -0.031341
C21   C     C_R   0.435266 0.985249 0.480183 0.000560
C22   C     C_R   0.392758 0.071136 0.435577 0.145970
C23   C     C_R   0.144971 0.714001 0.486457 0.809695
C24   C     C_R   0.479392 0.181377 0.398345 0.127487
C25   C     C_R   0.602322 0.202518 0.410779 -0.212690
C26   C     C_R   0.351757 0.869740 0.487795 -0.265546
C27   C     C_R   0.183709 0.922561 0.446007 -0.257239
C28   C     C_R   0.772355 0.161929 0.502606 -0.110749
C29   C     C_R   0.376862 0.377908 0.674812 0.066061
C30   C     C_R   0.744113 0.630032 0.362942 0.384532
C31   C     C_R   0.636816 0.643345 0.329216 -0.255359
C32   C     C_R   0.540959 0.595661 0.381156 -0.215221
C33   C     C_R   0.549781 0.533868 0.469874 -0.021562
C34   C     C_R   0.999183 0.499453 0.329314 0.833583
C35   C     C_R   0.658317 0.514658 0.502443 0.178099
C36   C     C_R   0.452872 0.487867 0.527176 -0.106489
C37   C     C_R   0.475555 0.442947 0.620923 0.073619
C38   C     C_R   0.596456 0.459850 0.654571 0.103685
C39   C     C_R   0.664875 0.454515 0.594544 0.195052
C40   C     C_R   0.336380 0.488474 0.496481 -0.030051
C41   C     C_R   0.262358 0.378601 0.639019 0.356130
C42   C     C_R   0.007322 0.593773 0.168014 -0.312084
C43   C     C_R   0.995597 0.495413 0.233365 -0.063392
C44   C     C_R   0.980779 0.394242 0.207768 0.095218
C45   C     C_R   0.977326 0.392232 0.113910 0.084162
C46   C     C_R   0.992319 0.493332 0.047467 0.010396
Cu1   Cu    Cu3+1 0.098270 0.475420 0.521130 0.954618
Cu2   Cu    Cu3+1 0.901730 0.524580 0.478870 0.934099
H1    H     H_    0.018651 0.670123 0.190991 0.168625
H2    H     H_    0.384073 0.803660 0.501054 0.173478
H3    H     H_    0.762811 0.902549 0.618489 0.153313
H4    H     H_    0.665013 0.280645 0.372268 0.184420
H5    H     H_    0.316103 0.530976 0.428866 0.142177
H6    H     H_    0.462963 0.612907 0.350986 0.145012
H7    H     H_    0.628209 0.694149 0.261819 0.153695
H8    H     H_    0.947054 0.212815 0.133441 0.141680
H9    H     H_    0.941091 0.210063 0.974978 0.155835
H10   H     H_    0.039214 0.773546 0.867839 0.138189
H11   H     H_    0.086635 0.898709 0.436753 0.161119
N1    N     N_R   0.246280 0.438190 0.553160 -0.192122
N2    N     N_R   0.754320 0.561190 0.447410 -0.194497
O1    O     O_R   0.972510 0.318130 0.526570 -0.546148
O2    O     O_R   0.806530 0.359650 0.490890 -0.597857
O3    O     O_R   0.082980 0.479210 0.647590 -0.558201
O4    O     O_R   0.917000 0.520730 0.611900 -0.564307
O5    O     O_R   0.193470 0.640350 0.509110 -0.589790
O6    O     O_R   0.027490 0.681870 0.473430 -0.590858
O7    O     O_R   0.083000 0.479270 0.388100 -0.571646
O8    O     O_R   0.917020 0.520790 0.352410 -0.598391
C47   C     C_3   0.445833 0.276361 0.340923 -0.796733
H12   H     H_    0.526183 0.352914 0.313608 0.218521
H13   H     H_    0.379641 0.244923 0.280721 0.240602
H14   H     H_    0.407578 0.306915 0.383887 0.258414
N3    N     N_3   0.215549 0.122799 0.393686 -0.614506
H15   H     H_    0.166707 0.117362 0.444963 0.223318
H16   H     H_    0.154385 0.101200 0.334635 0.211891
C48   C     C_3   0.944441 0.094824 0.547784 -0.834683
H17   H     H_    0.952877 0.012121 0.559001 0.207886
H18   H     H_    0.983467 0.146933 0.482602 0.249473
H19   H     H_    0.997159 0.138851 0.606640 0.249241
N4    N     N_3   0.537770 0.844310 0.636717 -0.606294
H20   H     H_    0.464146 0.853949 0.650736 0.236871
H21   H     H_    0.509880 0.766528 0.613771 0.221020
N5    N     N_3   0.162915 0.320581 0.694001 -0.536120
H22   H     H_    0.141632 0.232587 0.709912 0.178559
H23   H     H_    0.190627 0.353099 0.755756 0.220272
C49   C     C_3   0.653703 0.478008 0.751501 -0.836874
H24   H     H_    0.739866 0.558185 0.748455 0.234787
H25   H     H_    0.594127 0.489505 0.790236 0.245186
H26   H     H_    0.675825 0.404954 0.789153 0.236076
C50   C     C_3   0.386793 0.298346 0.764824 -0.914875
H27   H     H_    0.468525 0.281635 0.774839 0.256048
H28   H     H_    0.386124 0.334634 0.823873 0.237186
H29   H     H_    0.310214 0.211348 0.765330 0.223480
N6    N     N_3   0.966873 0.294416 0.277840 -0.604218
H30   H     H_    0.882209 0.227016 0.263322 0.210121
H31   H     H_    0.036011 0.269980 0.277278 0.221982
C51   C     C_3   0.843053 0.696333 0.299776 -0.804293
H32   H     H_    0.820058 0.652921 0.239368 0.224465
H33   H     H_    0.849020 0.784989 0.273762 0.184149
H34   H     H_    0.934838 0.709687 0.331403 0.260833
C52   C     C_3   0.661018 0.335020 0.612847 -0.748900
H35   H     H_    0.599596 0.273959 0.665626 0.193728
H36   H     H_    0.620613 0.295403 0.550451 0.241595
H37   H     H_    0.750727 0.335222 0.640552 0.238978
C53   C     C_3   0.932874 0.276006 0.799084 -0.888038
H38   H     H_    0.925159 0.283594 0.723355 0.238959
H39   H     H_    0.000488 0.240356 0.830362 0.233757
H40   H     H_    0.841877 0.212955 0.820211 0.230524
N7    N     N_3   0.037295 0.698225 0.726929 -0.593578
H41   H     H_    0.968884 0.725306 0.722876 0.218434
H42   H     H_    0.121800 0.762697 0.746445 0.215168
N8    N     N_3   0.040133 0.799289 0.036772 -0.604496
H43   H     H_    0.127461 0.833633 0.072045 0.210259
H44   H     H_    0.037509 0.861542 0.979072 0.213346

loop_
_geom_bond_atom_site_label_1
_geom_bond_atom_site_label_2
_ccdc_geom_bond_type
C16   C28   A    
C21   C26   A    
C40   N1    A    
N6    H30   S    
C19   C20   A    
C29   C50   S    
Cu2   O8    S    
C49   H24   S    
C1    O1    A    
C17   H3    S    
Cu1   O1    S    
N4    H20   S    
C24   C47   S    
C7    C8    A    
C48   H17   S    
C2    C46   A    
C13   N7    S    
N3    H16   S    
C14   N3    S    
C23   O5    A    
C36   C37   A    
C19   C21   A    
N5    H23   S    
C18   C19   A    
C26   H2    S    
C5    C6    A    
C12   O3    A    
C53   H38   S    
C33   C36   A    
C52   H37   S    
C16   C48   S    
C23   O6    A    
N7    H41   S    
C8    H10   S    
Cu1   N1    S    
C31   C32   A    
C8    C9    A    
C4    H9    S    
C1    C28   S    
C47   H12   S    
C14   C27   A    
Cu1   O5    S    
C15   C23   S    
C21   C22   A    
C1    O2    A    
C32   H6    S    
N4    H21   S    
C48   H18   S    
C38   C39   A    
N3    H15   S    
C30   N2    A    
C36   C40   A    
C24   C25   A    
C34   O7    A    
Cu1   O3    S    
C16   C17   A    
C15   C26   A    
C20   C28   A    
C45   C46   A    
C41   N5    S    
C3    C45   A    
C35   C39   A    
C43   C44   A    
C37   C38   A    
C50   H28   S    
C3    H8    S    
C15   C27   A    
Cu1   Cu2   S    
C47   H14   S    
C17   C18   A    
C35   N2    A    
N5    H22   S    
C52   H36   S    
C34   O8    A    
C40   H5    S    
C51   H33   S    
C18   N4    S    
C49   H25   S    
Cu2   O4    S    
C22   C24   A    
C10   C53   S    
C42   C43   A    
C3    C4    A    
Cu1   O7    S    
C50   H27   S    
C44   C45   A    
C39   C52   S    
N8    H43   S    
C48   H19   S    
C6    C46   A    
C29   C41   A    
C34   C43   S    
C41   N1    A    
C4    C5    A    
Cu2   O2    S    
C11   C12   S    
N6    H31   S    
C6    C7    A    
C51   H34   S    
C12   O4    A    
C30   C51   S    
C38   C49   S    
C9    N8    S    
C32   C33   A    
C14   C22   A    
C25   H4    S    
C5    C10   A    
C44   N6    S    
C27   H11   S    
C50   H29   S    
C11   C13   A    
Cu2   N2    S    
C30   C31   A    
C53   H39   S    
C2    C42   A    
C33   C35   A    
Cu2   O6    S    
C52   H35   S    
N7    H42   S    
C10   C11   A    
C42   H1    S    
C7    C13   A    
C51   H32   S    
C20   C25   A    
C49   H26   S    
C29   C37   A    
C47   H13   S    
C31   H7    S    
C2    C9    A    
N8    H44   S    
C53   H40   S    
