data_mof_unit_37671.cif
_audit_creation_date              2012-12-10T16:35:08-0500
_audit_creation_method            fapswitch 2.2
_symmetry_space_group_name_H-M    P1
_symmetry_Int_Tables_number       1
_space_group_crystal_system       triclinic
_cell_length_a                    10.865982
_cell_length_b                    10.839119
_cell_length_c                    10.86633
_cell_angle_alpha                 81.390656
_cell_angle_beta                  98.049911
_cell_angle_gamma                 90.237176
_cell_volume                      1252.73652968

loop_
_atom_site_label
_atom_site_type_symbol
_atom_type_description
_atom_site_fract_x
_atom_site_fract_y
_atom_site_fract_z
_atom_type_partial_charge
C1    C     C_R   0.834664 0.472689 0.526687 0.698577
C2    C     C_2   0.461714 0.031153 0.520170 -0.449792
C3    C     C_2   0.540772 0.967434 0.467618 0.363513
C4    C     C_2   0.030254 0.538129 0.469396 -0.434532
C5    C     C_3   0.693789 0.969222 0.337792 0.112752
C6    C     C_3   0.799357 0.047693 0.291961 -0.783709
C7    C     C_3   0.963277 0.293044 0.708542 0.113723
C8    C     C_3   0.044520 0.190146 0.791013 -0.787094
C9    C     C_3   0.428341 0.737359 0.933683 0.068170
C10   C     C_3   0.330158 0.825279 0.851018 -0.302892
C11   C     C_3   0.372245 0.960529 0.838698 -0.969459
C12   C     C_2   0.967781 0.454990 0.540942 0.377005
C13   C     C_3   0.698619 0.302599 0.987919 0.085369
C14   C     C_3   0.629678 0.181864 0.968044 -0.378678
C15   C     C_3   0.707966 0.095167 0.910482 -0.971687
C16   C     C_2   0.469725 0.534981 0.023764 0.177236
C17   C     C_2   0.539846 0.457739 0.973802 0.249480
C18   C     C_R   0.164246 0.526935 0.473407 0.916620
C19   C     C_R   0.525133 0.471189 0.838385 0.802817
C20   C     C_R   0.477433 0.527087 0.160235 0.797205
C21   C     C_R   0.524048 0.834515 0.477049 0.711686
C22   C     C_R   0.476161 0.164224 0.522161 0.913246
H1    H     H_    0.383777 0.984950 0.559402 0.120788
H2    H     H_    0.134420 0.228874 0.828691 0.264222
H3    H     H_    0.996724 0.148687 0.870884 0.197468
H4    H     H_    0.062839 0.115901 0.735356 0.255522
H5    H     H_    0.514359 0.741533 0.888211 0.142540
H6    H     H_    0.449517 0.770054 0.026647 0.153122
H7    H     H_    0.311710 0.797126 0.755946 0.213015
H8    H     H_    0.242233 0.818206 0.892857 0.238394
H9    H     H_    0.389796 0.991304 0.932533 0.265235
H10   H     H_    0.298719 0.021787 0.778748 0.279726
H11   H     H_    0.458385 0.970353 0.794303 0.270014
H12   H     H_    0.981760 0.617127 0.408574 0.107276
H13   H     H_    0.787799 0.276799 0.049886 0.170301
H14   H     H_    0.726096 0.352241 0.899049 0.114726
H15   H     H_    0.608333 0.133231 0.059854 0.235304
H16   H     H_    0.540445 0.203187 0.905109 0.237065
H17   H     H_    0.722648 0.138651 0.814525 0.261123
H18   H     H_    0.659587 0.005542 0.904193 0.268624
H19   H     H_    0.799486 0.074926 0.969847 0.260984
H20   H     H_    0.618112 0.968959 0.257171 0.116168
H21   H     H_    0.730233 0.872495 0.371552 0.131294
H22   H     H_    0.878323 0.045544 0.369194 0.258517
H23   H     H_    0.831664 0.010185 0.212154 0.193813
H24   H     H_    0.767005 0.145842 0.260440 0.276651
H25   H     H_    0.874706 0.250956 0.671649 0.139304
H26   H     H_    0.944120 0.364194 0.767920 0.128699
O1    O     O_3   0.500000 0.500000 0.500000 -0.500388
O2    O     O_R   0.597340 0.765700 0.560080 -0.628351
O3    O     O_R   0.548200 0.222430 0.451790 -0.577424
O4    O     O_R   0.441590 0.789440 0.401000 -0.661681
O5    O     O_R   0.412860 0.222430 0.587130 -0.654494
O6    O     O_3   0.651478 0.021068 0.436393 -0.576094
O7    O     O_3   0.026294 0.345880 0.608476 -0.576456
O8    O     O_3   0.381721 0.614872 0.946663 -0.653257
O9    O     O_3   0.630439 0.378390 0.051052 -0.641827
O10   O     O_R   0.441590 0.410520 0.779910 -0.641867
O11   O     O_R   0.548210 0.443940 0.230290 -0.595893
O12   O     O_R   0.787780 0.544200 0.591150 -0.660236
O13   O     O_R   0.222430 0.601350 0.398650 -0.651490
O14   O     O_R   0.767360 0.410530 0.454140 -0.624577
O15   O     O_R   0.222430 0.443930 0.556060 -0.568124
O16   O     O_R   0.597340 0.544190 0.781580 -0.668015
O17   O     O_R   0.412870 0.601350 0.208220 -0.639309
Zn1   Zn    Zn3+2 0.396020 0.396030 0.603970 0.994919
Zn2   Zn    Zn3+2 0.618560 0.587010 0.606350 0.949785
Zn3   Zn    Zn3+2 0.396030 0.620930 0.379070 0.958889
Zn4   Zn    Zn3+2 0.589390 0.396030 0.410610 1.006433

loop_
_geom_bond_atom_site_label_1
_geom_bond_atom_site_label_2
_ccdc_geom_bond_type
C2    C22   S    
C5    H20   S    
C16   O8    S    
C18   O13   A    
C8    H3    S    
C6    H23   S    
C4    C12   D    
C8    H4    S    
C9    C10   S    
C5    O6    S    
C10   H7    S    
C7    O7    S    
C19   O16   A    
C16   C20   S    
O17   Zn3   S    
C4    C18   S    
C7    H26   S    
C2    C3    D    
C5    H21   S    
O15   Zn1   S    
C11   H9    S    
C7    C8    S    
C9    O8    S    
O1    Zn4   S    
C13   C14   S    
C1    O14   A    
C20   O11   A    
O5    Zn1   S    
O13   Zn3   S    
C15   H17   S    
C22   O3    A    
C1    C12   S    
O11   Zn4   S    
O14   Zn4   S    
C21   O2    A    
O1    Zn3   S    
C11   H10   S    
C13   H13   S    
C22   O5    A    
C19   O10   A    
C6    H24   S    
C5    C6    S    
C15   H18   S    
C3    O6    S    
C4    H12   S    
C18   O15   A    
C3    C21   S    
C12   O7    S    
C13   O9    S    
C10   C11   S    
C15   H19   S    
C14   H16   S    
O16   Zn2   S    
C20   O17   A    
C11   H11   S    
C8    H2    S    
C9    H5    S    
C13   H14   S    
O2    Zn2   S    
C1    O12   A    
C2    H1    S    
C10   H8    S    
C14   C15   S    
C16   C17   D    
C6    H22   S    
O1    Zn2   S    
O3    Zn4   S    
C17   C19   S    
C9    H6    S    
O10   Zn1   S    
C21   O4    A    
C7    H25   S    
O12   Zn2   S    
C17   O9    S    
O1    Zn1   S    
C14   H15   S    
O4    Zn3   S    
