data_mof_unit_67368.cif
_audit_creation_date              2013-03-05T16:08:38-0500
_audit_creation_method            fapswitch 2.2
_symmetry_space_group_name_H-M    P1
_symmetry_Int_Tables_number       1
_space_group_crystal_system       triclinic
_cell_length_a                    8.703014
_cell_length_b                    15.29492
_cell_length_c                    16.855776
_cell_angle_alpha                 111.561351
_cell_angle_beta                  97.567876
_cell_angle_gamma                 81.65569
_cell_volume                      2057.10880984

loop_
_atom_site_label
_atom_site_type_symbol
_atom_site_description
_atom_site_fract_x
_atom_site_fract_y
_atom_site_fract_z
_atom_type_partial_charge
P1    P     P_3+3 0.592580 0.619750 0.703570 0.619306
O1    O     O_2   0.428380 0.595300 0.716110 -0.266425
O2    O     O_3   0.649320 0.571650 0.606870 -0.282614
O3    O     O_3   0.202060 0.415880 0.655570 -0.266076
O4    O     O_2   0.307889 0.521076 0.809677 -0.292003
O5    O     O_3   0.526748 0.739839 0.722794 -0.520528
O6    O     O_3   0.286450 0.351077 0.801554 -0.567450
C1    C     C_3   0.237988 0.198128 0.805139 -0.660706
P2    P     P_3+3 0.156510 0.273300 0.422380 0.542693
P3    P     P_3+3 0.659811 0.239060 0.590945 0.617907
O7    O     O_2   0.338790 0.265210 0.448200 -0.367060
O8    O     O_3   0.612600 0.359140 0.609510 -0.318318
O9    O     O_2   0.519509 0.189864 0.536133 -0.273280
O10   O     O_3   0.125368 0.213113 0.311710 -0.623228
O11   O     O_3   0.650346 0.235370 0.692681 -0.443899
C2    C     C_3   0.789029 0.266252 0.741127 0.194999
H1    H     H_    0.829246 0.323324 0.725345 -0.011477
H2    H     H_    0.880436 0.205246 0.728499 0.095687
C3    C     C_3   0.768202 0.308242 0.836627 -0.035750
C4    C     C_3   0.745785 0.205021 0.225027 0.458546
H3    H     H_    0.854536 0.234358 0.259385 0.106483
C5    C     C_3   0.759703 0.099102 0.212994 0.392858
H4    H     H_    0.839485 0.057089 0.161815 0.145233
Ba1   Ba    Ba6+2 0.364200 0.465260 0.540900 1.771863
C6    C     C_3   0.640965 0.798542 0.729785 0.703898
H5    H     H_    0.759438 0.761349 0.724371 -0.027060
C7    C     C_3   0.633637 0.886926 0.813372 -0.622045
H6    H     H_    0.717040 0.933321 0.810235 0.238011
C8    C     C_3   0.224763 0.233005 0.263859 0.065100
H7    H     H_    0.347694 0.210483 0.281045 0.150538
C9    C     C_3   0.178426 0.178215 0.168292 -0.078413
H8    H     H_    0.059863 0.206768 0.150228 0.190307
P4    P     P_3+3 0.597130 0.380170 0.296420 0.572146
O12   O     O_2   0.761310 0.404660 0.283830 -0.286204
O13   O     O_3   0.540390 0.428270 0.393120 -0.344503
O14   O     O_3   0.987650 0.584040 0.344420 -0.349780
O15   O     O_3   0.615782 0.255478 0.271735 -0.551818
P5    P     P_3+3 0.532379 0.762306 0.404589 0.582066
O16   O     O_3   0.122130 0.620580 0.549200 -0.374176
O17   O     O_3   0.577110 0.640790 0.390470 -0.368396
O18   O     O_2   0.676582 0.809074 0.457979 -0.259821
O19   O     O_3   0.548516 0.773774 0.306219 -0.479030
Ba2   Ba    Ba6+2 0.825630 0.534670 0.459090 1.751819
P6    P     P_3+3 0.196830 0.443750 0.767499 0.564533
C10   C     C_3   0.208040 0.270105 0.758889 0.651291
H9    H     H_    0.081899 0.288532 0.750317 -0.103910
H10   H     H_    0.192661 0.131019 0.761047 0.184622
O20   O     O_3   0.067580 0.379340 0.450790 -0.310555
C11   C     C_3   0.117807 0.756731 0.747956 0.140787
H11   H     H_    0.236130 0.745594 0.726528 0.180362
C12   C     C_3   0.119028 0.818514 0.849212 -0.068981
P7    P     P_3+3 0.033459 0.743487 0.584008 0.484564
O21   O     O_2   0.850900 0.734750 0.551740 -0.293077
O22   O     O_3   0.019434 0.800376 0.697109 -0.617649
H12   H     H_    0.869498 0.347815 0.867092 -0.034462
C13   C     C_3   0.477926 0.704016 0.237414 0.833550
H13   H     H_    0.372691 0.687438 0.254287 -0.025512
C14   C     C_3   0.455166 0.728379 0.154734 -0.520839
H14   H     H_    0.565600 0.705752 0.124928 0.232052
P8    P     P_3+3 0.996506 0.556852 0.233879 0.535525
C15   C     C_3   0.959844 0.734387 0.218445 0.635272
O23   O     O_2   0.889678 0.476575 0.196048 -0.281766
O24   O     O_3   0.892509 0.647903 0.199179 -0.511910
C16   C     C_3   0.964050 0.752809 0.132438 -0.139844
H15   H     H_    0.004202 0.685890 0.082478 0.152828
C17   C     C_2   0.307846 0.487501 0.244401 -0.458408
C18   C     C_R   0.876064 0.512861 0.751284 -0.031091
C19   C     C_2   0.475302 0.393134 0.132872 -0.136807
C20   C     C_2   0.450718 0.420824 0.216756 0.208976
C21   C     C_2   0.185473 0.499249 0.188669 0.272101
C22   C     C_3   0.193233 0.443316 0.092192 -0.086951
C23   C     C_3   0.361445 0.420036 0.066959 0.271690
C24   C     C_2   0.066630 0.469538 0.028012 -0.133406
C25   C     C_2   0.097578 0.497088 0.962705 -0.094389
C26   C     C_R   0.836494 0.571599 0.922941 0.238394
C27   C     C_R   0.977953 0.520040 0.896708 -0.161614
C28   C     C_R   0.720383 0.597777 0.867889 0.112840
C29   C     C_R   0.738802 0.573561 0.780316 0.005418
C30   C     C_R   0.001609 0.494314 0.808758 0.123812
H16   H     H_    0.587917 0.362372 0.112201 0.207499
H17   H     H_    0.297648 0.521064 0.311986 0.121285
H18   H     H_    0.218149 0.501878 0.956370 0.217916
C31   C     C_R   0.348948 0.829036 0.459616 0.196256
C32   C     C_R   0.283879 0.923535 0.464296 -0.030329
C33   C     C_R   0.132969 0.106348 0.466878 -0.055322
C34   C     C_R   0.267912 0.065674 0.426213 -0.069939
C35   C     C_R   0.348683 0.981900 0.430289 0.450076
C36   C     C_R   0.066913 0.199286 0.471818 0.217232
H19   H     H_    0.317446 0.100856 0.392380 0.184669
C37   C     C_R   0.915358 0.227334 0.499294 0.064802
C38   C     C_R   0.129621 0.818081 0.536718 0.151175
C39   C     C_R   0.073053 0.912729 0.544602 -0.091825
C40   C     C_R   0.139275 0.961765 0.502387 0.057491
C41   C     C_R   0.954415 0.962435 0.597012 -0.187710
C42   C     C_R   0.857375 0.033889 0.578460 0.417933
C43   C     C_R   0.918253 0.089346 0.540668 -0.195706
C44   C     C_R   0.063924 0.052995 0.503777 0.064485
C45   C     C_R   0.845267 0.179031 0.539630 0.114153
C46   C     C_R   0.266164 0.778293 0.493288 -0.410466
Br1   Br    Br    0.283317 0.207580 0.648867 -0.455318
Br2   Br    Br    0.847932 0.072737 0.313431 -0.405765
Br3   Br    Br    0.562185 0.044468 0.179578 -0.375856
Br4   Br    Br    0.589293 0.844880 0.637439 -0.346091
C47   C     C_2   0.478283 0.947232 0.825188 0.840919
H20   H     H_    0.466390 0.010941 0.881535 0.061877
O25   O     O_2   0.365664 0.926609 0.773222 -0.591323
C48   C     C_2   0.682989 0.861498 0.891367 0.604960
H21   H     H_    0.707172 0.788120 0.885802 0.052302
O26   O     O_2   0.695870 0.923352 0.961991 -0.481107
C49   C     C_2   0.200014 0.335854 0.282382 0.609868
H22   H     H_    0.280981 0.380185 0.327655 -0.015601
O27   O     O_2   0.075320 0.370789 0.260561 -0.547278
C50   C     C_2   0.407432 0.178330 0.828311 0.810975
H23   H     H_    0.459773 0.221185 0.889775 0.060226
O28   O     O_2   0.486533 0.114337 0.778677 -0.482880
Br5   Br    Br    0.315701 0.192931 0.093416 -0.464506
C51   C     C_2   0.173943 0.074842 0.150760 0.689861
H24   H     H_    0.223828 0.044126 0.198362 0.091087
O29   O     O_2   0.114749 0.024276 0.082346 -0.532621
C52   C     C_2   0.060399 0.664343 0.729047 0.842866
H25   H     H_    0.948892 0.662393 0.748093 -0.222059
O30   O     O_2   0.134193 0.592328 0.688638 -0.497458
Br6   Br    Br    0.019669 0.946122 0.873938 -0.378379
C53   C     C_2   0.048758 0.776180 0.902766 0.243762
H26   H     H_    0.964263 0.818147 0.946980 0.149484
O31   O     O_2   0.098996 0.698133 0.904586 -0.598684
C54   C     C_2   0.278188 0.835610 0.892921 0.663998
H27   H     H_    0.293432 0.886004 0.957883 0.074217
O32   O     O_2   0.392400 0.791934 0.858112 -0.584381
C55   C     C_2   0.155245 0.229058 0.884421 0.588904
H28   H     H_    0.120834 0.302637 0.917256 -0.017610
O33   O     O_2   0.133421 0.171137 0.914713 -0.441621
Br7   Br    Br    0.602802 0.587364 0.209648 -0.376180
C56   C     C_2   0.338072 0.672253 0.090540 0.356326
H29   H     H_    0.317085 0.675450 0.026944 0.163422
O34   O     O_2   0.259187 0.625251 0.110452 -0.670192
C57   C     C_2   0.414988 0.830938 0.166033 0.717827
H30   H     H_    0.415300 0.853014 0.111927 0.047412
O35   O     O_2   0.376855 0.889967 0.233472 -0.496618
C58   C     C_2   0.108042 0.746356 0.276547 0.375247
H31   H     H_    0.150713 0.700470 0.312073 -0.048585
O36   O     O_2   0.173875 0.816966 0.294287 -0.578439
Br8   Br    Br    0.828501 0.835446 0.289925 -0.259309
C59   C     C_2   0.059457 0.828652 0.135746 0.769559
H32   H     H_    0.129791 0.816578 0.083534 -0.102264
O37   O     O_2   0.046070 0.907325 0.190780 -0.494668
Br9   Br    Br    0.764159 0.789495 0.082578 -0.460976
Br10  Br    Br    0.532088 0.648534 0.917354 -0.449246
Br11  Br    Br    0.892319 0.451729 0.632521 -0.393195
C60   C     C_2   0.912332 0.440803 0.029086 0.625552
H33   H     H_    0.905764 0.371249 0.030772 0.083190
O38   O     O_2   0.794344 0.495866 0.036281 -0.505959
Br12  Br    Br    0.554705 0.973499 0.399801 -0.286134
Br13  Br    Br    0.647036 0.037987 0.604235 -0.275811
C61   C     C_2   0.981773 0.976042 0.688476 0.647136
H34   H     H_    0.095298 0.953568 0.713362 0.112314
O39   O     O_2   0.881694 0.016865 0.737830 -0.464539
Br14  Br    Br    0.777893 0.305021 0.449894 -0.313518
C62   C     C_2   0.323945 0.680613 0.483049 0.691610
H35   H     H_    0.266074 0.624004 0.435461 -0.048606
O40   O     O_2   0.431653 0.663059 0.530544 -0.493735
C63   C     C_2   0.624615 0.377242 0.855661 0.705434
H36   H     H_    0.583354 0.417604 0.814433 0.041885
O41   O     O_2   0.557027 0.391609 0.918992 -0.556589
Br15  Br    Br    0.776678 0.210752 0.885700 -0.337465
Br16  Br    Br    0.732774 0.204492 0.108801 -0.442172

loop_
_geom_bond_atom_site_label_1
_geom_bond_atom_site_label_2
_geom_bond_distance
_ccdc_geom_bond_type
C19   H16   1.067225 S    
P1    C29   1.941420 S    
C46   C62   1.459463 S    
P5    C31   1.916197 S    
C61   O39   1.221392 D    
C12   Br6   1.933394 S    
C24   C25   1.383417 D    
C7    C47   1.514071 S    
C42   C43   1.422116 A    
C27   C30   1.422350 A    
P2    O10   1.754368 S    
C47   O25   1.219799 D    
C13   Br7   1.881734 S    
C17   C21   1.361620 D    
C28   C29   1.408913 A    
C14   C56   1.492299 S    
C57   O35   1.214714 D    
O2    Ba2   2.932327 S    
C63   H36   1.085467 S    
C5    Br2   1.920363 S    
C25   C27   1.523318 S    
P8    O24   1.787200 S    
O6    C10   1.406434 S    
C58   O36   1.217019 D    
P5    O19   1.755588 S    
P3    O11   1.749381 S    
C51   O29   1.223508 D    
P2    C36   1.924752 S    
O3    Ba1   2.897976 S    
C17   C20   1.496174 S    
C18   Br11  1.887362 S    
C11   O22   1.405169 S    
O7    Ba1   2.905834 S    
Ba1   O16   2.912419 S    
C13   H13   1.083047 S    
P8    O23   1.542178 D    
P1    O1    1.587272 D    
O5    C6    1.399482 S    
P3    C45   1.884183 S    
C49   H22   1.074881 S    
C9    C51   1.503383 S    
O19   C13   1.397829 S    
C1    C10   1.543231 S    
Ba2   O21   2.905920 S    
O17   Ba2   2.890029 S    
C9    H8    1.110109 S    
P7    O22   1.793786 S    
C19   C20   1.355584 D    
C11   C12   1.618258 S    
C43   C45   1.430817 A    
C48   H21   1.082553 S    
C35   Br12  1.903363 S    
C21   C22   1.539671 S    
C7    C48   1.497552 S    
O13   Ba2   3.027012 S    
Ba2   O20   2.911886 S    
O1    Ba1   2.925834 S    
P4    C20   1.935565 S    
O16   P7    1.833341 S    
C31   C46   1.427351 A    
C12   C53   1.515928 S    
C48   O26   1.221703 D    
O2    Ba1   3.026044 S    
C18   C29   1.423596 A    
C25   H18   1.084179 S    
C39   C41   1.394008 A    
C47   H20   1.085670 S    
C52   O30   1.203371 D    
C63   O41   1.220370 D    
Ba1   O13   2.931661 S    
P1    O5    1.764349 S    
P4    Ba2   3.496044 S    
C8    C49   1.475394 S    
C18   C30   1.430387 A    
C58   H31   1.078754 S    
P5    O18   1.544827 D    
C59   O37   1.220401 D    
C38   C39   1.422905 A    
C22   C24   1.556225 S    
C34   C35   1.389667 A    
C6    Br4   1.913481 S    
O16   Ba2   3.029371 S    
C16   C59   1.502665 S    
C6    H5    1.100650 S    
C33   C34   1.386594 A    
C34   H19   1.076220 S    
P4    O15   1.783645 S    
P1    O2    1.633107 S    
C3    C63   1.500753 S    
Ba1   O20   3.030315 S    
C37   Br14  1.894385 S    
C15   C16   1.581016 S    
C55   O33   1.220017 D    
C26   C27   1.392262 A    
C54   O32   1.204714 D    
C8    H7    1.109926 S    
C26   C28   1.396850 A    
C62   H35   1.075380 S    
P8    C21   1.864856 S    
C19   C23   1.520924 S    
C43   C44   1.432485 A    
C15   O24   1.434475 S    
P4    O12   1.587646 D    
C41   C61   1.469253 S    
P2    Ba1   3.486608 S    
O6    P6    1.762435 S    
C10   Br1   1.901994 S    
P2    O7    1.588109 D    
C28   Br10  1.870339 S    
P3    O8    1.741348 S    
C1    C50   1.491481 S    
P2    O20   1.619027 S    
C14   C57   1.502646 S    
O4    P6    1.539869 D    
C36   C37   1.410286 A    
C16   Br9   1.930215 S    
C1    C55   1.489357 S    
C60   O38   1.218670 D    
C31   C32   1.451330 A    
O10   C8    1.389940 S    
C54   H27   1.087090 S    
C40   C44   1.446402 A    
C9    Br5   1.937741 S    
C61   H34   1.080987 S    
C4    Br16  1.944499 S    
C52   H25   1.069220 S    
C53   O31   1.220232 D    
C50   H23   1.083382 S    
C33   C36   1.430537 A    
C3    H12   1.102011 S    
C60   H33   1.084483 S    
P6    C30   1.871611 S    
O12   Ba2   2.926491 S    
C4    C5    1.545416 S    
C59   H32   1.083036 S    
O14   P8    1.763408 S    
P3    O9    1.539252 D    
C56   O34   1.217408 D    
C15   C58   1.503399 S    
C56   H29   1.081306 S    
C32   C35   1.432109 A    
C6    C7    1.554149 S    
O3    P6    1.780204 S    
C57   H30   1.083054 S    
O8    Ba1   2.889303 S    
O14   Ba2   2.897246 S    
C5    Br3   1.945877 S    
C42   Br13  1.923502 S    
C12   C54   1.491515 S    
C16   H15   1.104111 S    
C15   Br8   1.904884 S    
C55   H28   1.072627 S    
C14   H14   1.094883 S    
C1    H10   1.114065 S    
C22   C23   1.533706 S    
C8    C9    1.547428 S    
C51   H24   1.085854 S    
C17   H17   1.073670 S    
P5    O17   1.775331 S    
C4    O15   1.424832 S    
C2    H1    1.113156 S    
C2    C3    1.523080 S    
C39   C40   1.423624 A    
P4    O13   1.633107 S    
C24   C60   1.476583 S    
C13   C14   1.551714 S    
C32   C40   1.435705 A    
C41   C42   1.385333 A    
C49   O27   1.212229 D    
C33   C44   1.423948 A    
C11   C52   1.476447 S    
C10   H9    1.097204 S    
C4    H3    1.104717 S    
P1    Ba1   3.495384 S    
C2    H2    1.109941 S    
C11   H11   1.105322 S    
C7    H6    1.104713 S    
Ba1   Ba2   4.788269 S    
C5    H4    1.122523 S    
P7    C38   1.938743 S    
C3    Br15  1.942058 S    
C38   C46   1.417807 A    
C62   O40   1.216116 D    
C37   C45   1.410460 A    
O11   C2    1.403223 S    
P7    O21   1.618211 D    
C53   H26   1.078861 S    
C50   O28   1.219063 D    
