data_mof_unit_18691.cif
_audit_creation_date              2012-12-10T17:02:59-0500
_audit_creation_method            fapswitch 2.2
_symmetry_space_group_name_H-M    P1
_symmetry_Int_Tables_number       1
_space_group_crystal_system       triclinic
_cell_length_a                    9.824089
_cell_length_b                    11.007229
_cell_length_c                    13.430643
_cell_angle_alpha                 94.567928
_cell_angle_beta                  81.175103
_cell_angle_gamma                 111.212069
_cell_volume                      1337.44944022

loop_
_atom_site_label
_atom_site_type_symbol
_atom_type_description
_atom_site_fract_x
_atom_site_fract_y
_atom_site_fract_z
_atom_type_partial_charge
C1    C     C_R   0.554580 0.745441 0.510511 0.879431
C2    C     C_R   0.450673 0.462122 0.964399 -0.118036
C3    C     C_R   0.475752 0.520046 0.869682 -0.037921
C4    C     C_R   0.556569 0.518154 0.032539 0.060797
C5    C     C_R   0.695083 0.613841 0.999144 0.094798
C6    C     C_R   0.718427 0.670073 0.904940 0.133573
C7    C     C_R   0.605314 0.628639 0.844762 -0.152514
C8    C     C_R   0.523673 0.490194 0.135403 -0.266327
C9    C     C_R   0.774301 0.619627 0.163344 0.125610
C10   C     C_R   0.372510 0.467199 0.800240 -0.126140
C11   C     C_2   0.581470 0.884910 0.519267 -0.381556
C12   C     C_R   0.421861 0.488925 0.690952 0.847117
C13   C     C_2   0.469410 0.929452 0.540430 0.451680
C14   C     C_2   0.407570 0.114649 0.501162 -0.338755
C15   C     C_2   0.502271 0.069623 0.533535 -0.285731
C16   C     C_2   0.918769 0.479626 0.501709 -0.008914
C17   C     C_2   0.073336 0.497926 0.518918 0.545289
C18   C     C_R   0.442677 0.254294 0.495123 0.866740
C19   C     C_R   0.579373 0.516194 0.309619 0.789181
C20   C     C_R   0.804731 0.657501 0.063311 -0.137360
C21   C     C_R   0.629690 0.539309 0.201296 -0.106457
C22   C     C_R   0.232703 0.373913 0.832513 -0.037583
C23   C     C_R   0.207402 0.315406 0.926933 0.413137
C24   C     C_R   0.321526 0.349345 0.986224 0.365637
Cu1   Cu    Cu3+1 0.362000 0.479240 0.482530 1.026265
Cu2   Cu    Cu3+1 0.638000 0.520760 0.517470 0.957087
H1    H     H_    0.302549 0.048696 0.480676 0.171786
H2    H     H_    0.694553 0.952359 0.504984 0.105876
H3    H     H_    0.865070 0.399736 0.451949 0.068092
H4    H     H_    0.111341 0.398443 0.393293 0.146412
H5    H     H_    0.913577 0.725615 0.037408 0.191705
H6    H     H_    0.411877 0.436076 0.166859 0.215071
H7    H     H_    0.619968 0.682850 0.777752 0.136913
H8    H     H_    0.609476 0.135972 0.550302 0.168404
N1    N     N_2   0.845330 0.551960 0.543750 -0.016708
N2    N     N_2   0.154690 0.448120 0.456210 -0.315896
O1    O     O_R   0.426290 0.668220 0.490680 -0.472983
O2    O     O_R   0.659360 0.703290 0.520190 -0.615021
O3    O     O_R   0.326580 0.473880 0.629020 -0.491537
O4    O     O_R   0.559660 0.508940 0.658530 -0.602163
O5    O     O_R   0.340640 0.296710 0.479810 -0.575110
O6    O     O_R   0.573710 0.331780 0.509320 -0.589682
O7    O     O_R   0.440340 0.491060 0.341470 -0.575767
O8    O     O_R   0.673420 0.526120 0.370980 -0.593393
N3    N     N_3   0.889513 0.672666 0.225500 -0.571210
H9    H     H_    0.909171 0.595923 0.254215 0.243721
H10   H     H_    0.856116 0.727414 0.284871 0.242315
O9    O     O_3   0.326684 0.844294 0.566900 -0.644100
H11   H     H_    0.264483 0.895171 0.596289 0.338963
O10   O     O_3   0.129876 0.564704 0.603254 -0.597907
H12   H     H_    0.047246 0.550004 0.658875 0.339010
O11   O     O_3   0.920473 0.662670 0.590978 -0.626146
H13   H     H_    0.846573 0.702136 0.619019 0.357892
N4    N     N_3   0.853521 0.774927 0.873256 -0.582886
H14   H     H_    0.859026 0.796771 0.798069 0.222273
H15   H     H_    0.851935 0.857910 0.916387 0.229827
N5    N     N_3   0.123095 0.330733 0.765245 -0.557363
H16   H     H_    0.029405 0.349674 0.799109 0.216438
H17   H     H_    0.096148 0.230606 0.750684 0.217312
O12   O     O_3   0.306995 0.262679 0.059316 -0.688945
H18   H     H_    0.405608 0.258098 0.060917 0.319254
O13   O     O_3   0.078398 0.215111 0.960013 -0.682648
H19   H     H_    0.001842 0.205568 0.917100 0.309155

loop_
_geom_bond_atom_site_label_1
_geom_bond_atom_site_label_2
_ccdc_geom_bond_type
C17   O10   S    
C12   O4    A    
C13   O9    S    
C2    C4    A    
C23   C24   A    
C9    N3    S    
O13   H19   S    
C17   N2    D    
C1    O1    A    
C14   H1    S    
C11   C13   D    
C14   C18   S    
C15   H8    S    
C1    C11   S    
C13   C15   S    
H4    N2    S    
C24   O12   S    
C9    C21   A    
Cu1   O7    S    
C22   N5    S    
N3    H10   S    
C2    C3    A    
Cu1   Cu2   S    
Cu2   O8    S    
O12   H18   S    
C3    C10   A    
N3    H9    S    
Cu1   O3    S    
C7    H7    S    
Cu2   O4    S    
N5    H16   S    
C6    C7    A    
C10   C12   S    
C1    O2    A    
C12   O3    A    
C11   H2    S    
O9    H11   S    
C19   C21   S    
C19   O7    A    
O10   H12   S    
C3    C7    A    
C18   O6    A    
C16   N1    D    
C2    C24   A    
C5    C6    A    
N4    H15   S    
N5    H17   S    
C16   C17   S    
Cu1   N2    S    
N4    H14   S    
C8    H6    S    
Cu2   N1    S    
N1    O11   S    
C19   O8    A    
Cu2   O6    S    
C18   O5    A    
Cu1   O5    S    
C4    C8    A    
C5    C20   A    
C22   C23   A    
Cu2   O2    S    
C9    C20   A    
Cu1   O1    S    
C16   H3    S    
C14   C15   D    
C6    N4    S    
C10   C22   A    
C23   O13   S    
O11   H13   S    
C4    C5    A    
C20   H5    S    
C8    C21   A    
