data_mof_unit_21084.cif
_audit_creation_date              2012-12-11T19:05:48-0500
_audit_creation_method            fapswitch 2.2
_symmetry_space_group_name_H-M    P1
_symmetry_Int_Tables_number       1
_space_group_crystal_system       triclinic
_cell_length_a                    8.35853
_cell_length_b                    15.072472
_cell_length_c                    22.962481
_cell_angle_alpha                 98.890178
_cell_angle_beta                  90.016409
_cell_angle_gamma                 98.821078
_cell_volume                      2823.48584139

loop_
_atom_site_label
_atom_site_type_symbol
_atom_type_description
_atom_site_fract_x
_atom_site_fract_y
_atom_site_fract_z
_atom_type_partial_charge
Ba1   Ba    Ba6+2 0.856840 0.543240 0.473380 1.757582
Ba2   Ba    Ba6+2 0.332990 0.456840 0.526630 1.745374
C1    C     C_3   0.553328 0.793304 0.260153 -0.436345
C2    C     C_R   0.169635 0.544514 0.932988 -0.033690
C3    C     C_R   0.135560 0.535091 0.871549 0.591533
C4    C     C_3   0.136336 0.718692 0.312468 0.629655
C5    C     C_R   0.994852 0.385590 0.871904 0.643742
C6    C     C_R   0.026899 0.392337 0.933107 -0.034581
C7    C     C_R   0.111852 0.473164 0.964099 -0.052982
C8    C     C_R   0.261984 0.623723 0.963975 -0.067660
C9    C     C_R   0.293959 0.631981 0.024513 -0.086648
C10   C     C_R   0.237112 0.560684 0.056052 -0.017848
C11   C     C_R   0.146711 0.480801 0.025678 -0.049550
C12   C     C_3   0.629030 0.780270 0.318269 0.325889
C13   C     C_R   0.976940 0.319155 0.963881 -0.075051
C14   C     C_R   0.009460 0.326904 0.024436 -0.075495
C15   C     C_R   0.094688 0.407734 0.056246 -0.025104
C16   C     C_3   0.125935 0.740454 0.249927 0.272280
C17   C     C_R   0.131932 0.416253 0.117450 0.592653
C18   C     C_R   0.271259 0.567640 0.117030 0.568758
C19   C     C_2   0.816697 0.405278 0.763050 0.379201
C20   C     C_3   0.770233 0.389556 0.697051 -0.163173
C21   C     C_1   0.003002 0.510381 0.683612 0.052724
C22   C     C_2   0.017928 0.530536 0.743155 -0.065255
C23   C     C_3   0.627717 0.269034 0.339894 0.256056
C24   C     C_2   0.961570 0.458069 0.781547 0.070190
C25   C     C_R   0.412897 0.544703 0.233627 -0.134238
C26   C     C_R   0.449558 0.561506 0.294154 0.001644
C27   C     C_R   0.183391 0.482707 0.313702 -0.033169
C28   C     C_3   0.259650 0.761988 0.659152 0.297707
C29   C     C_R   0.141066 0.473299 0.252871 -0.125410
C30   C     C_R   0.255774 0.505239 0.211663 0.216715
C31   C     C_2   0.885786 0.444567 0.659489 -0.320548
C32   C     C_R   0.362806 0.819203 0.446400 -0.038581
C33   C     C_R   0.587774 0.787322 0.504563 0.094175
C34   C     C_3   0.661541 0.193254 0.290924 -0.402737
C35   C     C_R   0.759916 0.228260 0.515906 -0.293956
C36   C     C_R   0.851500 0.169282 0.536253 0.000572
C37   C     C_R   0.793265 0.075645 0.528683 -0.146379
C38   C     C_R   0.641462 0.039644 0.499514 0.022643
C39   C     C_R   0.554507 0.101480 0.476989 -0.033113
C40   C     C_3   0.208440 0.855933 0.679126 -0.469288
C41   C     C_R   0.575729 0.944505 0.489795 0.050792
C42   C     C_R   0.430680 0.913051 0.454109 -0.069233
C43   C     C_R   0.358518 0.977517 0.428514 -0.097708
C44   C     C_R   0.413714 0.068798 0.443374 -0.059924
C45   C     C_3   0.063596 0.245820 0.680366 0.326917
C46   C     C_R   0.648088 0.880336 0.515616 -0.073118
C47   C     C_R   0.451790 0.757044 0.466645 -0.158172
C48   C     C_R   0.614431 0.195196 0.485211 -0.017941
C49   C     C_3   0.139070 0.259991 0.339894 0.658719
C50   C     C_3   0.188598 0.257456 0.275695 -0.252546
C51   C     C_3   0.794989 0.741525 0.657537 0.697948
C52   C     C_3   0.792337 0.794021 0.720154 -0.379866
C53   C     C_2   0.720861 0.869806 0.347717 0.562940
C54   C     C_3   0.008665 0.160641 0.399818 0.265495
C55   C     C_3   0.669365 0.595567 0.670310 0.225966
C56   C     C_3   0.107013 0.214606 0.737784 0.321964
C57   C     C_2   0.588349 0.348504 0.314156 0.522817
C58   C     C_3   0.992595 0.064404 0.739103 0.170922
C59   C     C_2   0.973726 0.619035 0.770483 0.637871
C60   C     C_3   0.628986 0.289939 0.793008 0.309517
C61   C     C_2   0.239151 0.956426 0.379731 0.518447
C62   C     C_3   0.957487 0.743465 0.170784 0.182096
C63   C     C_2   0.382538 0.753722 0.704788 0.511807
C64   C     C_2   0.325126 0.765992 0.599616 0.449996
C65   C     C_3   0.514661 0.200615 0.638744 0.345334
C66   C     C_3   0.462478 0.104985 0.652495 -0.384122
C67   C     C_R   0.333126 0.532767 0.333777 -0.162057
H1    H     H_    0.157514 0.860428 0.723770 0.143689
H2    H     H_    0.762252 0.862835 0.718490 0.052611
H3    H     H_    0.911456 0.802843 0.742372 0.135305
H4    H     H_    0.704570 0.757438 0.747804 0.124030
H5    H     H_    0.531759 0.758604 0.348320 -0.037111
H6    H     H_    0.470023 0.844186 0.268323 0.126728
H7    H     H_    0.736117 0.290709 0.368655 0.062233
H8    H     H_    0.553046 0.169927 0.261211 0.121565
H9    H     H_    0.766613 0.218292 0.264459 0.101850
H10   H     H_    0.690309 0.133742 0.310295 0.139428
H11   H     H_    0.483918 0.728127 0.238466 0.156661
H12   H     H_    0.314653 0.911000 0.681726 0.060024
H13   H     H_    0.196669 0.694868 0.222276 0.042514
H14   H     H_    0.136702 0.313422 0.678571 0.030470
H15   H     H_    0.932910 0.250910 0.679446 -0.037024
H16   H     H_    0.220989 0.184608 0.733871 0.036718
H17   H     H_    0.135750 0.275639 0.771821 0.058691
H18   H     H_    0.649335 0.214011 0.640767 -0.063156
H19   H     H_    0.470762 0.203125 0.593546 0.081989
H20   H     H_    0.521622 0.055814 0.622082 0.071683
H21   H     H_    0.329319 0.085335 0.646863 0.146037
H22   H     H_    0.063144 0.651256 0.314388 0.062690
H23   H     H_    0.120655 0.872210 0.647724 0.092543
H24   H     H_    0.498598 0.101522 0.698514 0.101863
H25   H     H_    0.968092 0.269020 0.046215 0.120734
H26   H     H_    0.911128 0.255600 0.941273 0.121054
H27   H     H_    0.364606 0.694505 0.046502 0.120000
H28   H     H_    0.508042 0.562572 0.203656 0.116715
H29   H     H_    0.308649 0.680177 0.941606 0.130100
H30   H     H_    0.021313 0.439414 0.237932 0.126474
H31   H     H_    0.364919 0.542638 0.380253 0.088067
H32   H     H_    0.265295 0.715230 0.322070 -0.564557
H33   H     H_    0.867108 0.429845 0.612016 0.094186
H34   H     H_    0.242802 0.294762 0.368895 0.049953
H35   H     H_    0.402713 0.685416 0.459381 0.084915
H36   H     H_    0.748367 0.901183 0.546737 0.039297
H37   H     H_    0.807547 0.299980 0.520519 0.061125
H38   H     H_    0.871582 0.032832 0.543688 0.084598
H39   H     H_    0.347125 0.113872 0.424672 0.131336
H40   H     H_    0.181180 0.812404 0.249322 0.088499
H41   H     H_    0.717988 0.932004 0.329367 -0.043244
H42   H     H_    0.879548 0.166807 0.390804 0.001249
H43   H     H_    0.057729 0.213916 0.437662 0.057859
H44   H     H_    0.010776 0.092091 0.412151 0.035528
H45   H     H_    0.080041 0.238962 0.246012 0.129368
H46   H     H_    0.636315 0.543364 0.630948 0.095761
H47   H     H_    0.565478 0.631433 0.680436 0.096975
H48   H     H_    0.688910 0.563715 0.709496 -0.012803
H49   H     H_    0.596645 0.351798 0.267201 -0.062292
H50   H     H_    0.100184 0.048230 0.761385 0.032501
H51   H     H_    0.000454 0.047250 0.690520 0.048985
H52   H     H_    0.884590 0.020794 0.752657 0.063887
H53   H     H_    0.862704 0.620607 0.795034 -0.063351
H54   H     H_    0.683182 0.247649 0.756285 0.036597
H55   H     H_    0.497797 0.288512 0.784992 0.044731
H56   H     H_    0.270029 0.206162 0.264079 0.110125
H57   H     H_    0.637259 0.257526 0.832945 0.080567
H58   H     H_    0.111595 0.953049 0.388793 0.072106
H59   H     H_    0.829362 0.729285 0.154849 0.078858
H60   H     H_    0.026068 0.699208 0.140329 0.039695
H61   H     H_    0.003004 0.816464 0.169265 0.038186
H62   H     H_    0.485180 0.807024 0.713501 -0.061385
H63   H     H_    0.417302 0.822429 0.593735 -0.129458
H64   H     H_    0.256993 0.323127 0.268178 0.012898
H65   H     H_    0.900245 0.775633 0.636568 0.062782
H66   H     H_    0.648867 0.817020 0.229817 0.136836
N1    N     N_R   0.029495 0.460734 0.842392 -0.413702
N2    N     N_R   0.216789 0.496565 0.148156 -0.417108
O1    O     O_2   0.889550 0.449620 0.359410 -0.439974
O2    O     O_2   0.180780 0.175699 0.525954 -0.497446
O3    O     O_3   0.099462 0.182197 0.633245 -0.617703
O4    O     O_3   0.130120 0.450560 0.430480 -0.476894
O5    O     O_3   0.576410 0.610420 0.531990 -0.466856
O6    O     O_2   0.341630 0.276020 0.466390 -0.454763
O7    O     O_3   0.493885 0.236400 0.371411 -0.647035
O8    O     O_2   0.445635 0.437837 0.711589 -0.466900
O9    O     O_3   0.446727 0.263416 0.679400 -0.618282
O10   O     O_2   0.205969 0.591872 0.844273 -0.534244
O11   O     O_2   0.940584 0.311151 0.844712 -0.583008
O12   O     O_3   0.654922 0.747204 0.626111 -0.732855
O13   O     O_2   0.091954 0.351126 0.142836 -0.613169
O14   O     O_2   0.350527 0.637756 0.142202 -0.640493
O15   O     O_3   0.674100 0.616440 0.398760 -0.445197
O16   O     O_2   0.777980 0.548896 0.295325 -0.464030
O17   O     O_3   0.003428 0.304429 0.350742 -0.692935
O18   O     O_3   0.738504 0.717882 0.306242 -0.524822
O19   O     O_2   0.848070 0.724010 0.533650 -0.452093
O20   O     O_3   0.092910 0.663610 0.428710 -0.449124
O21   O     O_2   0.030221 0.825304 0.466642 -0.441987
O22   O     O_2   0.798331 0.873859 0.393417 -0.573419
O23   O     O_3   0.078405 0.785718 0.352847 -0.564733
O24   O     O_3   0.100904 0.168208 0.349080 -0.647006
O25   O     O_3   0.813929 0.650437 0.658740 -0.695948
O26   O     O_2   0.547233 0.411595 0.347195 -0.604361
O27   O     O_3   0.974682 0.156283 0.756594 -0.620290
O28   O     O_2   0.064797 0.689976 0.769841 -0.521633
O29   O     O_3   0.705699 0.381406 0.805597 -0.629844
O30   O     O_2   0.283901 0.949811 0.328956 -0.594779
O31   O     O_3   0.963693 0.724133 0.228917 -0.610283
O32   O     O_2   0.362145 0.694507 0.735956 -0.517565
O33   O     O_2   0.267362 0.711331 0.557437 -0.592361
O34   O     O_2   0.300150 0.550410 0.640630 -0.488818
O35   O     O_3   0.059590 0.549510 0.569530 -0.429174
O36   O     O_3   0.515610 0.383640 0.601250 -0.484165
O37   O     O_3   0.121972 0.694779 0.656432 -0.562890
O38   O     O_3   0.613300 0.389650 0.468010 -0.442905
O39   O     O_3   0.096810 0.336470 0.571300 -0.494714
P1    P     P_3+3 0.056010 0.422560 0.367570 0.961784
P2    P     P_3+3 0.670430 0.710550 0.550450 1.012524
P3    P     P_3+3 0.144572 0.776869 0.423977 1.050451
P4    P     P_3+3 0.133710 0.577520 0.632440 1.180776
P5    P     P_3+3 0.055754 0.217058 0.566801 0.934527
P6    P     P_3+3 0.656675 0.610584 0.322464 1.063005
P7    P     P_3+3 0.522518 0.274978 0.447401 0.970423
P8    P     P_3+3 0.546744 0.372559 0.674340 0.941372

loop_
_geom_bond_atom_site_label_1
_geom_bond_atom_site_label_2
_ccdc_geom_bond_type
C9    H27   S    
C3    N1    Am   
C19   C24   D    
C49   O17   S    
C22   C59   S    
C3    O10   D    
C12   O18   S    
C54   H44   S    
C48   P7    S    
C16   H40   S    
O21   P3    D    
C56   O27   S    
C47   H35   S    
C60   H55   S    
O18   P6    S    
C5    C6    A    
C55   H46   S    
C51   C52   S    
C37   H38   S    
O8    P8    D    
C65   H19   S    
C36   P5    S    
C58   H50   S    
O4    P1    S    
C16   H13   S    
C12   H5    S    
C50   H56   S    
C55   H48   S    
C22   C24   S    
C34   H8    S    
Ba2   O36   S    
C13   H26   S    
C36   C37   A    
C51   O25   S    
C33   C46   A    
C49   H34   S    
C13   C14   A    
C40   H1    S    
C17   O13   D    
Ba1   O15   S    
Ba1   Ba2   S    
O20   P3    S    
C4    H32   S    
C50   H64   S    
C8    H29   S    
C7    C11   A    
C20   P8    S    
Ba1   O5    S    
Ba2   O39   S    
O19   P2    D    
C38   C41   A    
C25   H28   S    
C55   O25   S    
C26   C67   A    
O36   P8    S    
C14   C15   A    
C62   H59   S    
C44   H39   S    
C45   O3    S    
C33   C47   A    
C66   H21   S    
C39   C44   A    
C49   O24   S    
C45   H14   S    
C1    H6    S    
C41   C46   A    
C54   H42   S    
C40   H23   S    
O2    P5    D    
Ba2   O34   S    
O35   P4    S    
C33   P2    S    
C61   O30   D    
C12   C53   S    
O7    P7    S    
C27   P1    S    
C19   C20   S    
C51   O12   S    
Ba2   O6    S    
C32   P3    S    
C40   H12   S    
Ba2   P4    S    
C65   C66   S    
C1    H11   S    
C56   H17   S    
C60   H54   S    
C63   H62   S    
C55   H47   S    
C27   C67   A    
O39   P5    S    
C4    C16   S    
C1    H66   S    
C52   H2    S    
C49   C50   S    
C32   C42   A    
C37   C38   A    
C60   H57   S    
C16   O31   S    
C6    C7    A    
O15   P6    S    
C21   C31   D    
C43   C44   A    
C54   O24   S    
C43   C61   S    
C19   O29   S    
C31   H33   S    
C63   O32   D    
C59   H53   S    
O6    P7    D    
C18   N2    Am   
Ba1   O19   S    
C41   C42   A    
O23   P3    S    
C35   C36   A    
Ba2   O38   S    
C52   H4    S    
Ba1   P2    S    
C46   H36   S    
C17   N2    Am   
C10   C18   A    
C65   O9    S    
C66   H20   S    
C45   H15   S    
O16   P6    D    
C26   P6    S    
C21   P4    S    
C28   C64   S    
C1    C12   S    
C38   C39   A    
C60   O29   S    
C62   H61   S    
C57   H49   S    
C29   H30   S    
C53   H41   S    
Ba2   O5    S    
O34   P4    D    
C23   O7    S    
C15   C17   A    
C56   H16   S    
O37   P4    S    
C39   C48   A    
C42   C43   A    
O38   P7    S    
C5    O11   D    
Ba2   O4    S    
C20   C31   S    
Ba1   O38   S    
C32   C47   A    
C21   C22   D    
C25   C30   A    
C65   H18   S    
C64   O33   D    
C29   C30   A    
C51   H65   S    
O3    P5    S    
C2    C8    A    
C35   H37   S    
C2    C3    A    
C34   H10   S    
C4    O23   S    
C9    C10   A    
C18   O14   D    
C50   H45   S    
C62   H60   S    
C6    C13   A    
Ba1   O35   S    
C14   H25   S    
C66   H24   S    
C64   H63   S    
O9    P8    S    
C23   H7    S    
Ba1   O20   S    
C5    N1    Am   
C62   O31   S    
C34   H9    S    
C45   C56   S    
C35   C48   A    
Ba1   O4    S    
O5    P2    S    
C53   O22   D    
O12   P2    S    
C58   O27   S    
C54   H43   S    
C58   H51   S    
C59   O28   D    
C58   H52   S    
C28   C63   S    
C24   N1    S    
C8    C9    A    
C23   C34   S    
C11   C15   A    
C67   H31   S    
C30   N2    S    
C52   H3    S    
C10   C11   A    
C27   C29   A    
O17   P1    S    
C25   C26   A    
C57   O26   D    
C28   C40   S    
C23   C57   S    
C2    C7    A    
O1    P1    D    
Ba1   P1    S    
C28   O37   S    
C61   H58   S    
Ba1   O1    S    
C4    H22   S    
Ba2   O35   S    
