data_mof_unit_12016.cif
_audit_creation_date              2012-12-10T19:13:20-0500
_audit_creation_method            fapswitch 2.2
_symmetry_space_group_name_H-M    P1
_symmetry_Int_Tables_number       1
_space_group_crystal_system       triclinic
_cell_length_a                    15.995481
_cell_length_b                    14.765369
_cell_length_c                    10.898963
_cell_angle_alpha                 90.279514
_cell_angle_beta                  89.901809
_cell_angle_gamma                 89.579532
_cell_volume                      2574.00425371

loop_
_atom_site_label
_atom_site_type_symbol
_atom_type_description
_atom_site_fract_x
_atom_site_fract_y
_atom_site_fract_z
_atom_type_partial_charge
C1    C     C_R   0.340939 0.500147 0.500022 0.786428
C2    C     C_R   0.659111 0.499662 0.500042 0.817430
C3    C     C_R   0.573683 0.951040 0.531721 0.335583
C4    C     C_R   0.431295 0.952380 0.454670 0.288573
C5    C     C_R   0.501697 0.902840 0.495405 -0.287173
C6    C     C_R   0.430400 0.048855 0.458912 0.310319
C7    C     C_R   0.574215 0.047301 0.531311 0.327529
C8    C     C_R   0.502132 0.097100 0.495668 -0.277909
C9    C     C_1   0.500465 0.802618 0.498420 0.298756
C10   C     C_1   0.500751 0.197345 0.498555 0.288436
C11   C     C_R   0.498785 0.499733 0.264494 0.884955
C12   C     C_R   0.494839 0.500369 0.735385 0.907394
C13   C     C_2   0.455905 0.431672 0.933372 0.397166
C14   C     C_2   0.449930 0.437687 0.068788 0.393960
C15   C     C_2   0.480802 0.503571 0.867042 -0.515997
C16   C     C_2   0.495144 0.499331 0.131943 -0.484785
C17   C     C_R   0.956515 0.546946 0.410147 0.331006
C18   C     C_R   0.043924 0.547044 0.411289 0.341069
C19   C     C_R   0.912840 0.490447 0.491284 -0.098234
C20   C     C_R   0.087687 0.489996 0.492069 -0.094655
C21   C     C_R   0.955993 0.429719 0.569088 0.122084
C22   C     C_R   0.044702 0.428846 0.568990 0.135874
C23   C     C_1   0.823065 0.495777 0.495297 0.032901
C24   C     C_1   0.177237 0.496138 0.495223 0.057257
C25   C     C_1   0.252069 0.499601 0.497667 -0.190283
C26   C     C_1   0.748107 0.498505 0.498047 -0.189795
Cu1   Cu    Cu3+1 0.500000 0.589220 0.500000 0.975282
Cu2   Cu    Cu3+1 0.500000 0.410780 0.500000 0.999418
H1    H     H_    0.485782 0.570153 0.908491 0.128359
H2    H     H_    0.532034 0.550785 0.087337 0.120908
N1    N     N_1   0.500000 0.276710 0.500000 -0.170362
N2    N     N_1   0.500000 0.723290 0.500000 -0.165083
O1    O     O_R   0.380310 0.575320 0.500020 -0.565050
O2    O     O_R   0.619690 0.575320 0.499980 -0.574415
O3    O     O_R   0.380310 0.424640 0.499970 -0.589006
O4    O     O_R   0.619690 0.424640 0.500030 -0.579236
O5    O     O_R   0.500000 0.575320 0.321940 -0.593790
O6    O     O_R   0.500000 0.575320 0.678060 -0.582648
O7    O     O_R   0.500000 0.424640 0.321880 -0.525512
O8    O     O_R   0.500000 0.424640 0.678120 -0.523651
O9    O     O_3   0.440404 0.348981 0.877214 -0.516953
C27   C     C_3   0.355168 0.345588 0.843556 0.123010
H3    H     H_    0.335269 0.406820 0.791287 0.105664
H4    H     H_    0.315103 0.338502 0.926032 0.149860
C28   C     C_3   0.340826 0.263142 0.762708 -0.773839
H5    H     H_    0.361385 0.200737 0.810861 0.249412
H6    H     H_    0.273295 0.257578 0.740803 0.186472
H7    H     H_    0.376459 0.269735 0.675941 0.262615
O10   O     O_3   0.406085 0.370667 0.129535 -0.529549
C29   C     C_3   0.328156 0.406232 0.168885 0.066726
H8    H     H_    0.291105 0.432973 0.090478 0.095642
H9    H     H_    0.336328 0.461754 0.236906 0.132045
C30   C     C_3   0.278822 0.331227 0.229986 -0.735052
H10   H     H_    0.315430 0.302780 0.307369 0.279659
H11   H     H_    0.218665 0.358401 0.265883 0.179170
H12   H     H_    0.265803 0.276431 0.162682 0.239785
O11   O     O_3   0.086669 0.608974 0.340171 -0.528121
C31   C     C_3   0.112154 0.567022 0.229156 0.093321
H13   H     H_    0.060745 0.571123 0.161133 0.153445
H14   H     H_    0.130726 0.494571 0.240437 0.104687
C32   C     C_3   0.187088 0.617056 0.177729 -0.806017
H15   H     H_    0.240235 0.612624 0.242921 0.240103
H16   H     H_    0.206371 0.586161 0.088909 0.185686
H17   H     H_    0.170637 0.689320 0.162496 0.262520
O12   O     O_3   0.914738 0.608563 0.336493 -0.541352
C33   C     C_3   0.882747 0.563416 0.232055 0.074331
H18   H     H_    0.823169 0.529198 0.254925 0.148820
H19   H     H_    0.927200 0.511944 0.193896 0.100244
C34   C     C_3   0.864783 0.632699 0.132568 -0.768670
H20   H     H_    0.923343 0.667748 0.106496 0.250651
H21   H     H_    0.838913 0.598288 0.050296 0.196244
H22   H     H_    0.818579 0.683559 0.166358 0.247671
C35   C     C_3   0.905592 0.367942 0.651551 -0.812524
H23   H     H_    0.943604 0.321618 0.708507 0.232044
H24   H     H_    0.866557 0.409519 0.714967 0.231244
H25   H     H_    0.863994 0.325362 0.594268 0.226566
C36   C     C_3   0.092401 0.363959 0.651300 -0.851328
H26   H     H_    0.075362 0.293154 0.628209 0.230558
H27   H     H_    0.161206 0.368224 0.642010 0.226784
H28   H     H_    0.077029 0.378414 0.748858 0.229458
O13   O     O_3   0.644087 0.091178 0.576097 -0.528981
C37   C     C_3   0.690028 0.128543 0.477797 0.089527
H29   H     H_    0.665511 0.197112 0.455822 0.157118
H30   H     H_    0.688313 0.086047 0.392871 0.102297
C38   C     C_3   0.780865 0.137996 0.516474 -0.769725
H31   H     H_    0.808276 0.070182 0.535452 0.249547
H32   H     H_    0.817243 0.170557 0.442085 0.192053
H33   H     H_    0.784929 0.180355 0.600685 0.253762
O14   O     O_3   0.360430 0.096837 0.421083 -0.563104
C39   C     C_3   0.298864 0.093796 0.514091 0.119455
H34   H     H_    0.325796 0.105107 0.607189 0.127390
H35   H     H_    0.266675 0.027350 0.512455 0.195192
C40   C     C_3   0.233948 0.167617 0.491284 -0.830915
H36   H     H_    0.183568 0.163549 0.561203 0.202613
H37   H     H_    0.263441 0.235301 0.497810 0.250400
H38   H     H_    0.206096 0.159160 0.398694 0.259827
O15   O     O_3   0.642363 0.904461 0.576820 -0.528719
C41   C     C_3   0.692956 0.875366 0.477511 0.065534
H39   H     H_    0.726475 0.933803 0.437317 0.146759
H40   H     H_    0.656126 0.841455 0.403938 0.118142
C42   C     C_3   0.757566 0.807621 0.523774 -0.716970
H41   H     H_    0.725773 0.747830 0.563413 0.254383
H42   H     H_    0.798086 0.784667 0.446638 0.218793
H43   H     H_    0.797165 0.839597 0.595257 0.247623
O16   O     O_3   0.360964 0.906304 0.416797 -0.565201
C43   C     C_3   0.364517 0.895828 0.288141 0.096579
H44   H     H_    0.423494 0.861116 0.258965 0.124830
H45   H     H_    0.359725 0.962780 0.241934 0.175179
C44   C     C_3   0.291548 0.837918 0.246718 -0.767443
H46   H     H_    0.231484 0.871451 0.271788 0.256425
H47   H     H_    0.293885 0.828254 0.145658 0.193682
H48   H     H_    0.295017 0.770667 0.291668 0.259811

loop_
_geom_bond_atom_site_label_1
_geom_bond_atom_site_label_2
_ccdc_geom_bond_type
C33   H19   S    
C40   H36   S    
C32   H17   S    
C35   H23   S    
C13   O9    S    
O15   C41   S    
O11   C31   S    
C1    O1    A    
C7    C8    A    
C36   H26   S    
Cu1   O1    S    
C42   H41   S    
C19   C21   A    
C3    C7    A    
C44   H47   S    
C38   H31   S    
C23   C26   T    
C14   O10   S    
C43   H44   S    
Cu2   O8    S    
Cu1   O6    S    
C16   H2    S    
C21   C35   S    
C34   H21   S    
O9    C27   S    
C28   H6    S    
C32   H16   S    
C9    N2    T    
C10   N1    T    
C20   C24   S    
Cu2   O3    S    
C29   H9    S    
C2    O2    A    
C31   C32   S    
C36   H27   S    
C33   H18   S    
C42   H42   S    
C21   C22   A    
C1    C25   S    
C35   H24   S    
C32   H15   S    
C27   H4    S    
C15   H1    S    
C30   H11   S    
Cu1   O2    S    
C29   C30   S    
C38   H32   S    
C24   C25   T    
C4    C6    A    
C38   H33   S    
C44   H48   S    
C6    C8    A    
C28   H7    S    
Cu2   O7    S    
C29   H8    S    
C31   H13   S    
C30   H10   S    
C37   H29   S    
O13   C37   S    
C27   C28   S    
C12   O8    A    
C34   H22   S    
C19   C23   S    
C5    C9    S    
C11   C16   S    
C3    O15   S    
C18   O11   S    
C39   H35   S    
C12   C15   S    
C17   C18   A    
C2    C26   S    
C11   O7    A    
C7    O13   S    
C20   C22   A    
O10   C29   S    
C42   H43   S    
C37   H30   S    
C13   C15   D    
C35   H25   S    
C14   C16   D    
C27   H3    S    
C6    O14   S    
C1    O3    A    
C39   C40   S    
C11   O5    A    
C4    O16   S    
C30   H12   S    
C2    O4    A    
Cu1   N2    S    
C17   O12   S    
Cu2   N1    S    
C22   C36   S    
C4    C5    A    
C3    C5    A    
C40   H38   S    
C37   C38   S    
O16   C43   S    
C41   H40   S    
C41   C42   S    
C44   H46   S    
C36   H28   S    
C39   H34   S    
C40   H37   S    
C43   H45   S    
Cu1   O5    S    
C17   C19   A    
C18   C20   A    
O12   C33   S    
C12   O6    A    
C34   H20   S    
C33   C34   S    
C28   H5    S    
Cu2   O4    S    
C8    C10   S    
C41   H39   S    
Cu1   Cu2   S    
O14   C39   S    
C13   C14   S    
C31   H14   S    
C43   C44   S    
