data_mof_unit_8674.cif
_audit_creation_date              2012-12-10T20:25:38-0500
_audit_creation_method            fapswitch 2.2
_symmetry_space_group_name_H-M    P1
_symmetry_Int_Tables_number       1
_space_group_crystal_system       triclinic
_cell_length_a                    8.520677
_cell_length_b                    10.691889
_cell_length_c                    9.954862
_cell_angle_alpha                 89.764184
_cell_angle_beta                  96.56326
_cell_angle_gamma                 90.552061
_cell_volume                      900.919544891

loop_
_atom_site_label
_atom_site_type_symbol
_atom_type_description
_atom_site_fract_x
_atom_site_fract_y
_atom_site_fract_z
_atom_type_partial_charge
C1    C     C_R   0.502504 0.260316 0.500534 0.925890
C2    C     C_R   0.544233 0.936507 0.383539 -0.207200
C3    C     C_R   0.520834 0.871678 0.502248 -0.114986
C4    C     C_R   0.521694 0.935671 0.624030 0.093937
C5    C     C_3   0.408274 0.926577 0.728809 -0.297292
C6    C     C_3   0.409685 0.069982 0.729891 -0.312197
C7    C     C_R   0.372160 0.456181 0.058801 0.218163
C8    C     C_R   0.631762 0.536603 0.080175 0.157826
C9    C     C_R   0.628796 0.535342 0.937401 -0.071959
C10   C     C_R   0.372399 0.456129 0.916888 0.222484
C11   C     C_3   0.209833 0.507862 0.894573 -0.504098
C12   C     C_R   0.203136 0.488204 0.466846 0.904014
C13   C     C_3   0.209562 0.508736 0.046780 -0.475333
C14   C     C_R   0.502271 0.739730 0.500081 0.859020
C15   C     C_R   0.797795 0.498294 0.533784 1.027343
C16   C     C_2   0.043123 0.451176 0.457808 -0.233401
C17   C     C_2   0.962106 0.505777 0.547726 -0.443873
C18   C     C_R   0.522544 0.063577 0.624584 0.095886
C19   C     C_R   0.521652 0.128722 0.503005 -0.090683
C20   C     C_R   0.544887 0.065382 0.383955 -0.166110
H1    H     H_    0.729855 0.566510 0.889214 0.174611
H2    H     H_    0.206940 0.603077 0.848993 0.229469
H3    H     H_    0.123897 0.439851 0.842953 0.225391
H4    H     H_    0.206569 0.604432 0.089759 0.222465
H5    H     H_    0.122416 0.441835 0.081677 0.248476
H6    H     H_    0.014962 0.573762 0.621066 0.155460
H7    H     H_    0.553988 0.114384 0.289707 0.178231
H8    H     H_    0.551644 0.888807 0.288897 0.179358
H9    H     H_    0.292570 0.885678 0.686591 0.143977
H10   H     H_    0.294311 0.110859 0.689062 0.148481
N1    N     N_R   0.498950 0.499140 0.142680 -0.130907
N2    N     N_R   0.498950 0.499180 0.857030 -0.127314
O1    O     O_R   0.500020 0.316790 0.614690 -0.608681
O2    O     O_R   0.500000 0.316760 0.385350 -0.601172
O3    O     O_R   0.271760 0.500010 0.587850 -0.629409
O4    O     O_R   0.271740 0.499970 0.358500 -0.595429
O5    O     O_R   0.500000 0.683240 0.614650 -0.609684
O6    O     O_R   0.499980 0.683210 0.385310 -0.633237
O7    O     O_R   0.728260 0.500030 0.641500 -0.616692
O8    O     O_R   0.728240 0.499990 0.412150 -0.615539
Zn1   Zn    Zn3+2 0.500010 0.500020 0.653130 0.986275
Zn2   Zn    Zn3+2 0.499990 0.499980 0.346870 0.972771
C21   C     C_2   0.989346 0.338219 0.376141 0.888075
O9    O     O_2   0.062663 0.304587 0.284191 -0.632728
O10   O     O_R   0.861135 0.266295 0.408781 -0.792035
H11   H     H_    0.840023 0.191006 0.347627 0.343821
C22   C     C_2   0.475824 0.862761 0.858301 0.997433
O11   O     O_2   0.614799 0.832496 0.875865 -0.632335
O12   O     O_R   0.376702 0.837953 0.957927 -0.788849
H12   H     H_    0.432881 0.793342 0.039426 0.325626
C23   C     C_2   0.478516 0.131126 0.860652 0.986612
O13   O     O_2   0.610907 0.178056 0.871739 -0.602852
O14   O     O_R   0.387883 0.134554 0.968980 -0.772614
H13   H     H_    0.444802 0.178027 0.051083 0.329066
C24   C     C_3   0.789889 0.578657 0.152530 -0.327896
C25   C     C_3   0.790307 0.710122 0.211952 -0.767937
H14   H     H_    0.712598 0.772885 0.145543 0.262110
H15   H     H_    0.755005 0.709406 0.314834 0.267562
H16   H     H_    0.912175 0.749592 0.220621 0.236628
H17   H     H_    0.841428 0.507155 0.222109 0.223225
H18   H     H_    0.879881 0.582835 0.080022 0.172755

loop_
_geom_bond_atom_site_label_1
_geom_bond_atom_site_label_2
_ccdc_geom_bond_type
C8    C9    A    
C7    C10   A    
C23   O14   S    
N2    Zn1   S    
N1    Zn2   S    
C6    C23   S    
C12   O4    A    
C11   C13   S    
C11   H2    S    
O4    Zn2   S    
C19   C20   A    
O2    Zn2   S    
C25   H16   S    
C24   C25   S    
O1    Zn1   S    
O8    Zn2   S    
C2    C3    A    
C1    O1    A    
C22   O12   S    
O14   H13   S    
C14   O5    A    
C21   O10   S    
C5    C22   S    
C16   C21   S    
C15   O7    A    
C16   C17   D    
C3    C14   S    
C24   H17   S    
O3    Zn1   S    
C17   H6    S    
C24   H18   S    
C8    C24   S    
C11   H3    S    
C20   H7    S    
C25   H15   S    
C1    O2    A    
O6    Zn2   S    
C5    H9    S    
C21   O9    D    
O5    Zn1   S    
C5    C6    S    
C6    C18   S    
C12   O3    A    
C15   O8    A    
C1    C19   S    
C14   O6    A    
C10   C11   S    
C2    C20   A    
C23   O13   D    
C9    H1    S    
C10   N2    A    
C7    C13   S    
C7    N1    A    
C25   H14   S    
O7    Zn1   S    
O12   H12   S    
C15   C17   S    
C18   C19   A    
C2    H8    S    
C12   C16   S    
C9    N2    A    
C6    H10   S    
O10   H11   S    
C8    N1    A    
C4    C18   A    
C3    C4    A    
C22   O11   D    
C13   H4    S    
C4    C5    S    
C13   H5    S    
