data_mof_unit_42268.cif
_audit_creation_date              2012-12-10T17:03:44-0500
_audit_creation_method            fapswitch 2.2
_symmetry_space_group_name_H-M    P1
_symmetry_Int_Tables_number       1
_space_group_crystal_system       triclinic
_cell_length_a                    10.133817
_cell_length_b                    10.777555
_cell_length_c                    13.377058
_cell_angle_alpha                 91.095978
_cell_angle_beta                  72.504024
_cell_angle_gamma                 89.208756
_cell_volume                      1392.87514796

loop_
_atom_site_label
_atom_site_type_symbol
_atom_type_description
_atom_site_fract_x
_atom_site_fract_y
_atom_site_fract_z
_atom_type_partial_charge
C1    C     C_R   0.497238 0.736972 0.504867 0.823072
C2    C     C_R   0.390960 0.557960 0.813905 -0.269561
C3    C     C_2   0.590437 0.063620 0.519131 0.273096
C4    C     C_R   0.426210 0.518519 0.701354 0.951107
C5    C     C_2   0.516809 0.134277 0.473431 0.102413
C6    C     C_2   0.602885 0.934534 0.492064 0.347162
C7    C     C_2   0.488583 0.867890 0.528533 0.255824
C8    C     C_2   0.091720 0.412839 0.457534 0.386764
C9    C     C_2   0.936451 0.401967 0.477778 0.460012
C10   C     C_R   0.502305 0.263468 0.496794 0.940444
C11   C     C_R   0.575195 0.503388 0.297845 0.945622
C12   C     C_R   0.452279 0.543818 0.976507 -0.051232
C13   C     C_R   0.769391 0.409681 0.019993 0.412631
C14   C     C_R   0.618427 0.498940 0.183778 -0.329052
C15   C     C_R   0.256034 0.597852 0.872281 0.324443
C16   C     C_R   0.217792 0.602807 0.981791 0.402124
C17   C     C_R   0.309674 0.553596 0.032007 0.371124
C18   C     C_3   0.926162 0.443785 0.180954 -0.084386
C19   C     C_3   0.251173 0.905705 0.580565 -0.043735
C20   C     C_3   0.885338 0.232630 0.391144 -0.091416
C21   C     C_3   0.848130 0.343558 0.734955 -0.018879
C22   C     C_3   0.380562 0.700968 0.240989 -0.116721
C23   C     C_R   0.493787 0.552500 0.867038 -0.196067
C24   C     C_3   0.272224 0.368703 0.114565 -0.236521
C25   C     C_3   0.086239 0.736873 0.108641 -0.158602
C26   C     C_R   0.553811 0.517277 0.026388 -0.067073
C27   C     C_R   0.682978 0.464162 0.967028 -0.242067
C28   C     C_R   0.724551 0.480262 0.858018 0.487563
C29   C     C_R   0.637406 0.549125 0.815505 0.376463
C30   C     C_R   0.535356 0.556821 0.129757 0.499015
C31   C     C_R   0.734414 0.424626 0.128975 0.378808
Cl1   Cl    Cl    0.457294 0.079480 0.369012 -0.558323
Cl2   Cl    Cl    0.749818 0.885938 0.388006 -0.537765
Cl3   Cl    Cl    0.203197 0.300426 0.377793 -0.577395
Cl4   Cl    Cl    0.048391 0.583395 0.606841 -0.363793
Cl5   Cl    Cl    0.921849 0.629481 0.429315 -0.463373
Cl6   Cl    Cl    0.915522 0.314825 0.956039 -0.515853
Cl7   Cl    Cl    0.133726 0.649606 0.812420 -0.389843
Cl8   Cl    Cl    0.712791 0.663726 0.723939 -0.392524
Cl9   Cl    Cl    0.643155 0.112260 0.628105 -0.526643
H1    H     H_    0.970237 0.416834 0.243685 0.147490
H2    H     H_    0.781935 0.362283 0.683910 0.171643
H3    H     H_    0.807088 0.262799 0.784691 0.183061
H4    H     H_    0.953596 0.317499 0.684239 0.206001
H5    H     H_    0.417934 0.728670 0.307695 0.174366
H6    H     H_    0.309975 0.621502 0.261123 0.209554
H7    H     H_    0.318537 0.780661 0.227021 0.177906
H8    H     H_    0.374317 0.337977 0.120910 0.202614
H9    H     H_    0.259070 0.333352 0.039229 0.163796
H10   H     H_    0.191794 0.323968 0.177498 0.217636
H11   H     H_    0.160483 0.810246 0.071755 0.163956
H12   H     H_    0.895121 0.543610 0.196192 0.200693
H13   H     H_    0.109721 0.700479 0.178640 0.188772
H14   H     H_    0.981672 0.781153 0.136284 0.229304
H15   H     H_    0.008488 0.431079 0.105374 0.236305
H16   H     H_    0.198179 0.820947 0.616587 0.239336
H17   H     H_    0.265813 0.903692 0.494579 0.166956
H18   H     H_    0.181627 0.986082 0.614758 0.204974
H19   H     H_    0.848258 0.136444 0.402220 0.229223
H20   H     H_    0.989669 0.226224 0.334068 0.166063
H21   H     H_    0.816168 0.284791 0.356341 0.199603
N1    N     N_2   0.148270 0.498670 0.498870 0.014652
N2    N     N_2   0.852610 0.498640 0.498840 0.043231
O1    O     O_R   0.386950 0.680940 0.500020 -0.649034
O2    O     O_3   0.375475 0.919541 0.606397 -0.621795
O3    O     O_3   0.882292 0.284023 0.489804 -0.609900
O4    O     O_3   0.856770 0.449221 0.796472 -0.512845
O5    O     O_3   0.494502 0.681095 0.150805 -0.590842
O6    O     O_3   0.255497 0.499310 0.128224 -0.649270
O7    O     O_3   0.083813 0.639659 0.037026 -0.594717
O8    O     O_R   0.613110 0.680900 0.499980 -0.511806
O9    O     O_R   0.330780 0.500000 0.653640 -0.539337
O10   O     O_R   0.556930 0.499960 0.653610 -0.608162
O11   O     O_R   0.386890 0.319100 0.500020 -0.541265
O12   O     O_R   0.613050 0.319060 0.499980 -0.610442
O13   O     O_R   0.443070 0.500040 0.346390 -0.620723
O14   O     O_R   0.669220 0.500000 0.346360 -0.589460
O15   O     O_3   0.814193 0.366679 0.182553 -0.610810
Zn1   Zn    Zn3+2 0.349000 0.500030 0.500020 1.103741
Zn2   Zn    Zn3+2 0.651000 0.499970 0.499980 1.112672

loop_
_geom_bond_atom_site_label_1
_geom_bond_atom_site_label_2
_ccdc_geom_bond_type
C19   H16   S    
C17   O6    S    
O13   Zn1   S    
C14   C31   A    
C3    C6    S    
C18   H12   S    
C19   H17   S    
C12   C23   A    
C26   C27   A    
C1    O8    A    
C31   O15   S    
C23   C29   A    
C20   O3    S    
C28   C29   A    
C25   H13   S    
O9    Zn1   S    
C11   O13   A    
C11   C14   S    
C15   C16   A    
C20   H21   S    
C9    O3    S    
C11   O14   A    
C21   H3    S    
C8    C9    S    
C12   C17   A    
C20   H20   S    
Cl5   N2    S    
O12   Zn2   S    
C13   Cl6   S    
C5    Cl1   S    
C22   H7    S    
C1    C7    S    
C21   O4    S    
C14   C30   A    
O8    Zn2   S    
C24   O6    S    
N2    Zn2   S    
C19   H18   S    
C24   H10   S    
C24   H8    S    
N1    Zn1   S    
C28   O4    S    
C16   O7    S    
C25   H14   S    
C18   H1    S    
C16   C17   A    
C12   C26   A    
C2    C4    S    
C25   H11   S    
C15   Cl7   S    
C7    O2    S    
C21   H4    S    
C10   O12   A    
C18   O15   S    
C29   Cl8   S    
C8    Cl3   S    
C20   H19   S    
C2    C15   A    
C22   O5    S    
C4    O10   A    
C18   H15   S    
C22   H6    S    
C3    Cl9   S    
C26   C30   A    
O11   Zn1   S    
O1    Zn1   S    
C1    O1    A    
C4    O9    A    
C2    C23   A    
O14   Zn2   S    
C24   H9    S    
C9    N2    D    
C13   C31   A    
C3    C5    D    
C6    C7    D    
C6    Cl2   S    
C5    C10   S    
C10   O11   A    
O10   Zn2   S    
C19   O2    S    
Cl4   N1    S    
C21   H2    S    
C22   H5    S    
C27   C28   A    
C13   C27   A    
C25   O7    S    
C30   O5    S    
C8    N1    D    
