data_mof_unit_47073.cif
_audit_creation_date              2012-12-11T15:15:43-0500
_audit_creation_method            fapswitch 2.2
_symmetry_space_group_name_H-M    P1
_symmetry_Int_Tables_number       1
_space_group_crystal_system       triclinic
_cell_length_a                    20.646763
_cell_length_b                    22.797403
_cell_length_c                    6.930635
_cell_angle_alpha                 89.999898
_cell_angle_beta                  86.536965
_cell_angle_gamma                 90.000216
_cell_volume                      3256.24159671

loop_
_atom_site_label
_atom_site_type_symbol
_atom_type_description
_atom_site_fract_x
_atom_site_fract_y
_atom_site_fract_z
_atom_type_partial_charge
O1    O     O_R   0.387100 0.552640 0.378490 -0.550191
O2    O     O_R   0.612900 0.052640 0.621510 -0.550196
O3    O     O_R   0.249610 0.559600 0.072250 -0.538211
O4    O     O_R   0.750390 0.059600 0.927750 -0.538214
O5    O     O_R   0.249120 0.447360 0.902040 -0.541121
O6    O     O_R   0.750880 0.947360 0.097960 -0.541125
C1    C     C_R   0.228833 0.575025 0.244939 0.695604
C2    C     C_R   0.771170 0.075021 0.755060 0.695664
O7    O     O_R   0.386610 0.559560 0.048860 -0.529653
O8    O     O_R   0.613390 0.059560 0.951140 -0.529650
O9    O     O_R   0.387100 0.447320 0.878470 -0.504746
O10   O     O_R   0.612900 0.947320 0.121530 -0.504768
C3    C     C_R   0.407678 0.574956 0.213735 0.699164
C4    C     C_R   0.592321 0.074956 0.786264 0.699194
O11   O     O_R   0.249120 0.552680 0.402050 -0.554638
O12   O     O_R   0.750880 0.052680 0.597950 -0.554633
O13   O     O_3   0.318110 0.463180 0.223790 -0.330113
O14   O     O_3   0.681890 0.963180 0.776210 -0.330118
V1    V     V_3+5 0.318110 0.506830 0.948930 1.556567
V2    V     V_3+5 0.681890 0.006830 0.051070 1.556533
O15   O     O_R   0.386610 0.440400 0.548840 -0.525697
O16   O     O_R   0.613390 0.940400 0.451160 -0.525668
C5    C     C_R   0.407769 0.424673 0.713808 0.779304
C6    C     C_R   0.592230 0.924673 0.286193 0.779286
O17   O     O_R   0.249610 0.440440 0.572240 -0.549374
O18   O     O_R   0.750390 0.940440 0.427760 -0.549374
C7    C     C_R   0.227123 0.426564 0.744920 0.704048
C8    C     C_R   0.772877 0.926565 0.255081 0.704035
V3    V     V_3+5 0.318110 0.493170 0.448930 1.524230
V4    V     V_3+5 0.681890 0.993170 0.551070 1.524256
O19   O     O_3   0.318110 0.536820 0.723940 -0.379995
O20   O     O_3   0.681890 0.036820 0.276060 -0.380002
C9    C     C_R   0.173045 0.384226 0.763062 -0.042474
C10   C     C_R   0.826956 0.884229 0.236941 -0.042478
C11   C     C_R   0.139624 0.368692 0.600018 -0.170971
C12   C     C_R   0.860386 0.868707 0.399979 -0.170982
C13   C     C_R   0.087421 0.329923 0.616886 -0.117763
C14   C     C_R   0.912591 0.829940 0.383115 -0.117764
C15   C     C_R   0.068098 0.305085 0.797169 0.164357
C16   C     C_R   0.931905 0.805091 0.202842 0.164356
C17   C     C_R   0.101322 0.320792 0.960147 -0.146433
C18   C     C_R   0.898672 0.820785 0.039870 -0.146441
C19   C     C_R   0.153346 0.359918 0.943504 -0.131858
C20   C     C_R   0.846647 0.859911 0.056509 -0.131877
C21   C     C_R   0.883437 0.202557 0.852728 -0.168014
C22   C     C_R   0.116557 0.702550 0.147206 -0.168042
C23   C     C_R   0.829169 0.165500 0.870910 -0.035173
C24   C     C_R   0.170819 0.665486 0.129013 -0.035161
C25   C     C_R   0.870152 0.113637 0.581004 -0.151801
C26   C     C_R   0.129882 0.613678 0.419075 -0.151694
C27   C     C_R   0.923117 0.151406 0.563388 -0.111999
C28   C     C_R   0.076922 0.651452 0.436698 -0.111913
C29   C     C_R   0.931064 0.195314 0.700862 0.136316
C30   C     C_R   0.068955 0.695335 0.299155 0.136291
C31   C     C_2   0.012034 0.264703 0.822521 -0.195935
C32   C     C_2   0.987968 0.764709 0.177490 -0.195925
C33   C     C_2   0.988123 0.234490 0.675975 -0.181195
C34   C     C_2   0.011899 0.734515 0.324049 -0.181185
C35   C     C_R   0.823380 0.119222 0.735714 -0.114115
C36   C     C_R   0.176629 0.619232 0.264284 -0.114215
H1    H     H_    0.152974 0.387329 0.459447 0.122026
H2    H     H_    0.847043 0.887353 0.540542 0.122019
H3    H     H_    0.866553 0.079000 0.475119 0.123055
H4    H     H_    0.133496 0.579060 0.525021 0.123116
H5    H     H_    0.012571 0.236255 0.533114 0.124459
H6    H     H_    0.987470 0.736299 0.466932 0.124443
H7    H     H_    0.086989 0.302710 0.100892 0.103188
H8    H     H_    0.912998 0.802695 0.899132 0.103192
H9    H     H_    0.886779 0.238617 0.953166 0.138290
H10   H     H_    0.113202 0.738590 0.046700 0.138245
H11   H     H_    0.178075 0.371075 0.071970 0.139152
H12   H     H_    0.821910 0.871058 0.928048 0.139168
H13   H     H_    0.991425 0.258287 0.968769 0.127018
H14   H     H_    0.008560 0.758274 0.031232 0.127004
H15   H     H_    0.061702 0.320885 0.488904 0.099940
H16   H     H_    0.938316 0.820912 0.511090 0.099935
H17   H     H_    0.958642 0.145673 0.443287 0.109522
H18   H     H_    0.041418 0.645741 0.556863 0.109527
C37   C     C_R   0.566560 0.353580 0.554303 -0.155566
C38   C     C_R   0.433444 0.853577 0.445738 -0.155535
H19   H     H_    0.519998 0.435618 0.508711 0.125859
H20   H     H_    0.480008 0.935614 0.491332 0.125838
H21   H     H_    0.656984 0.270762 0.523674 0.122510
H22   H     H_    0.343021 0.770757 0.476375 0.122540
H23   H     H_    0.609351 0.366208 0.465728 0.124293
H24   H     H_    0.390656 0.866202 0.534332 0.124274
C39   C     C_R   0.461713 0.380900 0.705509 -0.135053
C40   C     C_R   0.538285 0.880901 0.294496 -0.135114
C41   C     C_R   0.476285 0.097443 0.851117 -0.176396
C42   C     C_R   0.523713 0.597446 0.148848 -0.176382
C43   C     C_R   0.423223 0.135217 0.859671 -0.115493
C44   C     C_R   0.576774 0.635223 0.140271 -0.115505
C45   C     C_R   0.431448 0.194725 0.818999 -0.019860
C46   C     C_R   0.568548 0.694730 0.180951 -0.019873
C47   C     C_R   0.493600 0.218449 0.774393 0.103416
C48   C     C_R   0.506397 0.718452 0.225590 0.103432
C49   C     C_R   0.546745 0.178375 0.744578 0.060442
C50   C     C_R   0.453253 0.678375 0.255422 0.060450
C51   C     C_R   0.503181 0.279992 0.738985 -0.019046
C52   C     C_R   0.496816 0.779993 0.261013 -0.019004
C53   C     C_R   0.560753 0.296963 0.631204 0.106287
C54   C     C_R   0.439248 0.796962 0.368820 0.106288
C55   C     C_R   0.611956 0.257114 0.599019 -0.153201
C56   C     C_R   0.388046 0.757112 0.401013 -0.153186
C57   C     C_R   0.606159 0.199374 0.663049 -0.135390
C58   C     C_R   0.393841 0.699373 0.336969 -0.135436
C59   C     C_R   0.458187 0.325475 0.801164 0.297755
C60   C     C_R   0.541807 0.825478 0.198825 0.297685
C61   C     C_R   0.515931 0.393532 0.581196 -0.214056
C62   C     C_R   0.484072 0.893529 0.418835 -0.213898
C63   C     C_R   0.538157 0.117827 0.790736 -0.086483
C64   C     C_R   0.461842 0.617828 0.209257 -0.086479
H25   H     H_    0.468769 0.051573 0.886963 0.108545
H26   H     H_    0.531228 0.551577 0.112994 0.108561
H27   H     H_    0.388464 0.221729 0.818858 0.171238
H28   H     H_    0.611531 0.721735 0.181074 0.171236
H29   H     H_    0.375206 0.118230 0.898072 0.130350
H30   H     H_    0.624789 0.618238 0.101846 0.130353
H31   H     H_    0.647342 0.170428 0.637036 0.124380
H32   H     H_    0.352658 0.670426 0.362985 0.124323
S1    S     S_3+6 0.412302 0.320862 0.027366 -0.009346
O21   O     O_2   0.341155 0.319817 0.992769 -0.335401
O22   O     O_2   0.429344 0.267564 0.141478 -0.336173
O23   O     O_3   0.427909 0.379978 0.161850 -0.472267
H33   H     H_    0.475700 0.380407 0.168320 0.315523
S2    S     S_3+6 0.587677 0.820872 0.972597 -0.009311
O24   O     O_2   0.658828 0.819822 0.007154 -0.335401
O25   O     O_2   0.570624 0.767578 0.858480 -0.336135
O26   O     O_3   0.572065 0.879993 0.838140 -0.472238
H34   H     H_    0.524266 0.880463 0.831888 0.315450
C65   C     C_2   0.778695 0.178638 0.026800 0.744331
O27   O     O_2   0.721149 0.173152 0.998007 -0.567094
O28   O     O_R   0.797126 0.199477 0.205226 -0.669021
H35   H     H_    0.758610 0.207038 0.299753 0.290058
C66   C     C_2   0.221262 0.678588 0.973006 0.744354
O29   O     O_2   0.278817 0.673143 0.001749 -0.567058
O30   O     O_R   0.202792 0.699345 0.794515 -0.669037
H36   H     H_    0.241289 0.706875 0.699888 0.290059

loop_
_geom_bond_atom_site_label_1
_geom_bond_atom_site_label_2
_ccdc_geom_bond_type
V4    O20   S    
S2    O24   D    
C25   H3    S    
C26   H4    S    
C24   C66   S    
C42   C64   A    
O4    C2    A    
V1    O19   S    
C56   C58   A    
C66   O29   D    
C17   H7    S    
C14   H16   S    
C7    C9    S    
O9    V1    S    
H21   C55   S    
H20   C62   S    
C11   C13   A    
O7    V1    S    
C3    C64   S    
O3    C1    A    
C2    C35   S    
C30   C34   S    
C49   C63   A    
C47   C51   A    
O12   V4    S    
O13   V3    S    
C45   H27   S    
O7    C3    A    
S1    O23   S    
C38   H24   S    
C9    C11   A    
O5    C7    A    
C34   H6    S    
O6    C8    A    
O8    V2    S    
C25   C27   A    
C48   C50   A    
C26   C28   A    
C43   H29   S    
O3    V1    S    
O14   V4    S    
C41   C43   A    
C10   C12   A    
C25   C35   A    
C24   C36   A    
C40   C62   A    
C16   C18   A    
C13   H15   S    
C21   C29   A    
C2    O12   A    
C5    C39   S    
C18   H8    S    
C17   C19   A    
O10   V2    S    
C18   C20   A    
C28   H18   S    
O1    V3    S    
C28   C30   A    
O11   V3    S    
C22   C24   A    
C21   C23   A    
O17   V3    S    
C4    C63   S    
C13   C15   A    
C41   H25   S    
C52   C60   A    
C23   C35   A    
C32   H14   S    
C37   C61   A    
C21   H9    S    
C9    C19   A    
C60   S2    S    
C50   C64   A    
C15   C17   A    
O8    C4    A    
C46   H28   S    
C1    O11   A    
S2    O26   S    
C16   C32   S    
O15   V3    S    
C23   C65   S    
C12   H2    S    
C31   H13   S    
C46   C48   A    
C27   H17   S    
C43   C45   A    
C42   C44   A    
C22   C30   A    
C44   C46   A    
C10   C20   A    
C11   H1    S    
C54   C56   A    
C6    C40   S    
S1    O21   D    
O5    V1    S    
C51   C53   A    
C52   C54   A    
H19   C61   S    
O18   V4    S    
C31   C33   D    
O28   H35   S    
H22   C56   S    
C55   C57   A    
O16   C6    A    
O1    C3    A    
C59   S1    S    
C38   C62   A    
C65   O27   D    
C1    C36   S    
C37   H23   S    
S1    O22   D    
C51   C59   A    
O26   H34   S    
V2    O20   S    
C66   O30   S    
C41   C63   A    
S2    O25   D    
O16   V4    S    
C58   H32   S    
C37   C53   A    
C33   H5    S    
C65   O28   S    
C29   C33   S    
C47   C49   A    
C39   C61   A    
C15   C31   S    
O6    V2    S    
O30   H36   S    
O10   C6    A    
O18   C8    A    
C50   C58   A    
O2    V4    S    
C26   C36   A    
O15   C5    A    
C49   C57   A    
V3    O19   S    
C12   C14   A    
C14   C16   A    
C45   C47   A    
C40   C60   A    
C48   C52   A    
O9    C5    A    
O13   V1    S    
C32   C34   D    
C20   H12   S    
O14   V2    S    
C42   H26   S    
O2    C4    A    
C19   H11   S    
C22   H10   S    
C8    C10   S    
O4    V2    S    
C39   C59   A    
C44   H30   S    
C53   C55   A    
C38   C54   A    
C57   H31   S    
C27   C29   A    
O23   H33   S    
O17   C7    A    
