data_mof_unit_54335.cif
_audit_creation_date              2013-03-05T15:45:11-0500
_audit_creation_method            fapswitch 2.2
_symmetry_space_group_name_H-M    P1
_symmetry_Int_Tables_number       1
_space_group_crystal_system       triclinic
_cell_length_a                    24.90195
_cell_length_b                    17.213301
_cell_length_c                    15.615941
_cell_angle_alpha                 89.999956
_cell_angle_beta                  50.139744
_cell_angle_gamma                 89.999926
_cell_volume                      5138.14382293

loop_
_atom_site_label
_atom_site_type_symbol
_atom_site_description
_atom_site_fract_x
_atom_site_fract_y
_atom_site_fract_z
_atom_type_partial_charge
C1    C     C_R   0.352213 0.143434 0.752319 -0.105173
C2    C     C_R   0.647765 0.856545 0.247756 -0.105203
C3    C     C_R   0.647786 0.143434 0.247683 -0.105173
C4    C     C_R   0.352236 0.856545 0.752242 -0.105203
C5    C     C_R   0.832866 0.607252 0.802353 -0.113458
C6    C     C_R   0.167132 0.392736 0.197660 -0.113315
C7    C     C_R   0.167134 0.607252 0.197647 -0.113456
C8    C     C_R   0.832868 0.392736 0.802340 -0.113315
H1    H     H_    0.304874 0.157058 0.766444 0.104000
H2    H     H_    0.695098 0.842926 0.233651 0.104021
H3    H     H_    0.695126 0.157058 0.233557 0.104001
H4    H     H_    0.304902 0.842926 0.766349 0.104021
H5    H     H_    0.780523 0.604247 0.830065 0.086936
H6    H     H_    0.219472 0.395732 0.169958 0.086958
H7    H     H_    0.219477 0.604247 0.169935 0.086938
H8    H     H_    0.780528 0.395732 0.830042 0.086959
N1    N     N_R   0.388930 0.078160 0.705470 -0.055389
N2    N     N_R   0.611070 0.921840 0.294530 -0.055411
N3    N     N_R   0.611070 0.078160 0.294530 -0.055390
N4    N     N_R   0.388930 0.921840 0.705470 -0.055412
N5    N     N_R   0.888930 0.578160 0.705470 -0.049985
N6    N     N_R   0.111070 0.421840 0.294530 -0.049979
N7    N     N_R   0.111070 0.578160 0.294530 -0.049985
N8    N     N_R   0.888930 0.421840 0.705470 -0.049979
C9    C     C_R   0.613677 0.106937 0.591046 0.255955
C10   C     C_R   0.386263 0.893270 0.408952 0.255126
C11   C     C_R   0.386320 0.106931 0.408955 0.255944
C12   C     C_R   0.613741 0.893282 0.591047 0.255087
C13   C     C_R   0.090038 0.642337 0.592569 0.336370
C14   C     C_R   0.909963 0.357655 0.407448 0.336441
C15   C     C_R   0.909962 0.642336 0.407430 0.336371
C16   C     C_R   0.090037 0.357655 0.592552 0.336441
N9    N     N_R   0.580500 0.077840 0.556650 -0.093432
N10   N     N_R   0.419500 0.922160 0.443350 -0.093381
N11   N     N_R   0.419500 0.077840 0.443350 -0.093432
N12   N     N_R   0.580500 0.922160 0.556650 -0.093383
N13   N     N_R   0.080500 0.577840 0.556650 -0.080371
N14   N     N_R   0.919500 0.422160 0.443350 -0.080411
N15   N     N_R   0.919500 0.577840 0.443350 -0.080370
N16   N     N_R   0.080500 0.422160 0.556650 -0.080410
C17   C     C_R   0.687118 0.107686 0.405987 -0.202744
C18   C     C_R   0.312847 0.892417 0.594000 -0.202541
C19   C     C_R   0.312880 0.107683 0.594014 -0.202740
C20   C     C_R   0.687156 0.892424 0.406000 -0.202534
C21   C     C_R   0.161687 0.643886 0.406597 -0.186226
C22   C     C_R   0.838269 0.356139 0.593416 -0.186312
C23   C     C_R   0.838314 0.643886 0.593403 -0.186227
C24   C     C_R   0.161730 0.356139 0.406584 -0.186312
H9    H     H_    0.734894 0.108189 0.320088 0.133799
H10   H     H_    0.265077 0.891907 0.679904 0.133654
H11   H     H_    0.265105 0.108187 0.679914 0.133798
H12   H     H_    0.734925 0.891913 0.320095 0.133651
H13   H     H_    0.204327 0.657742 0.320294 0.137576
H14   H     H_    0.795572 0.342328 0.679711 0.137786
H15   H     H_    0.795675 0.657744 0.679706 0.137569
H16   H     H_    0.204427 0.342327 0.320289 0.137782
N17   N     N_R   0.626210 0.077590 0.443410 -0.062243
N18   N     N_R   0.373790 0.922410 0.556590 -0.062240
N19   N     N_R   0.373790 0.077590 0.556590 -0.062244
N20   N     N_R   0.626210 0.922410 0.443410 -0.062241
N21   N     N_R   0.126210 0.577590 0.443410 -0.061812
N22   N     N_R   0.873790 0.422410 0.556590 -0.061845
N23   N     N_R   0.873790 0.577590 0.556590 -0.061810
N24   N     N_R   0.126210 0.422410 0.443410 -0.061844
C25   C     C_R   0.556173 0.146881 0.252979 -0.038631
C26   C     C_R   0.443884 0.853059 0.746845 -0.038201
C27   C     C_R   0.443824 0.146877 0.747030 -0.038661
C28   C     C_R   0.556119 0.853062 0.253145 -0.038228
C29   C     C_R   0.078784 0.606175 0.195542 -0.097637
C30   C     C_R   0.921213 0.393821 0.804458 -0.097907
C31   C     C_R   0.921216 0.606175 0.804458 -0.097642
C32   C     C_R   0.078787 0.393821 0.195541 -0.097909
H17   H     H_    0.517159 0.170223 0.250555 0.129086
H18   H     H_    0.482977 0.829643 0.749032 0.128897
H19   H     H_    0.482834 0.170215 0.749467 0.129090
H20   H     H_    0.517031 0.829651 0.250943 0.128905
H21   H     H_    0.052634 0.600770 0.161465 0.182591
H22   H     H_    0.947352 0.399230 0.838551 0.182537
H23   H     H_    0.947366 0.600769 0.838536 0.182590
H24   H     H_    0.052648 0.399230 0.161449 0.182536
N25   N     N_R   0.554800 0.077270 0.294580 -0.034915
N26   N     N_R   0.445200 0.922730 0.705420 -0.034868
N27   N     N_R   0.445200 0.077270 0.705420 -0.034917
N28   N     N_R   0.554800 0.922730 0.294580 -0.034867
N29   N     N_R   0.054800 0.577270 0.294580 -0.063209
N30   N     N_R   0.945200 0.422730 0.705420 -0.063190
N31   N     N_R   0.945200 0.577270 0.705420 -0.063209
N32   N     N_R   0.054800 0.422730 0.294580 -0.063190
C33   C     C_R   0.386216 0.188554 0.777659 0.083989
C34   C     C_R   0.613734 0.811390 0.222504 0.083851
C35   C     C_R   0.613782 0.188557 0.222348 0.083978
C36   C     C_R   0.386269 0.811387 0.777488 0.083843
C37   C     C_R   0.851473 0.625281 0.866360 0.111993
C38   C     C_R   0.148527 0.374710 0.133650 0.112004
C39   C     C_R   0.148527 0.625282 0.133639 0.111992
C40   C     C_R   0.851473 0.374710 0.866350 0.112004
C41   C     C_R   0.679633 0.127309 0.497627 -0.082875
C42   C     C_R   0.320295 0.872936 0.502349 -0.082416
C43   C     C_R   0.320363 0.127301 0.502375 -0.082875
C44   C     C_R   0.679711 0.872953 0.497650 -0.082381
C45   C     C_R   0.140190 0.685993 0.498981 -0.113172
C46   C     C_R   0.859797 0.314018 0.501031 -0.113385
C47   C     C_R   0.859810 0.685994 0.501018 -0.113168
C48   C     C_R   0.140203 0.314018 0.498969 -0.113384
Ni1   Ni    Ni4+2 0.382710 1.000000 0.629850 0.202536
Ni2   Ni    Ni4+2 0.617290 1.000000 0.370150 0.202537
Ni3   Ni    Ni4+2 0.882710 0.500000 0.629850 0.194631
Ni4   Ni    Ni4+2 0.117290 0.500000 0.370150 0.194631
Ni5   Ni    Ni4+2 0.513020 1.000000 0.629850 0.331493
Ni6   Ni    Ni4+2 0.486980 1.000000 0.370150 0.331494
Ni7   Ni    Ni4+2 0.013020 0.500000 0.629850 0.295883
Ni8   Ni    Ni4+2 0.986980 0.500000 0.370150 0.295884
C49   C     C_R   0.296888 0.242794 0.446995 -0.117586
C50   C     C_R   0.702877 0.757926 0.554319 -0.117675
C51   C     C_R   0.703113 0.242806 0.552992 -0.117570
C52   C     C_R   0.297119 0.757899 0.445712 -0.117598
C53   C     C_R   0.838626 0.810317 0.450829 -0.069926
C54   C     C_R   0.161693 0.189534 0.548279 -0.069869
C55   C     C_R   0.161383 0.810316 0.549155 -0.069913
C56   C     C_R   0.838302 0.189533 0.451731 -0.069867
H25   H     H_    0.349138 0.263531 0.408140 0.108917
H26   H     H_    0.650418 0.737491 0.594009 0.108805
H27   H     H_    0.650866 0.263548 0.591838 0.108918
H28   H     H_    0.349573 0.737455 0.406038 0.108804
H29   H     H_    0.891465 0.829578 0.410203 0.137831
H30   H     H_    0.109048 0.169961 0.588117 0.137111
H31   H     H_    0.108549 0.829586 0.589766 0.137818
H32   H     H_    0.890944 0.169955 0.411902 0.137104
C57   C     C_R   0.794796 0.855478 0.445664 -0.129636
C58   C     C_R   0.205525 0.144399 0.553455 -0.128755
C59   C     C_R   0.205214 0.855473 0.554320 -0.129653
C60   C     C_R   0.794469 0.144400 0.446557 -0.128746
C61   C     C_R   0.253444 0.287658 0.442740 -0.147875
C62   C     C_R   0.746322 0.713014 0.558508 -0.148495
C63   C     C_R   0.746558 0.287669 0.557247 -0.147867
C64   C     C_R   0.253673 0.712992 0.441520 -0.148480
H33   H     H_    0.812696 0.910838 0.402658 0.119063
H34   H     H_    0.187853 0.088722 0.595610 0.119039
H35   H     H_    0.187321 0.910841 0.597309 0.119065
H36   H     H_    0.812137 0.088720 0.404411 0.119040
H37   H     H_    0.271637 0.344024 0.402592 0.125809
H38   H     H_    0.727876 0.656930 0.599469 0.125717
H39   H     H_    0.728369 0.344038 0.597386 0.125810
H40   H     H_    0.272112 0.656902 0.400575 0.125715
C65   C     C_R   0.727389 0.828424 0.497641 0.191321
C66   C     C_R   0.272657 0.171876 0.502547 0.191485
C67   C     C_R   0.272615 0.828407 0.502365 0.191330
C68   C     C_R   0.727340 0.171883 0.497453 0.191486
C69   C     C_R   0.185970 0.261228 0.493942 0.165695
C70   C     C_R   0.814095 0.738967 0.506132 0.165121
C71   C     C_R   0.814029 0.261232 0.506057 0.165701
C72   C     C_R   0.185907 0.738959 0.493870 0.165129
H41   H     H_    0.285792 0.718661 0.818927 0.136431
H42   H     H_    0.714164 0.281359 0.181088 0.136447
H43   H     H_    0.714207 0.718660 0.181073 0.136432
H44   H     H_    0.285837 0.281359 0.818912 0.136448
H45   H     H_    0.711025 0.375706 0.012792 0.126685
H46   H     H_    0.288983 0.624326 0.987184 0.126667
H47   H     H_    0.288975 0.375708 0.987209 0.126685
H48   H     H_    0.711018 0.624325 0.012815 0.126666
C73   C     C_2   0.637578 0.263344 0.164014 -0.197382
C74   C     C_2   0.362482 0.736583 0.835789 -0.197452
C75   C     C_2   0.362420 0.263340 0.835995 -0.197385
C76   C     C_2   0.637521 0.736587 0.164201 -0.197455
C77   C     C_2   0.195340 0.650130 0.016762 -0.172381
C78   C     C_2   0.804658 0.349865 0.983225 -0.172380
C79   C     C_2   0.804659 0.650129 0.983238 -0.172381
C80   C     C_2   0.195343 0.349865 0.016776 -0.172379
C81   C     C_2   0.692565 0.299883 0.142204 -0.097420
C82   C     C_2   0.307433 0.700102 0.857733 -0.097250
C83   C     C_2   0.307435 0.299882 0.857799 -0.097421
C84   C     C_2   0.692568 0.700103 0.142264 -0.097251
C85   C     C_2   0.264876 0.649913 0.955598 -0.111289
C86   C     C_2   0.735125 0.350100 0.044378 -0.111226
C87   C     C_2   0.735124 0.649912 0.044401 -0.111291
C88   C     C_2   0.264875 0.350100 0.955622 -0.111229
H49   H     H_    0.383569 0.717704 0.875471 0.143325
H50   H     H_    0.616535 0.282185 0.124249 0.143442
H51   H     H_    0.616436 0.717709 0.124515 0.143324
H52   H     H_    0.383460 0.282180 0.875764 0.143442
H53   H     H_    0.828070 0.323761 0.015860 0.156772
H54   H     H_    0.171922 0.676211 0.984125 0.156788
H55   H     H_    0.171931 0.323761 0.984140 0.156772
H56   H     H_    0.828078 0.676211 0.015875 0.156788
N33   N     N_R   0.593161 0.095790 0.700019 0.240492
O1    O     O_R   0.638415 0.104797 0.715217 -0.348800
O2    O     O_R   0.530460 0.073262 0.783979 -0.335335
N34   N     N_R   0.406601 0.904861 0.300164 0.240752
O3    O     O_R   0.469608 0.926170 0.215699 -0.335988
O4    O     O_R   0.360914 0.897445 0.285633 -0.348116
N35   N     N_R   0.406831 0.095776 0.299987 0.240503
O5    O     O_R   0.361564 0.104742 0.284808 -0.348805
O6    O     O_R   0.469543 0.073293 0.216006 -0.335350
N36   N     N_R   0.593415 0.904899 0.699822 0.240775
O7    O     O_R   0.530391 0.926134 0.784319 -0.336018
O8    O     O_R   0.639130 0.897583 0.714309 -0.348044
N37   N     N_R   0.073350 0.648177 0.698717 0.216635
O9    O     O_R   0.060435 0.715286 0.746697 -0.417011
O10   O     O_R   0.073970 0.586238 0.745778 -0.357370
N38   N     N_R   0.926684 0.351752 0.301282 0.216608
O11   O     O_R   0.926135 0.413667 0.254109 -0.357490
O12   O     O_R   0.939241 0.284566 0.253651 -0.416527
N39   N     N_R   0.926648 0.648176 0.301283 0.216636
O13   O     O_R   0.939572 0.715282 0.253295 -0.417020
O14   O     O_R   0.926028 0.586236 0.254224 -0.357366
N40   N     N_R   0.073316 0.351753 0.698718 0.216608
O15   O     O_R   0.073865 0.413669 0.745889 -0.357490
O16   O     O_R   0.060756 0.284568 0.746353 -0.416532

loop_
_geom_bond_atom_site_label_1
_geom_bond_atom_site_label_2
_geom_bond_distance
_ccdc_geom_bond_type
C48   C69   1.419888 S    
C14   N38   1.430885 S    
N39   O13   1.300115 A    
N5    N31   1.400819 A    
C27   N27   1.352949 A    
N4    N26   1.400819 A    
C2    N2    1.332736 A    
C31   C37   1.380893 A    
C29   H21   1.077056 S    
C26   N26   1.353011 A    
C8    C40   1.379759 A    
C24   H16   1.079978 S    
N29   Ni8   1.859901 S    
C19   H11   1.081286 S    
C18   N18   1.332112 A    
C31   H23   1.077054 S    
C29   N29   1.346166 A    
C28   C34   1.386340 A    
N39   O14   1.300606 A    
C11   C43   1.370194 A    
N19   Ni1   1.862158 S    
C6    H6    1.079743 S    
C22   N22   1.327544 A    
C77   H54   1.087378 S    
N34   O4    1.301166 A    
C30   H22   1.077027 S    
C19   C43   1.361908 A    
N15   N23   1.357417 A    
C18   C42   1.361968 A    
C55   H31   1.083372 S    
C23   N23   1.327485 A    
C9    N33   1.441954 S    
N6    Ni4   1.860916 S    
C58   C66   1.395282 A    
N33   O2    1.297388 A    
N31   Ni7   1.859897 S    
C42   C67   1.413111 S    
C77   C85   1.338139 D    
C6    N6    1.334627 A    
C27   C33   1.386305 A    
C25   H17   1.074196 S    
C14   N14   1.332001 A    
C3    C35   1.380677 A    
N37   O10   1.300606 A    
N21   Ni4   1.862158 S    
C74   H49   1.087407 S    
C59   H35   1.083554 S    
C47   C70   1.420289 S    
C64   C72   1.395503 A    
C10   N34   1.442026 S    
H43   C84   1.085505 S    
C10   N10   1.338188 A    
C1    H1    1.077023 S    
C51   C63   1.365046 A    
N38   O11   1.300609 A    
C6    C38   1.379758 A    
H41   C82   1.085503 S    
C12   N36   1.442016 S    
C81   C86   1.459028 S    
C16   C48   1.385748 A    
C3    N3    1.332745 A    
C53   C70   1.396847 A    
N6    N32   1.400814 A    
C4    H4    1.077030 S    
C75   C83   1.337436 D    
C15   N39   1.430900 S    
C7    N7    1.334664 A    
C84   C87   1.459098 S    
C19   N19   1.331994 A    
H45   C86   1.084982 S    
C32   C38   1.380868 A    
C5    C37   1.379770 A    
C12   C44   1.370073 A    
C7    H7    1.079747 S    
N36   O7    1.297410 A    
C21   H13   1.079969 S    
C8    H8    1.079742 S    
C49   C61   1.365045 A    
C24   C48   1.379510 A    
C14   C46   1.385746 A    
C78   H53   1.087377 S    
C11   N35   1.441958 S    
C4    N4    1.332736 A    
C39   C77   1.464845 S    
C17   H9    1.081286 S    
C32   N32   1.346165 A    
N24   Ni4   1.862158 S    
N16   Ni7   1.861034 S    
C60   H36   1.083586 S    
N11   N19   1.357417 A    
C1    C33   1.380680 A    
C78   C86   1.338106 D    
C23   C47   1.379593 A    
N35   O5    1.301211 A    
C28   N28   1.353009 A    
N26   Ni5   1.859900 S    
C51   H27   1.084680 S    
C38   C80   1.464793 S    
C61   C69   1.395484 A    
N40   O15   1.300611 A    
C26   C36   1.386342 A    
N22   Ni3   1.862161 S    
N12   N20   1.357417 A    
C51   C68   1.391350 A    
N28   Ni6   1.859901 S    
C32   H24   1.077029 S    
H42   C81   1.085510 S    
C34   C76   1.465074 S    
N34   O3    1.297412 A    
N1    N27   1.400819 A    
C5    N5    1.334662 A    
C60   C68   1.395284 A    
C49   C66   1.391351 A    
C15   C47   1.385900 A    
C54   C69   1.396751 A    
C30   C40   1.380869 A    
N35   O6    1.297384 A    
C54   C58   1.383697 A    
N1    Ni1   1.860912 S    
H48   C87   1.084982 S    
C62   H38   1.084202 S    
C22   C46   1.379509 A    
H46   C85   1.084980 S    
C25   N25   1.352954 A    
C79   H56   1.087375 S    
C74   C82   1.337468 D    
C44   C65   1.413128 S    
C80   H55   1.087378 S    
C22   H14   1.079978 S    
N27   Ni5   1.859897 S    
N36   O8    1.301192 A    
C50   C62   1.364938 A    
C13   C45   1.385895 A    
N8    Ni3   1.860912 S    
C59   C67   1.395283 A    
C76   H51   1.087408 S    
C37   C79   1.464841 S    
N5    Ni3   1.860912 S    
N11   Ni6   1.861031 S    
C21   C45   1.379591 A    
C10   C42   1.370080 A    
C30   N30   1.346165 A    
C31   N31   1.346165 A    
C9    C41   1.370196 A    
N15   Ni8   1.861031 S    
C43   C66   1.412768 S    
C18   H10   1.081285 S    
C13   N37   1.430900 S    
H47   C88   1.084980 S    
C58   H34   1.083585 S    
N10   Ni6   1.861034 S    
C41   C68   1.412761 S    
C17   C41   1.361912 A    
C76   C84   1.337464 D    
C27   H19   1.074198 S    
C24   N24   1.327544 A    
N23   Ni3   1.862158 S    
C2    H2    1.077033 S    
N12   Ni5   1.861034 S    
C53   C57   1.383806 A    
C23   H15   1.079968 S    
N4    Ni1   1.860912 S    
C55   C59   1.383794 A    
C36   C74   1.465079 S    
C55   C72   1.396849 A    
C25   C35   1.386306 A    
C56   C71   1.396751 A    
N9    N17   1.357417 A    
C52   H28   1.084676 S    
C62   C70   1.395500 A    
C56   C60   1.383693 A    
C5    H5    1.079747 S    
C50   C65   1.391415 A    
C29   C39   1.380894 A    
C52   C67   1.391419 A    
N13   N21   1.357417 A    
C56   H32   1.083385 S    
C52   C64   1.364938 A    
N20   Ni2   1.862158 S    
C28   H20   1.074208 S    
C49   H25   1.084679 S    
C7    C39   1.379771 A    
C83   C88   1.459023 S    
C46   C71   1.419881 S    
C45   C72   1.420273 S    
C1    N1    1.332743 A    
N16   N24   1.357417 A    
N18   Ni1   1.862161 S    
C11   N11   1.338193 A    
N30   Ni7   1.859900 S    
C73   C81   1.337438 D    
N2    N28   1.400814 A    
C64   H40   1.084210 S    
C20   C44   1.361966 A    
C20   H12   1.081284 S    
N33   O1    1.301203 A    
N8    N30   1.400819 A    
N2    Ni2   1.860916 S    
C20   N20   1.332116 A    
C63   C71   1.395485 A    
N7    Ni4   1.860913 S    
C50   H26   1.084675 S    
C21   N21   1.327484 A    
C63   H39   1.084257 S    
C8    N8    1.334628 A    
C15   N15   1.332053 A    
N17   Ni2   1.862158 S    
N9    Ni5   1.861034 S    
C40   C78   1.464797 S    
C57   C65   1.395282 A    
C16   N16   1.332002 A    
N37   O9    1.300116 A    
C16   N40   1.430884 S    
N13   Ni7   1.861034 S    
C3    H3    1.077022 S    
C17   N17   1.331992 A    
N32   Ni8   1.859901 S    
N3    Ni2   1.860913 S    
C53   H29   1.083369 S    
C79   C87   1.338135 D    
C57   H33   1.083546 S    
N25   Ni6   1.859901 S    
C12   N12   1.338196 A    
H44   C83   1.085512 S    
C2    C34   1.380639 A    
N7    N29   1.400814 A    
C13   N13   1.332049 A    
C75   H52   1.087411 S    
N10   N18   1.357417 A    
C35   C73   1.465009 S    
C61   H37   1.084255 S    
C54   H30   1.083382 S    
C80   C88   1.338103 D    
C4    C36   1.380637 A    
C73   H50   1.087410 S    
N3    N25   1.400814 A    
N40   O16   1.300143 A    
N14   Ni8   1.861034 S    
C33   C75   1.465006 S    
N38   O12   1.300144 A    
C9    N9    1.338184 A    
N14   N22   1.357417 A    
C82   C85   1.459103 S    
C26   H18   1.074209 S    
