data_mof_unit_63252.cif
_audit_creation_date              2012-12-11T17:07:08-0500
_audit_creation_method            fapswitch 2.2
_symmetry_space_group_name_H-M    P1
_symmetry_Int_Tables_number       1
_space_group_crystal_system       triclinic
_cell_length_a                    8.265503
_cell_length_b                    14.969537
_cell_length_c                    16.410823
_cell_angle_alpha                 97.411706
_cell_angle_beta                  93.59489
_cell_angle_gamma                 97.743177
_cell_volume                      1988.56109835

loop_
_atom_site_label
_atom_site_type_symbol
_atom_type_description
_atom_site_fract_x
_atom_site_fract_y
_atom_site_fract_z
_atom_type_partial_charge
Ba1   Ba    Ba6+2 0.163640 0.544330 0.462610 1.768113
Ba2   Ba    Ba6+2 0.646540 0.455660 0.537320 1.758293
C1    C     C_3   0.405853 0.803591 0.159381 0.756248
C2    C     C_R   0.096355 0.077140 0.542362 -0.022707
C3    C     C_R   0.956140 0.890147 0.529101 -0.007310
C4    C     C_3   0.959807 0.793099 0.301174 0.402614
C5    C     C_R   0.114903 0.922067 0.565990 0.003698
C6    C     C_R   0.183546 0.012885 0.572465 -0.028955
C7    C     C_R   0.884844 0.796980 0.524164 0.008502
C8    C     C_R   0.729570 0.769769 0.482588 -0.276050
C9    C     C_R   0.919909 0.204590 0.477144 0.039645
C10   C     C_R   0.851719 0.110975 0.466964 -0.134180
C11   C     C_R   0.937861 0.047433 0.502007 0.003747
C12   C     C_3   0.475490 0.787785 0.244556 0.907084
C13   C     C_R   0.699674 0.078998 0.423227 -0.055546
C14   C     C_R   0.625966 0.989458 0.419930 0.624050
C15   C     C_R   0.708130 0.924486 0.454423 -0.103338
C16   C     C_3   0.991192 0.892906 0.286159 0.743658
C17   C     C_R   0.867115 0.953786 0.495161 -0.044577
C18   C     C_R   0.640265 0.831197 0.447879 0.060867
C19   C     C_R   0.071534 0.232712 0.521386 -0.270867
C20   C     C_R   0.621093 0.539368 0.267468 -0.309285
C21   C     C_R   0.472081 0.484906 0.238758 -0.000630
C22   C     C_R   0.427729 0.465513 0.153090 0.088108
C23   C     C_3   0.626782 0.739228 0.729783 0.370344
C24   C     C_R   0.523747 0.510910 0.097957 0.275899
C25   C     C_R   0.678813 0.559279 0.127830 -0.131658
C26   C     C_R   0.729817 0.570936 0.212103 -0.047648
C27   C     C_R   0.380413 0.525861 0.853566 -0.094384
C28   C     C_3   0.771838 0.345583 0.286404 0.362424
C29   C     C_R   0.328651 0.517701 0.770006 0.043770
C30   C     C_R   0.272623 0.493751 0.910075 0.288391
C31   C     C_R   0.172583 0.474540 0.740937 -0.195341
C32   C     C_R   0.061750 0.444321 0.795403 -0.023807
C33   C     C_R   0.108927 0.456863 0.880970 0.091733
C34   C     C_3   0.686711 0.748854 0.820744 -0.218540
C35   C     C_3   0.735726 0.319934 0.193565 0.581793
C36   C     C_3   0.132445 0.776315 0.723355 0.350423
C37   C     C_3   0.181079 0.738854 0.802241 0.606043
C38   C     C_3   0.251989 0.269594 0.355110 0.274534
C39   C     C_3   0.223442 0.166722 0.330217 -0.259521
C40   C     C_3   0.822043 0.212055 0.703964 0.390486
C41   C     C_3   0.825202 0.117366 0.727544 0.622374
C42   C     C_3   0.352901 0.242805 0.755430 1.196653
C43   C     C_3   0.376504 0.209288 0.838588 0.671168
C44   C     C_R   0.163180 0.170303 0.551090 0.021270
F1    F     F_    0.858051 0.275296 0.160980 -0.616490
F2    F     F_    0.153550 0.928464 0.306662 -0.642251
F3    F     F_    0.058054 0.738513 0.855476 -0.678271
F4    F     F_    0.247573 0.759081 0.142685 -0.640844
F5    F     F_    0.619335 0.846758 0.265256 -0.797028
F6    F     F_    0.689079 0.092224 0.768658 -0.592030
F7    F     F_    0.187395 0.240737 0.737349 -0.857357
F8    F     F_    0.430074 0.331360 0.762007 -0.688873
F9    F     F_    0.541084 0.220264 0.864809 -0.587205
F10   F     F_    0.472830 0.969087 0.382286 -0.633767
H1    H     H_    0.499169 0.716101 0.241698 -0.199404
H2    H     H_    0.175017 0.131821 0.380931 0.071593
H3    H     H_    0.340588 0.142308 0.315181 0.166475
H4    H     H_    0.709315 0.706335 0.689001 0.081484
H5    H     H_    0.716067 0.682672 0.836604 0.117225
H6    H     H_    0.797521 0.800227 0.834503 0.212390
H7    H     H_    0.591055 0.771352 0.859941 0.126559
H8    H     H_    0.917227 0.933503 0.326340 -0.057263
H9    H     H_    0.711197 0.211529 0.662801 0.061512
H10   H     H_    0.929468 0.228736 0.668883 -0.067930
H11   H     H_    0.825094 0.067728 0.671113 -0.059383
H12   H     H_    0.616562 0.274609 0.179938 0.042702
H13   H     H_    0.937485 0.116420 0.768077 0.071934
H14   H     H_    0.312545 0.249044 0.885116 -0.006723
H15   H     H_    0.036938 0.786869 0.357424 0.041176
H16   H     H_    0.324443 0.136221 0.833709 0.010256
H17   H     H_    0.189757 0.878318 0.592231 0.106026
H18   H     H_    0.305747 0.031775 0.602454 0.120974
H19   H     H_    0.632231 0.122899 0.391698 0.134148
H20   H     H_    0.675665 0.699231 0.478668 0.064866
H21   H     H_    0.123155 0.303921 0.528833 0.058353
H22   H     H_    0.502529 0.560017 0.874709 0.098222
H23   H     H_    0.729711 0.381768 0.163794 -0.084975
H24   H     H_    0.760162 0.587169 0.085276 0.147355
H25   H     H_    0.830170 0.775344 0.313635 -0.125379
H26   H     H_    0.658619 0.550650 0.332784 0.075968
H27   H     H_    0.135122 0.467707 0.675766 0.058931
H28   H     H_    0.666159 0.373541 0.312527 -0.154024
H29   H     H_    0.882216 0.397837 0.298471 0.031221
H30   H     H_    0.240765 0.783172 0.687328 0.032766
H31   H     H_    0.294137 0.780387 0.834150 0.045208
H32   H     H_    0.203015 0.668042 0.786832 -0.070784
H33   H     H_    0.133958 0.293218 0.367815 0.005204
H34   H     H_    0.338658 0.286113 0.411208 0.045846
H35   H     H_    0.133767 0.148343 0.275328 0.174941
I1    I     I_    0.071655 0.909568 0.762775 -0.381981
I2    I     I_    0.543573 0.753000 0.062398 -0.313980
I3    I     I_    0.614394 0.870407 0.694001 -0.403392
I4    I     I_    0.406720 0.946054 0.153564 -0.048746
I5    I     I_    0.247038 0.351054 0.106171 -0.184222
I6    I     I_    0.932478 0.425731 0.966141 -0.176084
I7    I     I_    0.927563 0.913465 0.162261 -0.090295
N1    N     N_2   0.474515 0.504649 0.012047 -0.185880
N2    N     N_2   0.323362 0.500998 0.995932 -0.157289
O1    O     O_2   0.162600 0.722340 0.548210 -0.477632
O2    O     O_2   0.720008 0.433084 0.785663 -0.381859
O3    O     O_3   0.822042 0.274959 0.775443 -0.501609
O4    O     O_3   0.890740 0.608910 0.545450 -0.463955
O5    O     O_3   0.431610 0.453580 0.401810 -0.495039
O6    O     O_2   0.628260 0.544210 0.698310 -0.458181
O7    O     O_3   0.466482 0.694338 0.717562 -0.688457
O8    O     O_2   0.497918 0.173678 0.542371 -0.515875
O9    O     O_3   0.419630 0.186259 0.694811 -0.611266
O10   O     O_3   0.394140 0.666560 0.400120 -0.501519
O11   O     O_2   0.306668 0.821772 0.456373 -0.439332
O12   O     O_3   0.316439 0.309413 0.289508 -0.599929
O13   O     O_3   0.998700 0.715853 0.680886 -0.639643
O14   O     O_3   0.362194 0.806203 0.302615 -0.486506
O15   O     O_2   0.182040 0.455730 0.301660 -0.449694
O16   O     O_3   0.971540 0.620730 0.357730 -0.519065
O17   O     O_2   0.069824 0.567752 0.211189 -0.412908
O18   O     O_3   0.997861 0.734013 0.233444 -0.515596
O19   O     O_2   0.647690 0.277600 0.451760 -0.475024
O20   O     O_3   0.919560 0.391080 0.454480 -0.505200
O21   O     O_3   0.416160 0.333430 0.599820 -0.426131
O22   O     O_3   0.797931 0.267347 0.320482 -0.616831
O23   O     O_3   0.378690 0.546410 0.598120 -0.447942
O24   O     O_3   0.838760 0.379260 0.642200 -0.506865
P1    P     P_3+3 0.987090 0.708160 0.571840 0.989908
P2    P     P_3+3 0.349530 0.428340 0.313070 1.046203
P3    P     P_3+3 0.941340 0.621536 0.251707 1.052285
P4    P     P_3+3 0.823210 0.291830 0.428100 0.981545
P5    P     P_3+3 0.859843 0.385532 0.749801 1.136069
P6    P     P_3+3 0.430975 0.783439 0.400351 1.133855
P7    P     P_3+3 0.454624 0.575922 0.700212 0.977902
P8    P     P_3+3 0.373242 0.215476 0.596474 1.029213

loop_
_geom_bond_atom_site_label_1
_geom_bond_atom_site_label_2
_ccdc_geom_bond_type
C13   H19   S    
O2    P5    D    
C37   H31   S    
C2    C6    A    
C40   O3    S    
C14   F10   S    
C5    C6    A    
C38   O12   S    
C2    C44   A    
Ba2   O23   S    
C35   H23   S    
C24   C25   A    
O15   P2    D    
O5    P2    S    
C36   H30   S    
C20   H26   S    
Ba1   P1    S    
C39   H2    S    
C32   C33   A    
C27   C30   A    
C22   I5    S    
C44   P8    S    
C36   C37   S    
C41   F6    S    
O13   P1    S    
C13   C14   A    
C35   H12   S    
C36   I1    S    
C15   C18   A    
Ba1   Ba2   S    
C2    C11   A    
C29   P7    S    
C8    H20   S    
C42   F7    S    
O17   P3    D    
C23   H4    S    
C27   H22   S    
C28   O22   S    
C32   P5    S    
C8    C18   A    
C14   C15   A    
O16   P3    S    
C40   H9    S    
O1    P1    D    
C21   C22   A    
C29   C31   A    
Ba1   O16   S    
C38   H33   S    
C35   F1    S    
C34   H7    S    
C7    C8    A    
O12   P2    S    
C26   P3    S    
C24   N1    S    
O23   P7    S    
O19   P4    D    
C23   I3    S    
C41   H13   S    
C4    H25   S    
C20   C26   A    
C43   H16   S    
O22   P4    S    
O14   P6    S    
O6    P7    D    
C37   H32   S    
C34   H6    S    
C1    F4    S    
C4    H15   S    
C4    C16   S    
C11   C17   A    
C30   C33   A    
Ba1   P2    S    
C39   H3    S    
O7    P7    S    
C25   H24   S    
C18   P6    S    
C3    C5    A    
C36   O13   S    
Ba2   O20   S    
C12   O14   S    
Ba2   O6    S    
C7    P1    S    
C30   N2    S    
C28   C35   S    
Ba1   O20   S    
Ba1   O23   S    
C3    C7    A    
Ba1   O10   S    
O3    P5    S    
O11   P6    D    
C12   F5    S    
C10   C13   A    
Ba2   O4    S    
C9    C10   A    
C5    H17   S    
O9    P8    S    
C6    H18   S    
C31   C32   A    
C1    I2    S    
C28   H29   S    
C31   H27   S    
Ba1   O4    S    
C1    C12   S    
C21   P2    S    
O4    P1    S    
C38   C39   S    
C39   H35   S    
O18   P3    S    
O21   P8    S    
C34   H5    S    
Ba1   O1    S    
C42   C43   S    
C23   O7    S    
C19   C44   A    
Ba2   O21   S    
C12   H1    S    
C37   F3    S    
C43   H14   S    
C22   C24   A    
C16   F2    S    
Ba2   O19   S    
O20   P4    S    
C3    C17   A    
Ba2   O24   S    
Ba1   O15   S    
Ba2   O5    S    
N1    N2    D    
C9    P4    S    
C27   C29   A    
C42   O9    S    
C16   H8    S    
C15   C17   A    
C9    C19   A    
O24   P5    S    
O10   P6    S    
C28   H28   S    
O8    P8    D    
C23   C34   S    
C42   F8    S    
C10   C11   A    
C43   F9    S    
C41   H11   S    
C40   C41   S    
C19   H21   S    
C25   C26   A    
C40   H10   S    
C20   C21   A    
C1    I4    S    
C16   I7    S    
C38   H34   S    
C33   I6    S    
C4    O18   S    
Ba1   O5    S    
Ba2   P4    S    
