data_mof_unit_41459.cif
_audit_creation_date              2013-03-05T16:15:18-0500
_audit_creation_method            fapswitch 2.2
_symmetry_space_group_name_H-M    P1
_symmetry_Int_Tables_number       1
_space_group_crystal_system       triclinic
_cell_length_a                    27.787501
_cell_length_b                    10.63506
_cell_length_c                    9.406039
_cell_angle_alpha                 89.703673
_cell_angle_beta                  90.150483
_cell_angle_gamma                 89.95435
_cell_volume                      2779.64133965

loop_
_atom_site_label
_atom_site_type_symbol
_atom_site_description
_atom_site_fract_x
_atom_site_fract_y
_atom_site_fract_z
_atom_type_partial_charge
O1    O     O_R   0.500020 0.316850 0.620870 -0.535076
O2    O     O_R   0.499980 0.683150 0.379130 -0.535107
O3    O     O_R   0.500000 0.316860 0.379090 -0.593687
O4    O     O_R   0.500000 0.683140 0.620910 -0.593840
C1    C     C_R   0.499811 0.259494 0.500602 0.873601
C2    C     C_R   0.500169 0.740504 0.499394 0.872255
O5    O     O_R   0.430270 0.500020 0.620880 -0.584871
O6    O     O_R   0.569730 0.499980 0.379120 -0.584390
O7    O     O_R   0.430250 0.500030 0.379090 -0.571830
O8    O     O_R   0.569750 0.499970 0.620910 -0.571894
C3    C     C_R   0.407633 0.502893 0.499841 0.862585
C4    C     C_R   0.592357 0.497281 0.500166 0.863778
Cu1   Cu    Cu3+1 0.500010 0.499990 0.643150 0.992685
Cu2   Cu    Cu3+1 0.499990 0.500010 0.356850 0.992795
C5    C     C_R   0.177944 0.424525 0.404361 0.587530
C6    C     C_R   0.821986 0.569241 0.603510 0.583025
O9    O     O_2   0.202587 0.357132 0.307508 -0.494796
O10   O     O_2   0.797277 0.628474 0.706830 -0.494368
N1    N     N_R   0.202298 0.492022 0.504661 -0.451971
N2    N     N_R   0.797700 0.510244 0.496344 -0.452029
C7    C     C_R   0.178503 0.561158 0.604493 0.605887
C8    C     C_R   0.821619 0.449489 0.389950 0.608846
C9    C     C_R   0.277466 0.570630 0.403637 -0.190324
C10   C     C_R   0.722550 0.428638 0.594714 -0.188785
C11   C     C_R   0.327823 0.579217 0.402349 -0.048604
C12   C     C_R   0.672201 0.419752 0.595860 -0.050186
C13   C     C_R   0.330699 0.428716 0.599031 -0.258080
C14   C     C_R   0.669166 0.574523 0.403492 -0.259517
C15   C     C_R   0.280608 0.422623 0.600474 0.450808
C16   C     C_R   0.719245 0.581387 0.402539 0.452264
C17   C     C_R   0.253879 0.493762 0.502330 0.245833
C18   C     C_R   0.746089 0.507991 0.498376 0.243263
C19   C     C_R   0.102039 0.495619 0.503518 -0.042466
C20   C     C_R   0.897989 0.506752 0.497854 -0.042434
C21   C     C_R   0.127415 0.425223 0.401746 -0.034676
C22   C     C_R   0.872514 0.568455 0.606382 -0.034109
C23   C     C_R   0.101975 0.357075 0.299934 -0.124315
C24   C     C_R   0.897847 0.626864 0.715932 -0.125913
C25   C     C_R   0.128001 0.563736 0.606237 -0.034099
C26   C     C_R   0.872125 0.447237 0.388278 -0.034614
C27   C     C_R   0.354760 0.505376 0.500195 -0.164153
C28   C     C_R   0.645208 0.495311 0.499897 -0.163680
H1    H     H_    0.350987 0.371718 0.673974 0.188145
H2    H     H_    0.648787 0.633085 0.330322 0.187647
H3    H     H_    0.120624 0.300852 0.221655 0.198076
H4    H     H_    0.879098 0.673589 0.801644 0.198882
C29   C     C_R   0.974213 0.438713 0.390628 0.040960
C30   C     C_R   0.025860 0.567502 0.607854 0.040912
C31   C     C_R   0.974679 0.566672 0.609280 0.040942
C32   C     C_R   0.025307 0.431881 0.395214 0.040051
C33   C     C_R   0.949179 0.504109 0.499211 0.074750
C34   C     C_R   0.050850 0.498278 0.502247 0.074396
C35   C     C_R   0.947002 0.382862 0.280240 -0.198173
C36   C     C_R   0.053216 0.636129 0.708210 -0.196745
C37   C     C_R   0.897057 0.386773 0.279674 -0.125569
C38   C     C_R   0.103174 0.633957 0.707264 -0.125519
O11   O     O_2   0.796555 0.390590 0.286806 -0.491775
O12   O     O_2   0.203694 0.627735 0.701156 -0.493868
C39   C     C_R   0.052023 0.359922 0.296660 -0.197260
C40   C     C_R   0.947816 0.625837 0.717869 -0.198647
H5    H     H_    0.743962 0.370727 0.665916 0.190962
H6    H     H_    0.256096 0.627061 0.330825 0.190057
H7    H     H_    0.878014 0.341918 0.193009 0.194619
H8    H     H_    0.122316 0.688264 0.786460 0.194770
H9    H     H_    0.963078 0.336507 0.190698 0.144112
H10   H     H_    0.037288 0.694830 0.788181 0.144647
H11   H     H_    0.035537 0.302562 0.216221 0.145430
H12   H     H_    0.964148 0.670909 0.808043 0.144936
C41   C     C_3   0.498387 0.037978 0.634215 0.459310
C42   C     C_3   0.501581 0.962014 0.365767 0.460066
C43   C     C_3   0.538920 0.956970 0.571002 -0.258013
C44   C     C_3   0.461047 0.043024 0.428978 -0.256558
H13   H     H_    0.570592 0.919597 0.629759 0.187113
H14   H     H_    0.429377 0.080398 0.370217 0.187227
C45   C     C_3   0.500169 0.877170 0.497733 -0.127608
C46   C     C_3   0.499799 0.122823 0.502250 -0.128445
C47   C     C_3   0.459624 0.956497 0.562343 -0.213315
C48   C     C_3   0.540342 0.043493 0.437637 -0.213785
H15   H     H_    0.426783 0.918497 0.613955 0.196763
H16   H     H_    0.573184 0.081487 0.386023 0.197387
C49   C     C_3   0.533872 0.571122 0.050549 -0.010302
C50   C     C_3   0.466131 0.428874 0.949449 -0.010173
C51   C     C_3   0.493362 0.612279 0.948848 0.001478
C52   C     C_3   0.506640 0.387718 0.051151 0.001740
H17   H     H_    0.487674 0.707022 0.901641 0.181377
H18   H     H_    0.512325 0.292975 0.098359 0.181398
H19   H     H_    0.562295 0.631058 0.098190 0.161645
H20   H     H_    0.437705 0.368945 0.901808 0.161447
N3    N     N_3   0.500040 0.499970 0.858290 -0.185329
N4    N     N_3   0.499960 0.500030 0.141710 -0.185376
C53   C     C_3   0.540550 0.458825 0.950140 -0.032175
C54   C     C_3   0.459453 0.541168 0.049849 -0.032600
H21   H     H_    0.574642 0.423819 0.903591 0.166178
H22   H     H_    0.425356 0.576132 0.096352 0.166543
Cl1   Cl    Cl    0.496077 0.085990 0.815364 -0.582758
Cl2   Cl    Cl    0.503897 0.914003 0.184618 -0.583014
Cl3   Cl    Cl    0.252002 0.323819 0.724641 -0.528120
Cl4   Cl    Cl    0.747622 0.684498 0.282403 -0.526991
C55   C     C_2   0.649537 0.325869 0.692078 0.861819
O13   O     O_2   0.667902 0.302166 0.807489 -0.559740
O14   O     O_R   0.608320 0.260869 0.649135 -0.768850
H23   H     H_    0.596701 0.198749 0.723569 0.358045
C56   C     C_2   0.350538 0.671405 0.304200 0.861559
O15   O     O_2   0.332375 0.692633 0.187913 -0.561047
O16   O     O_R   0.391537 0.737768 0.346322 -0.767321
H24   H     H_    0.403219 0.798569 0.270594 0.358345

loop_
_geom_bond_atom_site_label_1
_geom_bond_atom_site_label_2
_geom_bond_distance
_ccdc_geom_bond_type
C16   C18   1.402339 A    
O14   H23   1.013723 S    
C42   C48   1.540050 S    
C41   C47   1.540066 S    
C44   C46   1.535702 S    
N1    C17   1.433654 S    
C8    O11   1.349870 S    
C2    C45   1.453460 S    
C19   C34   1.422699 A    
C30   C36   1.416268 A    
C51   C54   1.536475 S    
C20   C33   1.422723 A    
C19   C25   1.408246 A    
C50   N3    1.481015 S    
C20   C26   1.408203 A    
C32   C39   1.416379 A    
N1    C7    1.367184 A    
C10   C12   1.402399 A    
C48   H16   1.110257 S    
C13   C15   1.393564 A    
C50   C54   1.537782 S    
C41   C46   1.531412 S    
C14   C28   1.404025 A    
O4    Cu1   1.957936 S    
C41   C43   1.540001 S    
Cu2   N4    2.023613 S    
C4    C28   1.468750 S    
C39   H11   1.076027 S    
C5    N1    1.366652 A    
C9    H6    1.083934 S    
C42   Cl2   1.782583 S    
C25   C38   1.395208 A    
C31   C33   1.421500 A    
C37   H7    1.083631 S    
C32   C34   1.421395 A    
C38   H8    1.083634 S    
C52   C53   1.536525 S    
N3    C53   1.481633 S    
C35   H9    1.076043 S    
C6    N2    1.367048 A    
C12   C55   1.485685 S    
C29   C35   1.416197 A    
Cu1   N3    2.023613 S    
C47   H15   1.110259 S    
Cu1   Cu2   2.692946 S    
O2    C2    1.287953 A    
C52   N4    1.482466 S    
C5    C21   1.404230 A    
C49   C51   1.537206 S    
C29   C32   1.422118 A    
C35   C37   1.388410 A    
C51   N3    1.482428 S    
C36   C38   1.388443 A    
C44   H14   1.110220 S    
C11   C27   1.418435 A    
C43   H13   1.110222 S    
C11   C56   1.485467 S    
C29   C33   1.421634 A    
C41   Cl1   1.782589 S    
C14   H2    1.084059 S    
C9    C17   1.398520 A    
O5    C3    1.299481 A    
O7    Cu2   1.949704 S    
C10   C18   1.399009 A    
C44   C47   1.552530 S    
C53   H21   1.109513 S    
O7    C3    1.300001 A    
C13   C27   1.404368 A    
N4    C54   1.481605 S    
C55   O13   1.223302 D    
C7    C25   1.403725 A    
C30   C34   1.421720 A    
O6    C4    1.299361 A    
C26   C37   1.395284 A    
C8    C26   1.403735 A    
C54   H22   1.109304 S    
C31   C40   1.416429 A    
C56   O16   1.398137 S    
C23   C39   1.388615 A    
C45   C47   1.535489 S    
C49   H19   1.110320 S    
O3    Cu2   1.957935 S    
O8    C4    1.299759 A    
C10   H5    1.083936 S    
C24   C40   1.388619 A    
C49   N4    1.481052 S    
O4    C2    1.292842 A    
C30   C31   1.422322 A    
C51   H17   1.110019 S    
N2    C8    1.367571 A    
C50   C52   1.537194 S    
O1    C1    1.287992 A    
O1    Cu1   1.960025 S    
C23   H3    1.083627 S    
C42   C45   1.531411 S    
C12   C28   1.418122 A    
N2    C18   1.434547 S    
C21   C23   1.395187 A    
C5    O9    1.349728 S    
O6    Cu2   1.948641 S    
C55   O14   1.398024 S    
C46   C48   1.535499 S    
O3    C1    1.292824 A    
O8    Cu1   1.949704 S    
C36   H10   1.075926 S    
O16   H24   1.013727 S    
C16   Cl4   1.759090 S    
C15   Cl3   1.758858 S    
C1    C46   1.453509 S    
C22   C24   1.395245 A    
C7    O12   1.349849 S    
C15   C17   1.401612 A    
C6    C22   1.404253 A    
C43   C45   1.535672 S    
C50   H20   1.110322 S    
C14   C16   1.393600 A    
C19   C21   1.408623 A    
C3    C27   1.469429 S    
C20   C22   1.408456 A    
C9    C11   1.402417 A    
O2    Cu2   1.960024 S    
C24   H4    1.083632 S    
C49   C53   1.537846 S    
C13   H1    1.084023 S    
O5    Cu1   1.948641 S    
C40   H12   1.075949 S    
C6    O10   1.349764 S    
C56   O15   1.223296 D    
C52   H18   1.110020 S    
C42   C44   1.540007 S    
C43   C48   1.552509 S    
