data_mof_unit_10566.cif
_audit_creation_date              2012-12-10T16:37:47-0500
_audit_creation_method            fapswitch 2.2
_symmetry_space_group_name_H-M    P1
_symmetry_Int_Tables_number       1
_space_group_crystal_system       triclinic
_cell_length_a                    28.127499
_cell_length_b                    18.442607
_cell_length_c                    17.034554
_cell_angle_alpha                 89.856649
_cell_angle_beta                  60.903611
_cell_angle_gamma                 89.630346
_cell_volume                      7721.26594915

loop_
_atom_site_label
_atom_site_type_symbol
_atom_type_description
_atom_site_fract_x
_atom_site_fract_y
_atom_site_fract_z
_atom_type_partial_charge
C1    C     C_R   0.701187 0.266711 0.676981 0.902346
C2    C     C_R   0.298933 0.733529 0.323160 0.902305
C3    C     C_R   0.298830 0.266736 0.323127 0.895474
C4    C     C_R   0.701173 0.733258 0.676872 0.897160
C5    C     C_R   0.205714 0.776439 0.673594 0.904651
C6    C     C_R   0.798756 0.233184 0.323033 0.901261
C7    C     C_R   0.793585 0.777646 0.327225 0.904057
C8    C     C_R   0.206419 0.222347 0.672773 0.904848
C9    C     C_R   0.905801 0.501470 0.481825 0.070590
C10   C     C_R   0.094152 0.498529 0.518301 0.071516
C11   C     C_R   0.407439 0.001820 0.477331 0.067216
C12   C     C_R   0.595358 0.998980 0.514955 0.068379
C13   C     C_R   0.070942 0.378466 0.585357 -0.241981
C14   C     C_R   0.929021 0.621527 0.414752 -0.242460
C15   C     C_R   0.880507 0.384442 0.556295 -0.241167
C16   C     C_R   0.119432 0.615562 0.443843 -0.241521
C17   C     C_R   0.572277 0.878644 0.581171 -0.248030
C18   C     C_R   0.429580 0.122797 0.413057 -0.247986
C19   C     C_R   0.383591 0.883965 0.548938 -0.242793
C20   C     C_R   0.620314 0.116574 0.441854 -0.241589
C21   C     C_R   0.717841 0.260472 0.957094 0.019934
C22   C     C_R   0.289096 0.752941 0.037676 0.019822
C23   C     C_R   0.290256 0.245647 0.035843 0.021002
C24   C     C_R   0.709785 0.754259 0.964132 0.021001
C25   C     C_R   0.228638 0.782680 0.947574 0.018143
C26   C     C_R   0.781571 0.238510 0.043335 0.020029
C27   C     C_R   0.769542 0.786195 0.054846 0.020525
C28   C     C_R   0.230496 0.213709 0.945132 0.020622
C29   C     C_R   0.767537 0.221782 0.912751 0.054088
C30   C     C_R   0.237603 0.787314 0.083493 0.054729
C31   C     C_R   0.239315 0.210695 0.081440 0.050981
C32   C     C_R   0.760736 0.789188 0.918530 0.050956
C33   C     C_R   0.283152 0.757462 0.898711 0.055141
C34   C     C_R   0.731835 0.277116 0.087720 0.053676
C35   C     C_R   0.715074 0.761553 0.104017 0.049044
C36   C     C_R   0.284961 0.238363 0.895962 0.049165
C37   C     C_R   0.800636 0.213696 0.954308 0.050596
C38   C     C_R   0.205296 0.795840 0.040753 0.048874
C39   C     C_R   0.207194 0.201428 0.038518 0.048123
C40   C     C_R   0.792854 0.798453 0.961455 0.048007
C41   C     C_R   0.312345 0.738220 0.944767 0.049974
C42   C     C_R   0.698743 0.285219 0.046150 0.050450
C43   C     C_R   0.686554 0.740400 0.057354 0.049157
C44   C     C_R   0.313484 0.259514 0.942624 0.049129
C45   C     C_R   0.637879 0.314059 0.955666 0.070883
C46   C     C_R   0.366215 0.692983 0.042447 0.071704
C47   C     C_R   0.366121 0.307713 0.041575 0.072104
C48   C     C_R   0.633900 0.692245 0.958414 0.072310
C49   C     C_R   0.143617 0.822129 0.950806 0.076338
C50   C     C_R   0.861728 0.185358 0.044548 0.071268
C51   C     C_R   0.854714 0.825011 0.050951 0.076820
C52   C     C_R   0.145314 0.174929 0.949039 0.076814
C53   C     C_R   0.612951 0.339534 0.904674 -0.138885
C54   C     C_R   0.388546 0.662671 0.095003 -0.140344
C55   C     C_R   0.388140 0.338065 0.094733 -0.137583
C56   C     C_R   0.611868 0.661919 0.905262 -0.136946
C57   C     C_R   0.116056 0.843746 0.902381 -0.140340
C58   C     C_R   0.886839 0.160206 0.095413 -0.139371
C59   C     C_R   0.882643 0.845871 0.098959 -0.137052
C60   C     C_R   0.117372 0.154104 0.901038 -0.137172
C61   C     C_R   0.632350 0.317589 0.817029 -0.308532
C62   C     C_R   0.367953 0.682542 0.183618 -0.306053
C63   C     C_R   0.367394 0.318209 0.183464 -0.308642
C64   C     C_R   0.632609 0.681785 0.816537 -0.308652
C65   C     C_R   0.136511 0.824599 0.813980 -0.304795
C66   C     C_R   0.867507 0.182264 0.182986 -0.309013
C67   C     C_R   0.862195 0.826865 0.187386 -0.310418
C68   C     C_R   0.137814 0.173123 0.812616 -0.309932
C69   C     C_R   0.678203 0.274700 0.774710 -0.121710
C70   C     C_R   0.322710 0.726723 0.225429 -0.120712
C71   C     C_R   0.322674 0.273719 0.225025 -0.122190
C72   C     C_R   0.677339 0.726256 0.774969 -0.122675
C73   C     C_R   0.187938 0.795772 0.766691 -0.118064
C74   C     C_R   0.821583 0.224998 0.225366 -0.120966
C75   C     C_R   0.810703 0.798849 0.234914 -0.113294
C76   C     C_R   0.189308 0.201132 0.765082 -0.113323
C77   C     C_R   0.705314 0.249744 0.823445 0.074698
C78   C     C_R   0.297023 0.754536 0.175835 0.073304
C79   C     C_R   0.297685 0.245442 0.174802 0.074518
C80   C     C_R   0.702347 0.754498 0.825183 0.074464
C81   C     C_R   0.221222 0.786420 0.808960 0.074212
C82   C     C_R   0.794279 0.249623 0.176787 0.074171
C83   C     C_R   0.777008 0.791203 0.193346 0.066426
C84   C     C_R   0.223011 0.208757 0.806642 0.066504
C85   C     C_R   0.697113 0.127802 0.516371 0.915826
C86   C     C_R   0.303766 0.872380 0.481185 0.894342
C87   C     C_R   0.309194 0.129859 0.463033 0.881779
C88   C     C_R   0.691120 0.870472 0.535793 0.881811
C89   C     C_R   0.196829 0.627693 0.517115 0.925842
C90   C     C_R   0.803161 0.372306 0.482911 0.914801
C91   C     C_R   0.809065 0.629700 0.463523 0.917625
C92   C     C_R   0.190931 0.370295 0.536489 0.917382
C93   C     C_R   0.687050 0.274772 0.911973 0.075146
C94   C     C_R   0.317448 0.733461 0.085364 0.076943
C95   C     C_R   0.318032 0.266367 0.084105 0.075755
C96   C     C_R   0.682001 0.733565 0.915877 0.075721
C97   C     C_R   0.197667 0.796323 0.902630 0.075827
C98   C     C_R   0.812473 0.224452 0.088334 0.075032
C99   C     C_R   0.800549 0.800106 0.099550 0.074769
C100  C     C_R   0.199481 0.199825 0.900434 0.074963
C101  C     C_R   0.615284 0.325356 0.049031 -0.181277
C102  C     C_R   0.390994 0.685006 0.948520 -0.189318
C103  C     C_R   0.390504 0.316130 0.947483 -0.188226
C104  C     C_R   0.609518 0.683825 0.052506 -0.188384
C105  C     C_R   0.119399 0.826122 0.045123 -0.180425
C106  C     C_R   0.884230 0.173952 0.951212 -0.181554
C107  C     C_R   0.878696 0.828616 0.956654 -0.180919
C108  C     C_R   0.121343 0.171301 0.043335 -0.180473
C109  C     C_R   0.645467 0.313159 0.092641 -0.218739
C110  C     C_R   0.364539 0.705981 0.901128 -0.211857
C111  C     C_R   0.364729 0.293398 0.899537 -0.213342
C112  C     C_R   0.635303 0.706533 0.100446 -0.214383
C113  C     C_R   0.149727 0.814692 0.088874 -0.218161
C114  C     C_R   0.853933 0.185857 0.907748 -0.219888
C115  C     C_R   0.848286 0.817136 0.913189 -0.217565
C116  C     C_R   0.151764 0.182743 0.086788 -0.217380
C117  C     C_R   0.749174 0.199722 0.788927 -0.191988
C118  C     C_R   0.252354 0.803498 0.211526 -0.191426
C119  C     C_R   0.253832 0.195927 0.210120 -0.181459
C120  C     C_R   0.746217 0.803987 0.789859 -0.181520
C121  C     C_R   0.277283 0.769451 0.761508 -0.193856
C122  C     C_R   0.750304 0.299474 0.211364 -0.191088
C123  C     C_R   0.720569 0.777277 0.241759 -0.180541
C124  C     C_R   0.279448 0.222696 0.758226 -0.179814
C125  C     C_R   0.780538 0.188119 0.830716 -0.235090
C126  C     C_R   0.221617 0.815954 0.168943 -0.237204
C127  C     C_R   0.223576 0.182492 0.167057 -0.225593
C128  C     C_R   0.776482 0.817390 0.832911 -0.225768
C129  C     C_R   0.306850 0.753615 0.804984 -0.216206
C130  C     C_R   0.718834 0.310821 0.169721 -0.234185
C131  C     C_R   0.690852 0.760753 0.198346 -0.220349
C132  C     C_R   0.309172 0.239196 0.801635 -0.219096
C133  C     C_R   0.072736 0.102099 0.935891 0.907425
C134  C     C_R   0.927268 0.897894 0.064106 0.905070
C135  C     C_R   0.927681 0.102478 0.063750 0.914511
C136  C     C_R   0.072187 0.897251 0.936522 0.908372
C137  C     C_R   0.572009 0.602873 0.936418 0.908059
C138  C     C_R   0.427995 0.397121 0.063578 0.909928
C139  C     C_R   0.428248 0.603177 0.063385 0.911357
C140  C     C_R   0.572250 0.397450 0.936296 0.914149
C141  C     C_R   0.573943 0.117592 0.431566 0.110448
C142  C     C_R   0.430085 0.882712 0.558124 0.115359
C143  C     C_R   0.478159 0.120959 0.417491 0.113208
C144  C     C_R   0.524693 0.879947 0.574359 0.114445
C145  C     C_R   0.073047 0.616395 0.433697 0.111897
C146  C     C_R   0.926880 0.383622 0.566488 0.110955
C147  C     C_R   0.977415 0.619644 0.419518 0.115204
C148  C     C_R   0.022525 0.380366 0.580649 0.114763
C149  C     C_R   0.563094 0.176371 0.389907 -0.203955
C150  C     C_R   0.441351 0.823174 0.597984 -0.208332
C151  C     C_R   0.515309 0.178340 0.383661 -0.210987
C152  C     C_R   0.488330 0.821781 0.606149 -0.210100
C153  C     C_R   0.062564 0.674697 0.391003 -0.204180
C154  C     C_R   0.937351 0.325336 0.609219 -0.203619
C155  C     C_R   0.014872 0.676581 0.384615 -0.209700
C156  C     C_R   0.985051 0.323446 0.615594 -0.208891
C157  C     C_R   0.489872 0.060735 0.456593 0.028553
C158  C     C_R   0.513344 0.940100 0.534620 0.027653
C159  C     C_R   0.537365 0.059450 0.464701 0.030237
C160  C     C_R   0.466155 0.941241 0.525965 0.029542
C161  C     C_R   0.988622 0.559880 0.459959 0.028891
C162  C     C_R   0.011313 0.440130 0.540215 0.028874
C163  C     C_R   0.036133 0.558621 0.467940 0.030723
C164  C     C_R   0.963799 0.441392 0.532239 0.030845
C165  C     C_R   0.952668 0.501034 0.491601 -0.051808
C166  C     C_R   0.047270 0.498973 0.508561 -0.051915
C167  C     C_R   0.454432 0.001409 0.486839 -0.052501
C168  C     C_R   0.548761 0.999426 0.504513 -0.052388
C169  C     C_R   0.871773 0.440464 0.507600 0.047590
C170  C     C_R   0.128182 0.559534 0.492507 0.047482
C171  C     C_R   0.107846 0.436676 0.552302 0.062771
C172  C     C_R   0.892122 0.563315 0.447788 0.062624
C173  C     C_R   0.373818 0.940483 0.502348 0.049351
C174  C     C_R   0.629157 0.060087 0.490004 0.046266
C175  C     C_R   0.608874 0.937074 0.549185 0.059873
C176  C     C_R   0.393057 0.064017 0.445007 0.060593
C177  C     C_R   0.830320 0.438205 0.482832 -0.108215
C178  C     C_R   0.169659 0.561790 0.517220 -0.113755
C179  C     C_R   0.158601 0.435816 0.551446 -0.126447
C180  C     C_R   0.841385 0.564174 0.448593 -0.126336
C181  C     C_R   0.331604 0.938300 0.479357 -0.103986
C182  C     C_R   0.670350 0.062058 0.515365 -0.108060
C183  C     C_R   0.659227 0.936150 0.549436 -0.115407
C184  C     C_R   0.341998 0.064611 0.446669 -0.116567
C185  C     C_R   0.815186 0.500082 0.455065 -0.296232
C186  C     C_R   0.184807 0.499908 0.544951 -0.291799
C187  C     C_R   0.316004 0.000333 0.452653 -0.299079
C188  C     C_R   0.685438 0.000117 0.543074 -0.299749
H1    H     H_    0.992694 0.277386 0.647593 0.136975
H2    H     H_    0.007224 0.722647 0.352631 0.136615
H3    H     H_    0.909115 0.280592 0.636308 0.140339
H4    H     H_    0.090790 0.719453 0.363944 0.139540
H5    H     H_    0.496418 0.775027 0.636603 0.135726
H6    H     H_    0.507360 0.224798 0.352612 0.137174
H7    H     H_    0.414439 0.777010 0.620949 0.126659
H8    H     H_    0.591069 0.221451 0.363653 0.140368
H9    H     H_    0.780160 0.499527 0.444448 0.195032
H10   H     H_    0.219850 0.500460 0.555519 0.196593
H11   H     H_    0.280606 0.999764 0.443050 0.193854
H12   H     H_    0.720263 0.000599 0.554232 0.194120
H13   H     H_    0.078586 0.332803 0.617857 0.161141
H14   H     H_    0.921392 0.667179 0.382219 0.160979
H15   H     H_    0.851178 0.341732 0.588460 0.176304
H16   H     H_    0.148763 0.658264 0.411648 0.175444
H17   H     H_    0.579511 0.833069 0.614267 0.163308
H18   H     H_    0.421511 0.168905 0.381713 0.162305
H19   H     H_    0.354924 0.841171 0.580783 0.160700
H20   H     H_    0.649474 0.159586 0.410401 0.176509
H21   H     H_    0.625412 0.323772 0.163981 0.135133
H22   H     H_    0.385957 0.694453 0.830202 0.135003
H23   H     H_    0.385542 0.304945 0.828542 0.139385
H24   H     H_    0.614490 0.694986 0.171441 0.138972
H25   H     H_    0.128320 0.818372 0.161345 0.136606
H26   H     H_    0.873941 0.175184 0.836424 0.134815
H27   H     H_    0.869613 0.820390 0.840697 0.142955
H28   H     H_    0.130443 0.179471 0.159280 0.142893
O1    O     O_R   0.746490 0.236330 0.638080 -0.656083
O2    O     O_R   0.253510 0.763670 0.361920 -0.657859
O3    O     O_R   0.253510 0.236330 0.361920 -0.641537
O4    O     O_R   0.746490 0.763670 0.638080 -0.641255
O5    O     O_R   0.246490 0.736330 0.638080 -0.647542
O6    O     O_R   0.753510 0.263670 0.361920 -0.656724
O7    O     O_R   0.753510 0.736330 0.361920 -0.643762
O8    O     O_R   0.246490 0.263670 0.638080 -0.642912
O9    O     O_R   0.674170 0.186160 0.516270 -0.637651
O10   O     O_R   0.325830 0.813840 0.483730 -0.646470
O11   O     O_R   0.325830 0.186160 0.483730 -0.643659
O12   O     O_R   0.674170 0.813840 0.516270 -0.644348
O13   O     O_R   0.174170 0.686160 0.516270 -0.633954
O14   O     O_R   0.825830 0.313840 0.483730 -0.637209
O15   O     O_R   0.825830 0.686160 0.483730 -0.624814
O16   O     O_R   0.174170 0.313840 0.516270 -0.625023
O17   O     O_R   0.739960 0.127620 0.525000 -0.636260
O18   O     O_R   0.260040 0.872380 0.475000 -0.638230
O19   O     O_R   0.260040 0.127620 0.475000 -0.633745
O20   O     O_R   0.739960 0.872380 0.525000 -0.633744
O21   O     O_R   0.239960 0.627620 0.525000 -0.624324
O22   O     O_R   0.760040 0.372380 0.475000 -0.634269
O23   O     O_R   0.760040 0.627620 0.475000 -0.619688
O24   O     O_R   0.239960 0.372380 0.525000 -0.618868
O25   O     O_R   0.680700 0.294870 0.629350 -0.620086
O26   O     O_R   0.319300 0.705130 0.370650 -0.622221
O27   O     O_R   0.319300 0.294870 0.370650 -0.627197
O28   O     O_R   0.680700 0.705130 0.629350 -0.626637
O29   O     O_R   0.180700 0.794870 0.629350 -0.621202
O30   O     O_R   0.819300 0.205130 0.370650 -0.620472
O31   O     O_R   0.819300 0.794870 0.370650 -0.632488
O32   O     O_R   0.180700 0.205130 0.629350 -0.632483
O33   O     O_R   0.062020 0.072840 0.007170 -0.622921
O34   O     O_R   0.937980 0.927160 0.992830 -0.623457
O35   O     O_R   0.937980 0.072840 0.992830 -0.625900
O36   O     O_R   0.062020 0.927160 0.007170 -0.622179
O37   O     O_R   0.562020 0.572840 0.007170 -0.624254
O38   O     O_R   0.437980 0.427160 0.992830 -0.623549
O39   O     O_R   0.437980 0.572840 0.992830 -0.622401
O40   O     O_R   0.562020 0.427160 0.007170 -0.625213
O41   O     O_R   0.947860 0.073950 0.109290 -0.619405
O42   O     O_R   0.052140 0.926050 0.890710 -0.616953
O43   O     O_R   0.052140 0.073950 0.890710 -0.618738
O44   O     O_R   0.947860 0.926050 0.109290 -0.618865
O45   O     O_R   0.447860 0.573950 0.109290 -0.620637
O46   O     O_R   0.552140 0.426050 0.890710 -0.620657
O47   O     O_R   0.552140 0.573950 0.890710 -0.621435
O48   O     O_R   0.447860 0.426050 0.109290 -0.620717
Zn1   Zn    Zn3+2 0.792340 0.208750 0.507670 0.928656
Zn2   Zn    Zn3+2 0.207660 0.791250 0.492330 0.927745
Zn3   Zn    Zn3+2 0.207660 0.208750 0.492330 0.933581
Zn4   Zn    Zn3+2 0.792340 0.791250 0.507670 0.933816
Zn5   Zn    Zn3+2 0.292340 0.708750 0.507670 0.937345
Zn6   Zn    Zn3+2 0.707660 0.291250 0.492330 0.930370
Zn7   Zn    Zn3+2 0.707660 0.708750 0.492330 0.935216
Zn8   Zn    Zn3+2 0.292340 0.291250 0.507670 0.937620
Zn9   Zn    Zn3+2 0.505960 0.500000 0.080520 0.924362
Zn10  Zn    Zn3+2 0.494040 0.500000 0.919480 0.926602
Zn11  Zn    Zn3+2 0.005960 0.000000 0.080520 0.927385
Zn12  Zn    Zn3+2 0.994040 1.000000 0.919480 0.925497
H29   H     H_    0.613200 0.337915 0.779291 0.192478
H30   H     H_    0.385564 0.659508 0.222405 0.193530
H31   H     H_    0.384594 0.341351 0.222536 0.191680
H32   H     H_    0.615395 0.658666 0.777473 0.191667
H33   H     H_    0.113183 0.836306 0.780044 0.191012
H34   H     H_    0.886795 0.162180 0.220617 0.192565
H35   H     H_    0.885784 0.837560 0.220965 0.188673
H36   H     H_    0.114218 0.162448 0.779046 0.188571
H37   H     H_    0.573482 0.341718 0.091042 0.166190
H38   H     H_    0.431926 0.664458 0.909035 0.165788
H39   H     H_    0.430761 0.338102 0.908039 0.169602
H40   H     H_    0.569255 0.661877 0.091957 0.169681
H41   H     H_    0.076347 0.836268 0.086911 0.160199
H42   H     H_    0.926062 0.157788 0.909062 0.165989
H43   H     H_    0.921690 0.838172 0.914511 0.164372
H44   H     H_    0.078348 0.161762 0.085490 0.164508
H45   H     H_    0.759380 0.165939 0.731372 0.180021
H46   H     H_    0.240461 0.835320 0.271111 0.181683
H47   H     H_    0.242255 0.164405 0.269848 0.177923
H48   H     H_    0.757799 0.835523 0.730139 0.177965
H49   H     H_    0.300818 0.769607 0.689830 0.165741
H50   H     H_    0.740091 0.333396 0.268802 0.181398
H51   H     H_    0.697459 0.781275 0.313955 0.183484
H52   H     H_    0.302551 0.218731 0.686028 0.183363
H53   H     H_    0.813677 0.149677 0.799208 0.138872
H54   H     H_    0.186877 0.851858 0.201993 0.139507
H55   H     H_    0.189411 0.146164 0.199908 0.140420
H56   H     H_    0.810656 0.853702 0.800054 0.140291
H57   H     H_    0.349082 0.740469 0.762514 0.131162
H58   H     H_    0.685639 0.349174 0.201279 0.140301
H59   H     H_    0.648117 0.750173 0.240852 0.141501
H60   H     H_    0.351904 0.249793 0.759125 0.141404

loop_
_geom_bond_atom_site_label_1
_geom_bond_atom_site_label_2
_ccdc_geom_bond_type
C154  H3    S    
C85   C182  S    
C9    C169  A    
C34   C42   A    
C116  H28   S    
O38   Zn10  S    
C27   C99   A    
C170  C178  A    
C85   O17   A    
C12   C174  A    
C42   C109  A    
O21   Zn5   S    
C24   C96   A    
C149  H8    S    
C92   O16   A    
C87   O19   A    
O25   Zn6   S    
C62   C70   A    
C66   H34   S    
O44   Zn11  S    
C129  H57   S    
C107  H43   S    
O33   Zn11  S    
O34   Zn12  S    
O30   Zn1   S    
C147  C155  A    
C143  C151  A    
C90   C177  S    
O15   Zn4   S    
C11   C167  A    
C82   C98   A    
C76   C84   A    
C109  H21   S    
C73   C81   A    
C161  C163  A    
C162  C164  A    
C181  C187  A    
O46   Zn10  S    
O41   Zn11  S    
C90   O22   A    
O42   Zn12  S    
C84   C100  A    
C67   H35   S    
C5    O29   A    
C37   C114  A    
C130  H58   S    
C27   C35   A    
C10   C171  A    
C21   C29   A    
C117  H45   S    
C23   C31   A    
C24   C32   A    
O7    Zn7   S    
O8    Zn8   S    
C7    O7    A    
C146  C154  A    
O47   Zn10  S    
C115  H27   S    
O43   Zn12  S    
C103  H39   S    
C63   C71   A    
C36   C44   A    
C134  O34   A    
C175  C183  A    
C176  C184  A    
C48   C96   A    
C6    O30   A    
C123  H51   S    
C15   H15   S    
C148  C162  A    
C183  C188  A    
C108  C116  A    
C21   C93   A    
C78   C94   A    
C9    C165  A    
O2    Zn2   S    
C23   C95   A    
C105  H41   S    
O9    Zn6   S    
C49   C97   A    
C21   C42   A    
C22   C41   A    
C51   C107  A    
C2    O2    A    
C24   C43   A    
C136  O36   A    
C185  H9    S    
C16   H16   S    
C82   C122  A    
C161  C165  A    
C17   C175  A    
C6    O6    A    
C18   C176  A    
C29   C125  A    
C114  H26   S    
C69   C77   A    
C31   C127  A    
C45   C93   A    
C174  C182  A    
C71   C79   A    
C179  C186  A    
C30   C38   A    
C11   C176  A    
C17   C144  A    
C151  H6    S    
C105  C113  A    
C18   C143  A    
C78   C118  A    
C149  C151  A    
C32   C128  A    
C188  H12   S    
C66   C74   A    
C7    O31   A    
C8    C76   S    
C49   C57   A    
C124  C132  A    
O22   Zn6   S    
O27   Zn8   S    
C52   C60   A    
C59   C67   A    
C53   C61   A    
C141  C159  A    
C20   C174  A    
C55   C63   A    
C86   C181  S    
C56   C64   A    
C35   C43   A    
C125  H53   S    
C156  H1    S    
C45   C53   A    
C140  O46   A    
C22   C94   A    
C171  C179  A    
C169  C177  A    
O19   Zn3   S    
C50   C98   A    
O39   Zn10  S    
O26   Zn5   S    
C119  H47   S    
C28   C36   A    
O35   Zn12  S    
C120  H48   S    
C104  C112  A    
C145  C163  A    
C146  C164  A    
C14   C147  A    
C52   C100  A    
C91   O15   A    
C16   C145  A    
C178  C186  A    
C25   C38   A    
C54   C139  S    
C46   C94   A    
C27   C40   A    
C10   C166  A    
C57   C65   A    
C91   C180  S    
C182  C188  A    
C89   C178  S    
C2    O26   A    
C60   C68   A    
C104  H40   S    
C25   C97   A    
C138  O48   A    
C139  O45   A    
C67   C75   A    
C29   C37   A    
C133  O33   A    
C50   C106  A    
C131  H59   S    
C92   O24   A    
C22   C30   A    
C61   H29   S    
C20   C141  A    
C118  H46   S    
C135  O35   A    
C8    O8    A    
C15   C146  A    
C1    O1    A    
C58   C135  S    
C68   C76   A    
C59   C134  S    
C184  C187  A    
C102  H38   S    
C17   H17   S    
C72   C80   A    
C138  O38   A    
C56   C137  S    
C108  H44   S    
C63   H31   S    
C88   O12   A    
C64   H32   S    
C14   H14   S    
C5    C73   S    
C150  H7    S    
O17   Zn1   S    
O11   Zn8   S    
C13   C171  A    
C85   O9    A    
C90   O14   A    
C117  C125  A    
C4    O28   A    
C25   C33   A    
C68   H36   S    
C119  C127  A    
C157  C167  A    
C80   C120  A    
C158  C168  A    
O32   Zn3   S    
C86   O18   A    
O3    Zn3   S    
C164  C165  A    
C74   C82   A    
C106  H42   S    
C40   C115  A    
C101  C109  A    
O28   Zn7   S    
C177  C185  A    
C103  C111  A    
C34   C130  A    
C162  C166  A    
C4    O4    A    
C79   C119  A    
C121  H49   S    
C153  H4    S    
C153  C155  A    
C154  C156  A    
C124  H52   S    
C172  C180  A    
C173  C181  A    
C157  C159  A    
C83   C99   A    
C158  C160  A    
C110  H22   S    
C132  H60   S    
C6    C74   S    
C135  O41   A    
C47   C103  A    
C50   C58   A    
C89   O21   A    
C163  C166  A    
C147  C161  A    
C38   C113  A    
C49   C105  A    
C54   C62   A    
C28   C39   A    
C1    C69   S    
C23   C44   A    
C187  H11   S    
C139  O39   A    
C19   C173  A    
C79   C95   A    
C155  H2    S    
C126  H54   S    
C46   C54   A    
C45   C101  A    
C137  O47   A    
C19   C142  A    
O1    Zn1   S    
O40   Zn9   S    
C102  C110  A    
C35   C131  A    
C4    C72   S    
C33   C129  A    
C123  C131  A    
C121  C129  A    
C120  C128  A    
C26   C37   A    
C10   C170  A    
O48   Zn9   S    
O16   Zn3   S    
C33   C41   A    
C142  C150  A    
C36   C132  A    
O37   Zn9   S    
C75   C83   A    
C77   C93   A    
C111  H23   S    
C128  H56   S    
C44   C111  A    
C16   C170  A    
C133  O43   A    
C8    O32   A    
C3    O3    A    
C39   C116  A    
C81   C121  A    
O20   Zn4   S    
C186  H10   S    
C9    C172  A    
C65   H33   S    
C148  C156  A    
C83   C123  A    
C2    C70   S    
C60   C133  S    
C144  C152  A    
C5    O5    A    
C30   C126  A    
C70   C78   A    
C53   C140  S    
C3    C71   S    
O29   Zn2   S    
C113  H25   S    
C141  C149  A    
C46   C102  A    
C55   C138  S    
C152  H5    S    
C106  C114  A    
C112  H24   S    
C92   C179  S    
C77   C117  A    
O10   Zn5   S    
C127  H55   S    
O18   Zn2   S    
O45   Zn9   S    
C48   C104  A    
C65   C73   A    
C159  C168  A    
C15   C169  A    
C160  C167  A    
C58   C66   A    
C31   C39   A    
C57   C136  S    
C140  O40   A    
C80   C96   A    
C145  C153  A    
C28   C100  A    
C32   C40   A    
C19   H19   S    
C26   C34   A    
C143  C157  A    
C51   C99   A    
C88   O20   A    
C11   C173  A    
C101  H37   S    
C14   C172  A    
C87   C184  S    
C88   C183  S    
C7    C75   S    
C122  H50   S    
C3    O27   A    
C107  C115  A    
C1    O25   A    
C26   C98   A    
C12   C175  A    
O31   Zn4   S    
C41   C110  A    
C136  O42   A    
C86   O10   A    
C150  C152  A    
C51   C59   A    
C43   C112  A    
C20   H20   S    
C144  C158  A    
O4    Zn4   S    
O5    Zn5   S    
C47   C55   A    
C61   C69   A    
C48   C56   A    
C142  C160  A    
O12   Zn7   S    
C12   C168  A    
O13   Zn2   S    
C84   C124  A    
C118  C126  A    
C87   O11   A    
O23   Zn7   S    
C18   H18   S    
O24   Zn8   S    
C81   C97   A    
C13   H13   S    
C64   C72   A    
O36   Zn11  S    
C180  C185  A    
O6    Zn6   S    
C52   C108  A    
C134  O44   A    
C91   O23   A    
C47   C95   A    
C62   H30   S    
C13   C148  A    
C89   O13   A    
C122  C130  A    
C137  O37   A    
O14   Zn1   S    
