data_mof_unit_56042.cif
_audit_creation_date              2012-12-11T15:27:34-0500
_audit_creation_method            fapswitch 2.2
_symmetry_space_group_name_H-M    P1
_symmetry_Int_Tables_number       1
_space_group_crystal_system       triclinic
_cell_length_a                    23.278003
_cell_length_b                    7.304946
_cell_length_c                    15.110079
_cell_angle_alpha                 90.005924
_cell_angle_beta                  108.310105
_cell_angle_gamma                 90.006976
_cell_volume                      2439.29878588

loop_
_atom_site_label
_atom_site_type_symbol
_atom_type_description
_atom_site_fract_x
_atom_site_fract_y
_atom_site_fract_z
_atom_type_partial_charge
O1    O     O_R   0.711000 0.648610 0.341170 -0.534551
O2    O     O_R   0.289000 0.351390 0.658830 -0.534539
O3    O     O_R   0.789000 0.148610 0.158830 -0.534561
O4    O     O_R   0.211000 0.851390 0.841170 -0.534552
O5    O     O_R   0.829650 0.322030 0.336650 -0.537436
O6    O     O_R   0.170350 0.677970 0.663350 -0.537447
O7    O     O_R   0.670350 0.822030 0.163350 -0.537451
O8    O     O_R   0.329650 0.177970 0.836650 -0.537459
C1    C     C_R   0.854270 0.485791 0.356775 0.717815
C2    C     C_R   0.145730 0.514209 0.643225 0.717807
C3    C     C_R   0.645730 0.985773 0.143223 0.717819
C4    C     C_R   0.354270 0.014226 0.856777 0.717819
O9    O     O_R   0.713950 0.319280 0.352070 -0.535921
O10   O     O_R   0.286050 0.680720 0.647930 -0.535934
O11   O     O_R   0.786050 0.819280 0.147930 -0.535921
O12   O     O_R   0.213950 0.180720 0.852070 -0.535939
O13   O     O_R   0.672470 0.142870 0.174360 -0.534573
O14   O     O_R   0.327530 0.857130 0.825640 -0.534565
O15   O     O_R   0.827530 0.642870 0.325640 -0.534579
O16   O     O_R   0.172470 0.357130 0.674360 -0.534573
C5    C     C_R   0.701888 0.487531 0.376011 0.701902
C6    C     C_R   0.298107 0.512469 0.623986 0.701921
C7    C     C_R   0.798110 0.987520 0.123986 0.701909
C8    C     C_R   0.201890 0.012482 0.876008 0.701932
O17   O     O_3   0.736530 0.478650 0.191680 -0.377818
O18   O     O_3   0.263470 0.521350 0.808320 -0.377816
O19   O     O_3   0.763470 0.978650 0.308320 -0.377814
O20   O     O_3   0.236530 0.021350 0.691680 -0.377816
V1    V     V_3+5 0.752500 0.206170 0.260820 1.456717
V2    V     V_3+5 0.247500 0.793830 0.739180 1.456715
V3    V     V_3+5 0.747500 0.706170 0.239180 1.456732
V4    V     V_3+5 0.252500 0.293830 0.760820 1.456734
C9    C     C_R   0.827603 0.996058 0.052033 -0.086930
C10   C     C_R   0.172395 0.003938 0.947952 -0.086975
C11   C     C_R   0.672392 0.496074 0.447959 -0.086982
C12   C     C_R   0.327595 0.503929 0.552030 -0.086994
C13   C     C_R   0.821589 0.021791 0.890050 0.331730
C14   C     C_R   0.178394 0.978533 0.109916 0.331759
C15   C     C_R   0.678394 0.521332 0.609943 0.331781
C16   C     C_R   0.321580 0.479118 0.390034 0.331811
C17   C     C_R   0.793278 0.012036 0.958590 -0.162430
C18   C     C_R   0.206714 0.988333 0.041392 -0.162380
C19   C     C_R   0.706712 0.511652 0.541411 -0.162382
C20   C     C_R   0.293266 0.488776 0.458573 -0.162375
C21   C     C_R   0.890530 0.989717 0.078061 -0.206804
C22   C     C_R   0.109466 0.009973 0.921916 -0.206954
C23   C     C_R   0.609459 0.490062 0.421916 -0.206888
C24   C     C_R   0.390527 0.509640 0.578068 -0.206963
C25   C     C_R   0.921181 0.999648 0.010854 0.048208
C26   C     C_R   0.078806 0.000082 0.989109 0.048231
C27   C     C_R   0.578803 0.499786 0.489118 0.048222
C28   C     C_R   0.421177 0.500089 0.510856 0.048215
C29   C     C_R   0.885530 0.015825 0.915422 0.055654
C30   C     C_R   0.114450 0.984138 0.084529 0.055678
C31   C     C_R   0.614451 0.515512 0.584558 0.055662
C32   C     C_R   0.385525 0.484644 0.415418 0.055680
C33   C     C_R   0.985864 0.994374 0.035557 0.082278
C34   C     C_R   0.014123 0.005253 0.964388 0.082300
C35   C     C_R   0.514117 0.494688 0.464397 0.082309
C36   C     C_R   0.485861 0.505155 0.535576 0.082318
C37   C     C_R   0.976752 0.020910 0.870810 -0.194322
C38   C     C_R   0.023231 0.978726 0.129126 -0.194447
C39   C     C_R   0.523229 0.520346 0.629171 -0.194411
C40   C     C_R   0.476743 0.479652 0.370800 -0.194431
C41   C     C_R   0.914261 0.025994 0.847226 -0.130652
C42   C     C_R   0.085719 0.973854 0.152708 -0.130705
C43   C     C_R   0.585721 0.525358 0.652757 -0.130687
C44   C     C_R   0.414250 0.474829 0.347214 -0.130705
H1    H     H_    0.888703 0.038283 0.774095 0.178917
H2    H     H_    0.111267 0.961662 0.225814 0.178964
H3    H     H_    0.611276 0.537227 0.725887 0.178949
H4    H     H_    0.388694 0.463177 0.274082 0.178953
H5    H     H_    0.086245 0.021949 0.848372 0.106532
H6    H     H_    0.913777 0.977485 0.151632 0.106444
H7    H     H_    0.413763 0.521191 0.651624 0.106533
H8    H     H_    0.586234 0.478135 0.348348 0.106497
H9    H     H_    0.255644 0.983539 0.060999 0.145955
H10   H     H_    0.744341 0.017125 0.938982 0.145967
H11   H     H_    0.244336 0.484197 0.438967 0.145961
H12   H     H_    0.755646 0.516507 0.561027 0.145969
H13   H     H_    0.994044 0.029881 0.812795 0.126029
H14   H     H_    0.005927 0.969696 0.187091 0.126090
H15   H     H_    0.505938 0.528940 0.687175 0.126068
H16   H     H_    0.494029 0.471205 0.312788 0.126083
C45   C     C_1   0.416770 0.007034 0.918739 -0.178986
C46   C     C_1   0.583230 0.992966 0.081261 -0.178989
C47   C     C_1   0.083231 0.506985 0.581263 -0.178984
C48   C     C_1   0.916769 0.493015 0.418737 -0.178989
C49   C     C_1   0.469145 0.002432 0.969960 0.011184
C50   C     C_1   0.530855 0.997568 0.030040 0.011185
C51   C     C_1   0.030855 0.502404 0.530041 0.011183
C52   C     C_1   0.969145 0.497596 0.469959 0.011182
Br1   Br    Br    0.769961 0.043853 0.763084 -0.482415
Br2   Br    Br    0.230012 0.957021 0.236869 -0.482431
Br3   Br    Br    0.730012 0.543196 0.736906 -0.482412
Br4   Br    Br    0.269958 0.457773 0.263085 -0.482413

loop_
_geom_bond_atom_site_label_1
_geom_bond_atom_site_label_2
_ccdc_geom_bond_type
O17   V3    S    
O1    C5    A    
C47   C51   T    
O19   V1    S    
C9    C21   A    
O3    C7    A    
C10   C18   A    
O15   V3    S    
C25   C33   A    
C33   C38   A    
O18   V4    S    
C35   C40   A    
C26   C30   A    
C4    C45   S    
C36   C39   A    
C40   C44   A    
O9    V1    S    
O10   V2    S    
C23   H8    S    
C14   C18   A    
C1    C48   S    
O4    C8    A    
C25   C29   A    
C3    C46   S    
O1    V3    S    
O13   V1    S    
O2    V4    S    
O3    V1    S    
C40   H16   S    
C28   C36   A    
C1    O15   A    
C15   C31   A    
C48   C52   T    
C2    O16   A    
C7    C9    S    
O2    C6    A    
C10   C22   A    
C11   C19   A    
C16   C20   A    
C43   H3    S    
C44   H4    S    
C13   C29   A    
C34   C37   A    
O11   C7    A    
C38   H14   S    
C11   C23   A    
C35   C36   A    
O12   C8    A    
C24   H7    S    
C16   Br4   S    
O5    V1    S    
C39   C43   A    
C2    C47   S    
O7    V3    S    
C38   C42   A    
C13   Br1   S    
O8    V4    S    
C46   C50   T    
C17   H10   S    
C45   C49   T    
C23   C27   A    
C16   C32   A    
C19   H12   S    
C32   C44   A    
C8    C10   S    
C39   H15   S    
C21   H6    S    
C26   C34   A    
O7    C3    A    
O5    C1    A    
C31   C43   A    
C14   C30   A    
C21   C25   A    
O8    C4    A    
C14   Br2   S    
O9    C5    A    
C15   Br3   S    
O14   V2    S    
O6    V2    S    
C12   C20   A    
C27   C35   A    
C51   C52   S    
C29   C41   A    
O16   V4    S    
C3    O13   A    
C20   H11   S    
O6    C2    A    
C15   C19   A    
O11   V3    S    
C30   C42   A    
O12   V4    S    
C6    C12   S    
C22   C26   A    
C9    C17   A    
O10   C6    A    
O20   V2    S    
C5    C11   S    
C37   H13   S    
C33   C34   A    
C42   H2    S    
C41   H1    S    
C12   C24   A    
C27   C31   A    
C13   C17   A    
C37   C41   A    
C24   C28   A    
C18   H9    S    
C4    O14   A    
C49   C50   S    
C22   H5    S    
O4    V2    S    
C28   C32   A    
