data_mof_unit_38326.cif
_audit_creation_date              2012-12-10T18:15:21-0500
_audit_creation_method            fapswitch 2.2
_symmetry_space_group_name_H-M    P1
_symmetry_Int_Tables_number       1
_space_group_crystal_system       triclinic
_cell_length_a                    12.647428
_cell_length_b                    13.232695
_cell_length_c                    23.250501
_cell_angle_alpha                 92.090246
_cell_angle_beta                  104.060278
_cell_angle_gamma                 81.975553
_cell_volume                      3737.64396016

loop_
_atom_site_label
_atom_site_type_symbol
_atom_type_description
_atom_site_fract_x
_atom_site_fract_y
_atom_site_fract_z
_atom_type_partial_charge
Br1   Br    Br    0.437421 0.705374 0.319398 -0.515287
Br2   Br    Br    0.818499 0.245503 0.583019 -0.386442
Br3   Br    Br    0.739903 0.868235 0.661174 -0.380191
Br4   Br    Br    0.875848 0.996293 0.596801 -0.366667
Br5   Br    Br    0.173939 0.753489 0.435158 -0.517343
Br6   Br    Br    0.445986 0.276185 0.634767 -0.435516
Br7   Br    Br    0.585448 0.677640 0.698869 -0.461199
C1    C     C_R   0.438046 0.691761 0.494830 0.931090
C2    C     C_R   0.609701 0.406777 0.894776 0.529561
C3    C     C_R   0.490395 0.366427 0.749266 -0.098882
C4    C     C_R   0.503441 0.496660 0.610822 0.953069
C5    C     C_R   0.486818 0.383647 0.690149 0.219742
C6    C     C_R   0.514337 0.476533 0.673461 -0.181850
C7    C     C_R   0.549452 0.549049 0.717209 0.211910
C8    C     C_R   0.552923 0.530355 0.776173 -0.114093
C9    C     C_R   0.521845 0.440113 0.791968 0.194329
C10   C     C_R   0.465750 0.557070 0.229874 -0.127347
C11   C     C_R   0.470409 0.569975 0.290009 0.205537
C12   C     C_R   0.293280 0.462642 0.995728 0.088977
C13   C     C_R   0.498345 0.484414 0.327436 -0.148063
C14   C     C_R   0.520320 0.385108 0.304325 0.020448
C15   C     C_R   0.511490 0.374047 0.243494 -0.131958
C16   C     C_R   0.561827 0.308709 0.507593 0.902365
C17   C     C_R   0.486697 0.459398 0.206845 0.243554
C18   C     C_R   0.724404 0.057271 0.569010 0.287666
C19   C     C_R   0.600564 0.199739 0.517216 -0.166801
C20   C     C_R   0.289461 0.839996 0.459029 0.273205
C21   C     C_R   0.263387 0.944539 0.445160 0.103985
C22   C     C_R   0.344598 0.008996 0.462154 -0.228361
C23   C     C_R   0.302705 0.457789 0.936789 -0.166968
C24   C     C_R   0.450572 0.973127 0.497247 0.112699
C25   C     C_R   0.470781 0.871675 0.517056 -0.006179
C26   C     C_R   0.536363 0.035164 0.515061 0.052384
C27   C     C_R   0.636207 0.998051 0.556567 -0.048788
C28   C     C_R   0.498442 0.498289 0.389547 0.910207
C29   C     C_R   0.641696 0.905263 0.585549 0.294431
C30   C     C_R   0.561020 0.842937 0.564782 -0.200342
C31   C     C_R   0.524749 0.133807 0.493262 -0.256400
C32   C     C_R   0.704198 0.160721 0.553094 0.224731
C33   C     C_R   0.397077 0.802195 0.491675 -0.180516
C34   C     C_R   0.405226 0.440406 0.922884 -0.053381
C35   C     C_R   0.068499 0.373664 0.404448 0.004795
C36   C     C_R   0.801005 0.629888 0.570447 0.056388
C37   C     C_R   0.907174 0.655869 0.587711 -0.167838
C38   C     C_R   0.989621 0.604222 0.563216 -0.159381
C39   C     C_R   0.965869 0.525366 0.521649 0.038206
C40   C     C_R   0.587793 0.422634 0.132120 0.513622
C41   C     C_R   0.856141 0.501077 0.506557 0.246829
C42   C     C_R   0.043954 0.473283 0.491960 -0.028812
C43   C     C_R   0.006690 0.404481 0.445903 0.108155
C44   C     C_R   0.904016 0.371993 0.439390 -0.258490
C45   C     C_R   0.501549 0.423823 0.968391 -0.018114
C46   C     C_R   0.829107 0.421498 0.467843 -0.135030
C47   C     C_R   0.155320 0.489505 0.503909 -0.000900
C48   C     C_R   0.180068 0.391318 0.418336 0.213262
C49   C     C_R   0.391580 0.459938 0.103636 0.499025
C50   C     C_R   0.391194 0.450166 0.042684 -0.050090
C51   C     C_R   0.494994 0.428440 0.028100 -0.041264
C52   C     C_R   0.593334 0.413183 0.073108 -0.005535
C53   C     C_3   0.177042 0.480783 0.004817 -0.344495
C54   C     C_3   0.142226 0.381918 0.022399 -0.290725
C55   C     C_3   0.030273 0.402342 0.037498 -0.836372
C56   C     C_R   0.604995 0.404699 0.954191 -0.015255
C57   C     C_3   0.553427 0.290077 0.342724 -0.421934
C58   C     C_3   0.666564 0.235365 0.338290 -0.348361
C59   C     C_3   0.715139 0.158307 0.388191 -0.854611
C60   C     C_3   0.148516 0.988674 0.412320 -0.385336
C61   C     C_3   0.123605 0.957693 0.346319 -0.306739
C62   C     C_3   0.002839 0.943365 0.322945 -0.816782
C63   C     C_3   0.252144 0.342409 0.378076 -0.370705
C64   C     C_3   0.234835 0.398561 0.318165 -0.296989
C65   C     C_3   0.225863 0.325538 0.265139 -0.899931
C66   C     C_3   0.006270 0.344216 0.341841 -0.388181
C67   C     C_R   0.701159 0.386629 0.999480 -0.159863
C68   C     C_3   0.006328 0.229407 0.330418 -0.392660
C69   C     C_3   0.932230 0.210751 0.269451 -0.836223
C70   C     C_R   0.695414 0.390807 0.058389 -0.159290
C71   C     C_R   0.413889 0.441540 0.864014 0.538421
H1    H     H_    0.526314 0.299114 0.224335 0.143310
H2    H     H_    0.925457 0.716126 0.619834 0.214223
H3    H     H_    0.749088 0.398403 0.456785 0.206198
H4    H     H_    0.781219 0.370733 0.989604 0.187071
H5    H     H_    0.771504 0.378048 0.092373 0.186939
H6    H     H_    0.467188 0.296373 0.762097 0.186196
H7    H     H_    0.576412 0.587399 0.809716 0.181053
H8    H     H_    0.446482 0.622813 0.200935 0.174646
H9    H     H_    0.034158 0.454519 0.076263 0.277216
H10   H     H_    0.966868 0.437192 0.999035 0.268833
H11   H     H_    0.006009 0.329412 0.048694 0.244438
H12   H     H_    0.454123 0.163702 0.459324 0.151975
H13   H     H_    0.137213 0.326962 0.984808 0.223055
H14   H     H_    0.203541 0.345518 0.061124 0.250139
H15   H     H_    0.168054 0.543810 0.036728 0.251001
H16   H     H_    0.117311 0.508460 0.963100 0.187251
H17   H     H_    0.732422 0.198298 0.431569 0.266249
H18   H     H_    0.657347 0.102529 0.388647 0.275079
H19   H     H_    0.793691 0.116445 0.381530 0.252596
H20   H     H_    0.658992 0.194374 0.295221 0.226615
H21   H     H_    0.723828 0.292327 0.340065 0.229997
H22   H     H_    0.555926 0.308692 0.389727 0.184747
H23   H     H_    0.320275 0.087986 0.449765 0.137750
H24   H     H_    0.491054 0.237196 0.328191 0.195596
H25   H     H_    0.985336 0.874748 0.343164 0.296613
H26   H     H_    0.948167 0.010606 0.333836 0.251168
H27   H     H_    0.984438 0.932771 0.274105 0.249782
H28   H     H_    0.144004 0.017244 0.319951 0.203666
H29   H     H_    0.174945 0.885474 0.338822 0.272653
H30   H     H_    0.088544 0.963788 0.434934 0.252170
H31   H     H_    0.137366 0.073261 0.415462 0.168514
H32   H     H_    0.216126 0.369451 0.223939 0.284004
H33   H     H_    0.301593 0.269538 0.270965 0.256838
H34   H     H_    0.228724 0.468237 0.901220 0.198091
H35   H     H_    0.154470 0.283342 0.259767 0.267087
H36   H     H_    0.164538 0.460693 0.310761 0.219722
H37   H     H_    0.304312 0.438643 0.317524 0.251082
H38   H     H_    0.339454 0.331487 0.400737 0.217894
H39   H     H_    0.236810 0.262219 0.370127 0.164183
H40   H     H_    0.845081 0.239314 0.268634 0.273468
H41   H     H_    0.956868 0.250117 0.234371 0.268236
H42   H     H_    0.939069 0.128203 0.258925 0.254089
H43   H     H_    0.090346 0.192094 0.331224 0.223346
H44   H     H_    0.977003 0.193318 0.364874 0.227168
H45   H     H_    0.566029 0.773253 0.588496 0.201748
H46   H     H_    0.919554 0.381661 0.332710 0.215078
H47   H     H_    0.033767 0.378153 0.306800 0.223179
H48   H     H_    0.878583 0.310599 0.409965 0.166856
H49   H     H_    0.190554 0.537234 0.540027 0.151854
H50   H     H_    0.737514 0.668676 0.590087 0.171494
H51   H     H_    0.070073 0.628289 0.576727 0.164633
N1    N     N_R   0.488527 0.446842 0.145909 -0.340390
N2    N     N_R   0.515059 0.426841 0.851452 -0.345199
N3    N     N_R   0.222200 0.444670 0.469780 -0.115105
N4    N     N_R   0.776960 0.554790 0.529910 -0.138355
O1    O     O_R   0.366740 0.627150 0.485570 -0.559095
O2    O     O_R   0.410990 0.482290 0.406510 -0.634907
O3    O     O_R   0.589070 0.517660 0.425810 -0.613192
O4    O     O_2   0.681095 0.409458 0.175725 -0.577421
O5    O     O_2   0.297349 0.482816 0.121424 -0.585379
O6    O     O_2   0.322263 0.459621 0.819678 -0.530410
O7    O     O_2   0.707799 0.390292 0.880301 -0.533371
O8    O     O_R   0.544830 0.662520 0.504870 -0.620957
O9    O     O_R   0.410930 0.482340 0.574190 -0.595288
O10   O     O_R   0.589010 0.517710 0.593490 -0.584569
O11   O     O_R   0.455170 0.337480 0.495130 -0.617475
O12   O     O_R   0.633260 0.372850 0.514430 -0.612312
Zn1   Zn    Zn3+2 0.381090 0.476380 0.487110 0.996114
Zn2   Zn    Zn3+2 0.618910 0.523620 0.512890 0.994414

loop_
_geom_bond_atom_site_label_1
_geom_bond_atom_site_label_2
_ccdc_geom_bond_type
C38   H51   S    
C68   H44   S    
O9    Zn1   S    
C36   C37   A    
C71   O6    S    
C52   C70   A    
Br4   C18   S    
C38   C39   A    
C12   C50   A    
O10   Zn2   S    
C16   O12   A    
C39   C42   A    
Br1   C11   S    
C69   H42   S    
C59   H19   S    
C29   C30   A    
C58   H20   S    
Br6   C5    S    
C2    O7    S    
C19   C32   A    
C70   H5    S    
C63   H39   S    
C8    C9    A    
C55   H11   S    
C49   C50   A    
C46   H3    S    
C16   C19   S    
C36   N4    A    
C9    N2    S    
C14   C57   S    
Br5   C20   S    
C13   C28   S    
Br2   C32   S    
C60   H31   S    
Br7   C7    S    
C61   C62   S    
C67   C70   A    
C24   C26   A    
C23   C34   A    
C63   C64   S    
N4    Zn2   S    
C61   H29   S    
C34   C45   A    
C11   C13   A    
C54   H14   S    
C18   C27   A    
C8    H7    S    
C53   H15   S    
C66   H46   S    
C2    N2    A    
C65   H33   S    
C30   H45   S    
C6    C7    A    
C66   C68   S    
C61   H28   S    
C67   H4    S    
C3    C5    A    
O12   Zn2   S    
C26   C27   A    
C39   C41   A    
C62   H25   S    
C41   C46   A    
O1    Zn1   S    
C65   H32   S    
C69   H41   S    
C40   N1    A    
C1    O1    A    
C60   C61   S    
C10   C17   A    
C41   N4    A    
C37   H2    S    
C21   C60   S    
C58   H21   S    
O11   Zn1   S    
C28   O2    A    
C34   C71   A    
C62   H27   S    
C19   C31   A    
O3    Zn2   S    
C63   H38   S    
C51   C52   A    
C55   H10   S    
C65   H35   S    
C69   H40   S    
C10   H8    S    
C64   H36   S    
C23   H34   S    
C53   C54   S    
C44   C46   A    
C28   O3    A    
C57   H24   S    
C68   C69   S    
C35   C48   A    
C49   O5    S    
C24   C25   A    
C20   C33   A    
C64   H37   S    
O2    Zn1   S    
C40   O4    S    
C10   C11   A    
C22   H23   S    
C43   C44   A    
C25   C30   A    
C13   C14   A    
C1    O8    A    
C45   C51   A    
C35   C43   A    
C68   H43   S    
C42   C43   A    
C15   C17   A    
C16   O11   A    
C58   C59   S    
C37   C38   A    
C59   H18   S    
C55   H9    S    
C62   H26   S    
C21   C22   A    
C35   C66   S    
C2    C56   A    
C44   H48   S    
C71   N2    A    
C45   C56   A    
C36   H50   S    
C15   H1    S    
C56   C67   A    
C12   C53   S    
C47   N3    A    
C47   H49   S    
C31   H12   S    
C26   C31   A    
N3    Zn1   S    
C57   C58   S    
C64   C65   S    
C22   C24   A    
C3    C9    A    
C18   C32   A    
C4    C6    S    
C50   C51   A    
Br3   C29   S    
C66   H47   S    
C3    H6    S    
C27   C29   A    
C25   C33   A    
C54   C55   S    
C60   H30   S    
C4    O9    A    
C48   C63   S    
O8    Zn2   S    
C40   C52   A    
C17   N1    S    
C57   H22   S    
C5    C6    A    
C48   N3    A    
C20   C21   A    
C7    C8    A    
C1    C33   S    
C54   H13   S    
C14   C15   A    
C12   C23   A    
C4    O10   A    
C49   N1    A    
C42   C47   A    
C59   H17   S    
C53   H16   S    
