data_mof_unit_34368.cif
_audit_creation_date              2012-12-10T16:44:45-0500
_audit_creation_method            fapswitch 2.2
_symmetry_space_group_name_H-M    P1
_symmetry_Int_Tables_number       1
_space_group_crystal_system       triclinic
_cell_length_a                    14.98422
_cell_length_b                    8.648217
_cell_length_c                    7.456238
_cell_angle_alpha                 102.911764
_cell_angle_beta                  94.220566
_cell_angle_gamma                 92.234466
_cell_volume                      937.716605065

loop_
_atom_site_label
_atom_site_type_symbol
_atom_type_description
_atom_site_fract_x
_atom_site_fract_y
_atom_site_fract_z
_atom_type_partial_charge
C1    C     C_R   0.486282 0.199945 0.453960 0.858516
C2    C     C_R   0.489554 0.797810 0.546375 0.822580
C3    C     C_R   0.036795 0.222057 0.343206 -0.187243
C4    C     C_R   0.962559 0.776828 0.665142 -0.209592
C5    C     C_2   0.458881 0.031776 0.426629 -0.030777
C6    C     C_2   0.464244 0.961958 0.571787 -0.079587
C7    C     C_R   0.329057 0.502378 0.502846 0.769575
C8    C     C_R   0.670777 0.499230 0.497481 0.826855
C9    C     C_R   0.818405 0.635753 0.582093 -0.193706
C10   C     C_R   0.180926 0.365288 0.422380 -0.203631
C11   C     C_R   0.766806 0.499275 0.493453 -0.069910
C12   C     C_R   0.232722 0.502690 0.507884 -0.041118
C13   C     C_R   0.806541 0.361295 0.409553 -0.203396
C14   C     C_R   0.192664 0.640390 0.592711 -0.211639
C15   C     C_R   0.900286 0.355996 0.418727 0.033931
C16   C     C_R   0.098910 0.642480 0.589726 0.027719
C17   C     C_R   0.952728 0.497735 0.502963 0.048397
C18   C     C_R   0.046562 0.500795 0.505741 0.050453
C19   C     C_R   0.911203 0.637162 0.584162 0.091662
C20   C     C_R   0.088090 0.362357 0.422868 0.105176
C21   C     C_R   0.943375 0.215424 0.343603 -0.028601
C22   C     C_R   0.055730 0.781394 0.667408 0.016623
Cu1   Cu    Cu3+1 0.510010 0.517380 0.684380 0.948824
Cu2   Cu    Cu3+1 0.489990 0.482620 0.315620 0.938675
H1    H     H_    0.785870 0.741490 0.646698 0.146861
H2    H     H_    0.213238 0.260134 0.357452 0.132285
H3    H     H_    0.763239 0.259634 0.339181 0.170478
H4    H     H_    0.234921 0.745254 0.657800 0.129563
H5    H     H_    0.070214 0.115449 0.285482 0.216312
H6    H     H_    0.929806 0.883944 0.724254 0.184604
H7    H     H_    0.425296 0.387507 0.950953 0.234325
H8    H     H_    0.572938 0.616716 0.050182 0.235047
N1    N     N_2   0.474890 0.456420 0.038520 -0.228547
N2    N     N_2   0.525110 0.543580 0.961480 -0.219204
O1    O     O_R   0.506510 0.286130 0.619770 -0.587441
O2    O     O_R   0.493490 0.713870 0.380230 -0.603030
O3    O     O_R   0.489600 0.256770 0.308360 -0.583017
O4    O     O_R   0.510400 0.743230 0.691640 -0.587903
O5    O     O_R   0.378710 0.514640 0.655720 -0.593235
O6    O     O_R   0.621290 0.485360 0.344280 -0.576780
O7    O     O_R   0.361800 0.485290 0.344300 -0.589971
O8    O     O_R   0.638200 0.514710 0.655700 -0.566928
C23   C     C_2   0.895004 0.057982 0.270574 0.843176
O9    O     O_2   0.832294 0.016150 0.348133 -0.621372
O10   O     O_R   0.924814 0.953427 0.118139 -0.749364
H9    H     H_    0.887925 0.848691 0.082984 0.334542
C24   C     C_2   0.104565 0.935444 0.745606 0.829713
O11   O     O_2   0.123506 0.022401 0.643794 -0.625665
O12   O     O_R   0.124347 0.984703 0.936297 -0.753688
H10   H     H_    0.154797 0.095231 0.974032 0.322489
C25   C     C_3   0.413996 0.947011 0.237161 -0.381630
C26   C     C_3   0.327005 0.021327 0.191001 -0.862347
H11   H     H_    0.279367 0.013558 0.296333 0.266338
H12   H     H_    0.338431 0.147011 0.184149 0.262862
H13   H     H_    0.295942 0.953770 0.054944 0.267995
H14   H     H_    0.462006 0.949645 0.131754 0.206471
H15   H     H_    0.391483 0.822064 0.226499 0.251700
C27   C     C_3   0.431279 0.041174 0.756956 -0.412078
C28   C     C_3   0.338712 0.106347 0.732350 -0.783415
H16   H     H_    0.340586 0.203565 0.657834 0.254789
H17   H     H_    0.291503 0.009477 0.652469 0.268945
H18   H     H_    0.313300 0.154017 0.868330 0.232889
H19   H     H_    0.422664 0.952218 0.840936 0.218427
H20   H     H_    0.480642 0.133385 0.838728 0.236016

loop_
_geom_bond_atom_site_label_1
_geom_bond_atom_site_label_2
_ccdc_geom_bond_type
C17   C18   A    
C15   C21   A    
C23   O9    D    
H7    N1    S    
C15   C17   A    
C25   H15   S    
C10   C20   A    
Cu1   O4    S    
C4    C22   A    
C2    O4    A    
C18   C20   A    
Cu2   N1    S    
C1    C5    S    
C26   H13   S    
C1    O3    A    
Cu1   Cu2   S    
Cu1   N2    S    
C16   C22   A    
C10   H2    S    
C13   C15   A    
C22   C24   S    
C12   C14   A    
C9    H1    S    
C28   H16   S    
C24   O12   S    
C2    C6    S    
O10   H9    S    
Cu2   O7    S    
C23   O10   S    
Cu2   O2    S    
Cu1   O8    S    
C10   C12   A    
C8    C11   S    
Cu1   O5    S    
C4    H6    S    
Cu2   O6    S    
C26   H12   S    
Cu2   O3    S    
Cu1   O1    S    
C9    C11   A    
C27   H20   S    
C5    C6    D    
C14   C16   A    
C7    C12   S    
C28   H17   S    
C11   C13   A    
C3    C21   A    
C14   H4    S    
C25   C26   S    
C24   O11   D    
C3    C20   A    
N1    N2    D    
C26   H11   S    
C1    O1    A    
C16   C18   A    
O12   H10   S    
C2    O2    A    
C27   H19   S    
C3    H5    S    
C6    C27   S    
C13   H3    S    
C28   H18   S    
C7    O5    A    
C8    O6    A    
C17   C19   A    
C27   C28   S    
C21   C23   S    
C4    C19   A    
C9    C19   A    
C5    C25   S    
C25   H14   S    
C7    O7    A    
C8    O8    A    
H8    N2    S    
