data_mof_unit_63333.cif
_audit_creation_date              2012-12-10T18:12:01-0500
_audit_creation_method            fapswitch 2.2
_symmetry_space_group_name_H-M    P1
_symmetry_Int_Tables_number       1
_space_group_crystal_system       triclinic
_cell_length_a                    18.714249
_cell_length_b                    18.718468
_cell_length_c                    18.710639
_cell_angle_alpha                 109.542573
_cell_angle_beta                  109.390412
_cell_angle_gamma                 109.547575
_cell_volume                      5041.38151988

loop_
_atom_site_label
_atom_site_type_symbol
_atom_type_description
_atom_site_fract_x
_atom_site_fract_y
_atom_site_fract_z
_atom_type_partial_charge
C1    C     C_R   0.620216 0.620268 0.499978 0.860451
C2    C     C_R   0.191247 0.164261 0.202085 -0.113684
C3    C     C_R   0.176402 0.421577 0.178204 -0.245377
C4    C     C_R   0.186283 0.502320 0.188643 -0.075648
C5    C     C_R   0.258927 0.581704 0.261768 -0.002579
C6    C     C_R   0.321194 0.578307 0.323983 -0.244945
C7    C     C_R   0.311273 0.497564 0.313629 -0.076964
C8    C     C_R   0.238624 0.418154 0.240455 -0.002098
C9    C     C_R   0.341662 0.727798 0.278524 -0.140067
C10   C     C_R   0.353893 0.810797 0.295078 -0.142139
C11   C     C_R   0.295642 0.835510 0.311057 -0.112448
C12   C     C_R   0.378514 0.498597 0.379744 0.872523
C13   C     C_R   0.225032 0.777232 0.310405 -0.118725
C14   C     C_R   0.211888 0.693723 0.292795 -0.136397
C15   C     C_R   0.270226 0.668529 0.276731 0.131639
C16   C     C_R   0.757518 0.758372 0.579706 -0.185090
C17   C     C_R   0.822176 0.821637 0.579677 -0.185989
C18   C     C_R   0.813548 0.813633 0.499890 -0.008778
C19   C     C_R   0.741587 0.742403 0.420128 -0.187982
C20   C     C_R   0.678281 0.677775 0.420153 -0.188387
C21   C     C_R   0.686276 0.686427 0.499945 -0.008285
C22   C     C_R   0.683412 0.511520 0.763524 -0.255354
C23   C     C_R   0.380031 0.379734 0.500334 0.860934
C24   C     C_R   0.747462 0.512495 0.828758 0.216670
C25   C     C_R   0.813802 0.501841 0.815588 -0.041737
C26   C     C_R   0.816523 0.491004 0.739167 -0.243800
C27   C     C_R   0.751898 0.488977 0.674167 -0.183521
C28   C     C_R   0.685943 0.499762 0.686805 -0.045206
C29   C     C_R   0.245546 0.324615 0.506517 -0.204592
C30   C     C_R   0.180573 0.259775 0.504617 -0.192892
C31   C     C_R   0.186381 0.186057 0.499908 -0.006369
C32   C     C_R   0.255596 0.175683 0.495558 -0.197962
C33   C     C_R   0.319102 0.239204 0.494614 -0.193764
C34   C     C_R   0.620128 0.499883 0.620355 0.877383
C35   C     C_R   0.314129 0.313691 0.500761 -0.015300
C36   C     C_R   0.999908 0.620310 0.120140 0.863955
C37   C     C_R   0.120235 0.501365 0.121455 0.871452
C38   C     C_R   0.000052 0.379698 0.879792 0.855356
C39   C     C_R   0.879850 0.500377 0.880211 0.890197
C40   C     C_R   0.000026 0.879845 0.379711 0.857230
C41   C     C_R   0.879738 0.879695 0.499879 0.859261
C42   C     C_R   0.000040 0.120122 0.620186 0.859648
C43   C     C_R   0.120230 0.119985 0.499828 0.857650
C44   C     C_R   0.009787 0.762836 0.183442 -0.202188
C45   C     C_R   0.206181 0.189468 0.143708 -0.142032
C46   C     C_R   0.008482 0.826196 0.246710 -0.196103
C47   C     C_R   0.999935 0.813840 0.313615 -0.004529
C48   C     C_R   0.991299 0.738364 0.317342 -0.195020
C49   C     C_R   0.989631 0.673674 0.252454 -0.202529
C50   C     C_R   0.999535 0.686446 0.186108 -0.018654
C51   C     C_R   0.079826 0.321975 0.821844 -0.187868
C52   C     C_R   0.079818 0.257305 0.758531 -0.187912
C53   C     C_R   0.000061 0.186213 0.686424 -0.009113
C54   C     C_R   0.920308 0.178400 0.677676 -0.186087
C55   C     C_R   0.920304 0.241701 0.742337 -0.187076
C56   C     C_R   0.222071 0.272470 0.156458 -0.141488
C57   C     C_R   0.000064 0.313506 0.813718 -0.006461
C58   C     C_R   0.224178 0.331242 0.228498 0.131689
C59   C     C_R   0.209058 0.305501 0.286895 -0.132602
C60   C     C_R   0.192236 0.222031 0.273317 -0.118173
H1    H     H_    0.178452 0.099810 0.191876 0.123073
H2    H     H_    0.305484 0.899978 0.324424 0.123025
H3    H     H_    0.180848 0.797088 0.324065 0.149626
H4    H     H_    0.157109 0.649204 0.292769 0.108099
H5    H     H_    0.763582 0.764592 0.641434 0.144003
H6    H     H_    0.877943 0.877237 0.641387 0.143690
H7    H     H_    0.735380 0.736325 0.358399 0.143353
H8    H     H_    0.622666 0.622016 0.358447 0.142546
H9    H     H_    0.631866 0.519878 0.772588 0.148451
H10   H     H_    0.867800 0.482694 0.729436 0.153084
H11   H     H_    0.205010 0.144525 0.088325 0.129180
H12   H     H_    0.753989 0.480337 0.614802 0.154635
H13   H     H_    0.241521 0.382149 0.510604 0.145886
H14   H     H_    0.126801 0.267530 0.508224 0.144521
H15   H     H_    0.259478 0.118092 0.491515 0.140610
H16   H     H_    0.372482 0.231041 0.490369 0.146441
H17   H     H_    0.017401 0.772628 0.131948 0.147679
H18   H     H_    0.015578 0.885199 0.244532 0.139093
H19   H     H_    0.984533 0.729209 0.369436 0.143149
H20   H     H_    0.982481 0.614772 0.254872 0.147455
H21   H     H_    0.141531 0.377624 0.877565 0.142482
H22   H     H_    0.233000 0.291097 0.110478 0.125763
H23   H     H_    0.141527 0.263254 0.764846 0.143777
H24   H     H_    0.858595 0.122919 0.621805 0.143699
H25   H     H_    0.858597 0.235621 0.736170 0.143080
H26   H     H_    0.209287 0.349603 0.342110 0.106436
H27   H     H_    0.179479 0.201816 0.317660 0.148310
H28   H     H_    0.119935 0.361061 0.121322 0.155781
H29   H     H_    0.377687 0.638849 0.380804 0.156381
H30   H     H_    0.387584 0.709572 0.266874 0.125575
H31   H     H_    0.408809 0.856136 0.296006 0.128808
O1    O     O_R   0.591640 0.539900 0.448310 -0.624098
O2    O     O_R   0.051750 0.643320 0.091550 -0.620400
O3    O     O_R   0.039910 0.448280 0.091610 -0.626741
O4    O     O_R   0.143370 0.551700 0.091590 -0.612166
O5    O     O_R   0.948300 0.356650 0.908390 -0.624933
O6    O     O_R   0.051750 0.460070 0.908380 -0.624249
O7    O     O_R   0.856690 0.448280 0.908350 -0.601284
O8    O     O_R   0.960140 0.551690 0.908340 -0.631882
O9    O     O_R   0.051710 0.908290 0.460000 -0.624013
O10   O     O_R   0.948270 0.908330 0.356580 -0.621121
O11   O     O_R   0.960090 0.908280 0.551610 -0.622548
O12   O     O_R   0.591610 0.643330 0.551710 -0.622578
O13   O     O_R   0.856650 0.908310 0.448190 -0.623451
O14   O     O_R   0.051730 0.091500 0.643240 -0.623244
O15   O     O_R   0.948290 0.091530 0.539820 -0.622739
O16   O     O_R   0.143350 0.091510 0.551630 -0.621040
O17   O     O_R   0.039910 0.091550 0.448210 -0.624604
O18   O     O_R   0.408400 0.448280 0.356670 -0.611878
O19   O     O_R   0.408370 0.551710 0.460080 -0.625297
O20   O     O_R   0.408390 0.356670 0.448290 -0.617128
O21   O     O_R   0.408360 0.460100 0.551690 -0.625766
O22   O     O_R   0.591630 0.448290 0.539920 -0.627043
O23   O     O_R   0.591600 0.551720 0.643330 -0.623839
O24   O     O_R   0.948300 0.539910 0.091570 -0.616756
Zn1   Zn    Zn3+2 0.500020 0.430940 0.430950 0.958472
Zn2   Zn    Zn3+2 0.499980 0.569060 0.569050 0.949656
Zn3   Zn    Zn3+2 0.930950 0.430940 0.999980 0.961289
Zn4   Zn    Zn3+2 0.069100 0.569040 0.999960 0.957714
Zn5   Zn    Zn3+2 0.069070 0.999890 0.568970 0.949652
Zn6   Zn    Zn3+2 0.930930 0.999930 0.430860 0.948801
N1    N     N_2   0.745730 0.525293 0.907458 -0.300465
H32   H     H_    0.683434 0.499882 0.898874 0.222377
C61   C     C_3   0.803082 0.614537 0.979457 -0.770510
H33   H     H_    0.780098 0.658161 0.964682 0.233212
H34   H     H_    0.871180 0.638233 0.991794 0.230991
H35   H     H_    0.803085 0.617581 0.039753 0.247791

loop_
_geom_bond_atom_site_label_1
_geom_bond_atom_site_label_2
_ccdc_geom_bond_type
C40   C47   S    
C1    C21   S    
C16   C21   A    
C45   H11   S    
C11   C13   A    
C19   C20   A    
O17   Zn6   S    
C11   H2    S    
C32   H15   S    
C12   O19   A    
C36   C50   S    
C7    C8    A    
C53   C54   A    
C34   O22   A    
C23   O21   A    
C17   H6    S    
C31   C43   S    
C48   H19   S    
O5    Zn3   S    
C44   H17   S    
C42   C53   S    
C30   C31   A    
C30   H14   S    
C2    C60   A    
C29   H13   S    
C41   O11   A    
C37   O4    A    
C18   C19   A    
O18   Zn1   S    
C8    C58   S    
C40   O10   A    
C54   C55   A    
C36   O2    A    
C47   C48   A    
C45   C56   A    
C16   C17   A    
O14   Zn5   S    
C19   H7    S    
O20   Zn1   S    
C51   C57   A    
C9    C10   A    
C51   H21   S    
C22   H9    S    
C2    H1    S    
O22   Zn1   S    
C28   C34   S    
C59   C60   A    
C22   C28   A    
C13   C14   A    
O12   Zn2   S    
C38   O6    A    
O19   Zn2   S    
C54   H24   S    
C12   O18   A    
C60   H27   S    
C44   C46   A    
O7    Zn3   S    
C2    C45   A    
C7    C12   S    
C51   C52   A    
C24   C25   A    
C3    C8    A    
C18   C41   S    
C46   H18   S    
C39   O7    A    
O13   Zn6   S    
O4    Zn4   S    
C25   C26   A    
O10   Zn6   S    
C55   H25   S    
C52   H23   S    
C29   C30   A    
C38   C57   S    
O1    Zn1   S    
C33   H16   S    
C39   O8    A    
C31   C32   A    
C13   H3    S    
O24   Zn3   S    
C14   H4    S    
C24   N1    S    
C17   C18   A    
C26   C27   A    
C43   O16   A    
C4    C37   S    
C42   O15   A    
C61   H35   S    
O9    Zn5   S    
C48   C49   A    
C10   H31   S    
C1    O1    A    
C23   C35   S    
C55   C57   A    
C26   H10   S    
C22   C24   A    
N1    C61   S    
C3    C4    A    
O16   Zn5   S    
O11   Zn5   S    
C52   C53   A    
C61   H34   S    
C44   C50   A    
C1    O12   A    
C46   C47   A    
C3    H28   S    
C20   H8    S    
C4    C5    A    
C9    H30   S    
C40   O9    A    
C49   H20   S    
C56   H22   S    
C6    C7    A    
C34   O23   A    
C6    H29   S    
C23   O20   A    
C29   C35   A    
C41   O13   A    
O21   Zn2   S    
C32   C33   A    
C58   C59   A    
C59   H26   S    
C25   C39   S    
O3    Zn3   S    
C5    C6    A    
O15   Zn6   S    
O6    Zn4   S    
C33   C35   A    
C56   C58   A    
C37   O3    A    
C43   O17   A    
C9    C15   A    
C42   O14   A    
C5    C15   S    
O23   Zn2   S    
C10   C11   A    
O8    Zn4   S    
C20   C21   A    
C49   C50   A    
C38   O5    A    
C27   C28   A    
C14   C15   A    
C16   H5    S    
O2    Zn4   S    
N1    H32   S    
C36   O24   A    
C27   H12   S    
C61   H33   S    
