data_mof_unit_58897.cif
_audit_creation_date              2013-03-05T16:43:30-0500
_audit_creation_method            fapswitch 2.2
_symmetry_space_group_name_H-M    P1
_symmetry_Int_Tables_number       1
_space_group_crystal_system       triclinic
_cell_length_a                    10.569651
_cell_length_b                    10.616899
_cell_length_c                    9.909104
_cell_angle_alpha                 90.159397
_cell_angle_beta                  90.814921
_cell_angle_gamma                 90.416839
_cell_volume                      1111.82257713

loop_
_atom_site_label
_atom_site_type_symbol
_atom_site_description
_atom_site_fract_x
_atom_site_fract_y
_atom_site_fract_z
_atom_type_partial_charge
O1    O     O_R   0.500020 0.316790 0.614690 -0.614505
O2    O     O_R   0.500000 0.316760 0.385350 -0.612501
C1    C     C_R   0.492669 0.260163 0.499917 0.960790
O3    O     O_R   0.313960 0.499990 0.614650 -0.633392
O4    O     O_R   0.313940 0.499950 0.385310 -0.624864
C2    C     C_R   0.258048 0.489125 0.498982 0.958329
Zn1   Zn    Zn3+2 0.500010 0.500020 0.653130 0.984361
Zn2   Zn    Zn3+2 0.499990 0.499980 0.346870 1.013275
O5    O     O_R   0.500000 0.683240 0.614650 -0.629951
O6    O     O_R   0.499980 0.683210 0.385310 -0.615828
O7    O     O_R   0.686060 0.500050 0.614690 -0.579683
O8    O     O_R   0.686040 0.500010 0.385350 -0.563991
C3    C     C_R   0.493162 0.739855 0.500148 0.864041
C4    C     C_R   0.742046 0.503713 0.500946 1.010424
C5    C     C_3   0.038919 0.422391 0.604313 0.172672
C6    C     C_3   0.949630 0.375500 0.493102 0.187280
C7    C     C_3   0.875866 0.498004 0.502288 -0.241831
C8    C     C_3   0.965601 0.545516 0.614381 0.468979
C9    C     C_3   0.048774 0.608032 0.505607 -0.378116
C10   C     C_3   0.957919 0.558410 0.391618 -0.269092
C11   C     C_3   0.032856 0.434495 0.386095 0.299940
C12   C     C_3   0.123034 0.482641 0.497085 -0.280502
H1    H     H_    0.092176 0.703540 0.510964 0.186332
H2    H     H_    0.922288 0.613251 0.303870 0.212627
C13   C     C_R   0.472569 0.064435 0.623338 0.159970
C14   C     C_R   0.467147 0.128814 0.501311 -0.065520
C15   C     C_R   0.432262 0.064434 0.382538 -0.149296
H3    H     H_    0.415831 0.113594 0.288338 0.169139
C16   C     C_R   0.430355 0.933844 0.383306 -0.235491
H4    H     H_    0.410844 0.883605 0.289975 0.160051
C17   C     C_R   0.466399 0.870736 0.501889 -0.102160
C18   C     C_R   0.472629 0.936209 0.623591 0.146563
C19   C     C_3   0.566824 0.930093 0.737232 -0.501619
C20   C     C_3   0.566611 0.072888 0.737130 -0.446358
H5    H     H_    0.525031 0.888815 0.829433 0.199252
H6    H     H_    0.658723 0.889143 0.706755 0.223364
H7    H     H_    0.524531 0.114400 0.829152 0.197142
H8    H     H_    0.658505 0.115066 0.706844 0.256354
C21   C     C_R   0.446284 0.403187 0.069733 0.077030
N1    N     N_R   0.499140 0.499140 0.142800 -0.142540
C22   C     C_R   0.570005 0.586351 0.074028 0.530732
C23   C     C_R   0.568952 0.586184 0.929076 -0.214395
H9    H     H_    0.624786 0.654377 0.874741 0.166833
N2    N     N_R   0.499140 0.499180 0.857150 -0.124475
C24   C     C_R   0.446638 0.402953 0.927905 0.151560
C25   C     C_3   0.312534 0.361739 0.920327 -0.387989
C26   C     C_3   0.312235 0.362351 0.072980 -0.395763
H10   H     H_    0.250821 0.435056 0.875189 0.227662
H11   H     H_    0.303366 0.265430 0.877349 0.244011
H12   H     H_    0.250914 0.436471 0.115692 0.243222
H13   H     H_    0.302796 0.266495 0.116186 0.238778
N3    N     N_R   0.896811 0.248075 0.485506 0.246860
O9    O     O_R   0.971616 0.151425 0.484047 -0.293727
O10   O     O_R   0.775261 0.229927 0.478235 -0.440116
O11   O     O_3   0.653779 0.662265 0.146641 -0.612670
C27   C     C_3   0.633261 0.791833 0.121911 0.059099
H14   H     H_    0.619587 0.837523 0.221245 0.196088
H15   H     H_    0.547299 0.812621 0.059326 0.088355
C28   C     C_3   0.750896 0.851435 0.059352 -0.404045
H16   H     H_    0.836486 0.822281 0.117472 0.249969
H17   H     H_    0.760202 0.818751 0.953448 0.219105
C29   C     C_3   0.744126 0.995030 0.061689 -0.813147
H18   H     H_    0.655098 0.027511 0.012945 0.248520
H19   H     H_    0.825651 0.035351 0.006507 0.292949
H20   H     H_    0.747826 0.030107 0.167472 0.286836
N4    N     N_R   0.079687 0.339053 0.712179 0.203184
O12   O     O_R   0.014054 0.333309 0.821975 -0.347894
O13   O     O_R   0.153808 0.246012 0.682679 -0.388134
O14   O     O_3   0.924251 0.599890 0.736025 -0.607973
C30   C     C_3   0.025298 0.664312 0.802262 0.071593
H21   H     H_    0.011986 0.767133 0.787508 0.171589
H22   H     H_    0.121106 0.639162 0.764930 0.133922
C31   C     C_3   0.023074 0.634081 0.952763 -0.279017
H23   H     H_    0.927009 0.650162 0.992756 0.244225
H24   H     H_    0.046210 0.533437 0.966497 0.289669
C32   C     C_3   0.119478 0.713139 0.032569 -0.988901
H25   H     H_    0.216535 0.695760 0.995402 0.258551
H26   H     H_    0.116296 0.686904 0.140903 0.280721
H27   H     H_    0.097375 0.814868 0.022938 0.283143
N5    N     N_R   0.065925 0.363151 0.266816 0.210520
O15   O     O_R   0.003781 0.381969 0.154704 -0.379811
O16   O     O_R   0.129508 0.259645 0.281747 -0.380317

loop_
_geom_bond_atom_site_label_1
_geom_bond_atom_site_label_2
_geom_bond_distance
_ccdc_geom_bond_type
C5    C8    1.528233 S    
N4    O13   1.300443 A    
O11   C27   1.415657 S    
C6    C11   1.520737 S    
C15   C16   1.386506 A    
C20   H7    1.111613 S    
C31   H23   1.109402 S    
C9    C10   1.560151 S    
C32   H27   1.110762 S    
C7    C10   1.545621 S    
C24   C25   1.481208 S    
N2    C24   1.360168 A    
Zn1   O7    2.008343 S    
C25   H11   1.109613 S    
C14   C15   1.402795 A    
C29   H18   1.109243 S    
C32   H26   1.110701 S    
O4    C2    1.284375 A    
O7    C4    1.280979 A    
C5    C6    1.520998 S    
C2    C12   1.428068 S    
C19   H6    1.112419 S    
C27   H14   1.107919 S    
C8    C9    1.548406 S    
C22   C23   1.436226 A    
O5    C3    1.286834 A    
C22   O11   1.385503 S    
C29   H19   1.110898 S    
C5    C12   1.533282 S    
C10   H2    1.110657 S    
C6    C7    1.524417 S    
C30   H21   1.111487 S    
C13   C20   1.494580 S    
C21   C24   1.405440 A    
C13   C18   1.361374 A    
N4    O12   1.299961 A    
C28   H16   1.111809 S    
C20   H8    1.112066 S    
C11   C12   1.529481 S    
C31   H24   1.106223 S    
C4    C7    1.416052 S    
C23   N2    1.370097 A    
O3    Zn1   1.997776 S    
N3    O10   1.298679 A    
C19   C20   1.516057 S    
C26   H12   1.109877 S    
C25   H10   1.110166 S    
C28   H17   1.110303 S    
C9    C12   1.553028 S    
C32   H25   1.111398 S    
O3    C2    1.286564 A    
C21   N1    1.360236 A    
C26   H13   1.109557 S    
C13   C14   1.391325 A    
C5    N4    1.452137 S    
O1    C1    1.286056 A    
C9    H1    1.110724 S    
C16   H4    1.082843 S    
C17   C18   1.390784 A    
Zn2   O8    1.997777 S    
C30   C31   1.526826 S    
C7    C8    1.532232 S    
Zn1   N2    2.021852 S    
N5    O16   1.299984 A    
N1    C22   1.375021 A    
O8    C4    1.282248 A    
C31   C32   1.526139 S    
C23   H9    1.080424 S    
N3    O9    1.300124 A    
C21   C26   1.479494 S    
Zn1   O5    1.983287 S    
C25   C26   1.512697 S    
C28   C29   1.526862 S    
C29   H20   1.111494 S    
O1    Zn1   1.981236 S    
C3    C17   1.420179 S    
C1    C14   1.418581 S    
O2    Zn2   1.983287 S    
C6    N3    1.461110 S    
N5    O15   1.299198 A    
O6    C3    1.288775 A    
O4    Zn2   2.008343 S    
C27   C28   1.530786 S    
C18   C19   1.494310 S    
O2    C1    1.288988 A    
C16   C17   1.403623 A    
C8    O14   1.411390 S    
C11   N5    1.450359 S    
C19   H5    1.110313 S    
C27   H15   1.116463 S    
O14   C30   1.416406 S    
C10   C11   1.541793 S    
Zn2   O6    1.981236 S    
C15   H3    1.083187 S    
C30   H22   1.116984 S    
Zn2   N1    2.022038 S    
