data_mof_unit_46661.cif
_audit_creation_date              2012-12-10T17:02:57-0500
_audit_creation_method            fapswitch 2.2
_symmetry_space_group_name_H-M    P1
_symmetry_Int_Tables_number       1
_space_group_crystal_system       triclinic
_cell_length_a                    9.79501
_cell_length_b                    10.995849
_cell_length_c                    13.442795
_cell_angle_alpha                 94.049187
_cell_angle_beta                  81.591671
_cell_angle_gamma                 111.042313
_cell_volume                      1336.51764518

loop_
_atom_site_label
_atom_site_type_symbol
_atom_type_description
_atom_site_fract_x
_atom_site_fract_y
_atom_site_fract_z
_atom_type_partial_charge
C1    C     C_R   0.554453 0.745407 0.510710 0.885504
C2    C     C_R   0.437808 0.502126 0.972042 0.081925
C3    C     C_R   0.479186 0.541348 0.870325 0.087722
C4    C     C_R   0.548196 0.538408 0.037872 0.073875
C5    C     C_R   0.693750 0.622176 0.003778 0.168711
C6    C     C_R   0.727290 0.671409 0.907071 -0.251723
C7    C     C_R   0.621309 0.633320 0.841859 -0.207842
C8    C     C_R   0.518714 0.493788 0.136721 -0.248201
C9    C     C_R   0.769609 0.617040 0.166875 -0.199789
C10   C     C_R   0.376413 0.488583 0.800118 -0.109687
C11   C     C_2   0.581315 0.884561 0.520985 -0.483622
C12   C     C_R   0.423569 0.494128 0.690740 0.775626
C13   C     C_2   0.469363 0.929005 0.543754 0.567558
C14   C     C_2   0.407383 0.113424 0.498767 0.335469
C15   C     C_2   0.501077 0.068693 0.534627 -0.386528
C16   C     C_2   0.922325 0.489431 0.491751 -0.071560
C17   C     C_2   0.076593 0.508617 0.509610 -0.037445
C18   C     C_R   0.442887 0.254046 0.494521 0.741239
C19   C     C_R   0.578080 0.513417 0.309655 0.786672
C20   C     C_R   0.803628 0.658673 0.067814 -0.198767
C21   C     C_R   0.625837 0.537184 0.202189 -0.051329
C22   C     C_R   0.228890 0.416552 0.834703 -0.192742
C23   C     C_R   0.184557 0.390024 0.936082 -0.152985
C24   C     C_R   0.287432 0.429459 0.003916 -0.187754
Cu1   Cu    Cu3+1 0.362000 0.479240 0.482530 0.964107
Cu2   Cu    Cu3+1 0.638000 0.520760 0.517470 0.935733
H1    H     H_    0.853597 0.651869 0.216821 0.154603
H2    H     H_    0.694496 0.952129 0.507509 0.125454
H3    H     H_    0.124399 0.575223 0.569125 0.182979
H4    H     H_    0.873446 0.420815 0.433549 0.154696
H5    H     H_    0.107130 0.386083 0.399651 0.186058
H6    H     H_    0.894552 0.617059 0.598241 0.196983
H7    H     H_    0.836184 0.739958 0.881586 0.138966
H8    H     H_    0.914804 0.722703 0.042097 0.131592
H9    H     H_    0.412023 0.426506 0.165850 0.140955
H10   H     H_    0.148048 0.377187 0.782823 0.157686
H11   H     H_    0.244618 0.403800 0.081034 0.124854
H12   H     H_    0.070186 0.334676 0.961924 0.140820
H13   H     H_    0.651833 0.679789 0.769705 0.166689
H14   H     H_    0.607566 0.135369 0.552546 0.129171
N1    N     N_2   0.845330 0.551960 0.543750 -0.277117
N2    N     N_2   0.154690 0.448120 0.456210 -0.289132
O1    O     O_R   0.426290 0.668220 0.490680 -0.516947
O2    O     O_R   0.659360 0.703290 0.520190 -0.581226
O3    O     O_R   0.326580 0.473880 0.629020 -0.579623
O4    O     O_R   0.559660 0.508940 0.658530 -0.574216
O5    O     O_R   0.340640 0.296710 0.479810 -0.546579
O6    O     O_R   0.573710 0.331780 0.509320 -0.597976
O7    O     O_R   0.440340 0.491060 0.341470 -0.578809
O8    O     O_R   0.673420 0.526120 0.370980 -0.579055
O9    O     O_3   0.324919 0.843723 0.564679 -0.514424
C25   C     C_3   0.274447 0.859690 0.666721 -0.270440
H15   H     H_    0.268379 0.958419 0.682634 0.175065
H16   H     H_    0.345072 0.840456 0.716933 0.126938
H17   H     H_    0.161271 0.787741 0.684307 0.159246
O10   O     O_3   0.272372 0.028897 0.474355 -0.526207
C26   C     C_3   0.282210 0.014050 0.368837 -0.257638
H18   H     H_    0.369722 0.973936 0.338340 0.153541
H19   H     H_    0.301958 0.107622 0.332269 0.132668
H20   H     H_    0.175667 0.943434 0.349281 0.186253

loop_
_geom_bond_atom_site_label_1
_geom_bond_atom_site_label_2
_ccdc_geom_bond_type
Cu1   N2    S    
C14   O10   S    
C23   C24   A    
C25   H17   S    
C6    C7    A    
H5    N2    S    
C23   H12   S    
C22   H10   S    
C19   O7    A    
C9    C20   A    
C2    C4    A    
C1    C11   S    
C6    H7    S    
Cu2   O6    S    
C4    C8    A    
C20   H8    S    
C18   O5    A    
Cu1   O1    S    
C13   C15   S    
C24   H11   S    
Cu2   O2    S    
C3    C10   A    
C13   O9    S    
C10   C22   A    
C11   C13   D    
C19   O8    A    
C9    C21   A    
C26   H18   S    
C16   C17   S    
C10   C12   S    
C11   H2    S    
C19   C21   S    
C25   H16   S    
C14   C18   S    
C2    C3    A    
C3    C7    A    
Cu2   O8    S    
C2    C24   A    
C5    C6    A    
Cu1   O7    S    
C15   H14   S    
C26   H19   S    
O10   C26   S    
Cu2   O4    S    
H6    N1    S    
C16   H4    S    
O9    C25   S    
Cu1   O3    S    
C17   H3    S    
C25   H15   S    
C9    H1    S    
C12   O4    A    
C5    C20   A    
Cu1   O5    S    
C17   N2    D    
C4    C5    A    
C26   H20   S    
C7    H13   S    
C1    O2    A    
Cu1   Cu2   S    
C14   C15   D    
C16   N1    D    
C1    O1    A    
C22   C23   A    
Cu2   N1    S    
C18   O6    A    
C12   O3    A    
C8    H9    S    
C8    C21   A    
