data_mof_unit_33024.cif
_audit_creation_date              2013-03-05T16:43:41-0500
_audit_creation_method            fapswitch 2.2
_symmetry_space_group_name_H-M    P1
_symmetry_Int_Tables_number       1
_space_group_crystal_system       triclinic
_cell_length_a                    15.745283
_cell_length_b                    10.678871
_cell_length_c                    9.929534
_cell_angle_alpha                 89.249858
_cell_angle_beta                  89.592425
_cell_angle_gamma                 91.365627
_cell_volume                      1668.90686877

loop_
_atom_site_label
_atom_site_type_symbol
_atom_site_description
_atom_site_fract_x
_atom_site_fract_y
_atom_site_fract_z
_atom_type_partial_charge
O1    O     O_R   0.500010 0.316790 0.614690 -0.599671
O2    O     O_R   0.500000 0.316760 0.385350 -0.591800
C1    C     C_R   0.506000 0.260782 0.500850 0.911004
O3    O     O_R   0.376780 0.500010 0.614650 -0.621194
O4    O     O_R   0.376770 0.499970 0.385310 -0.600807
C2    C     C_R   0.338270 0.500820 0.500489 0.921349
Zn1   Zn    Zn3+2 0.500010 0.500020 0.653130 1.085891
Zn2   Zn    Zn3+2 0.499990 0.499980 0.346870 1.051130
O5    O     O_R   0.500000 0.683240 0.614650 -0.576581
O6    O     O_R   0.499990 0.683210 0.385310 -0.602073
O7    O     O_R   0.623230 0.500030 0.614690 -0.564123
O8    O     O_R   0.623220 0.499990 0.385350 -0.613793
C3    C     C_R   0.500687 0.739969 0.499465 0.920903
C4    C     C_R   0.661744 0.500351 0.499527 0.909609
C5    C     C_3   0.970397 0.452740 0.612944 0.172629
C6    C     C_3   0.027175 0.391594 0.507010 -0.169771
H1    H     H_    0.948851 0.395248 0.302412 0.234891
C7    C     C_1   0.249855 0.505750 0.502012 -0.001877
C8    C     C_1   0.750305 0.502419 0.498320 -0.008861
C9    C     C_3   0.027174 0.571192 0.609620 0.171590
C10   C     C_3   0.084264 0.511297 0.503531 -0.119849
C11   C     C_3   0.972982 0.626166 0.496936 0.177810
C12   C     C_3   0.915956 0.507760 0.500236 -0.068636
C13   C     C_3   0.029881 0.566923 0.389755 -0.154548
C14   C     C_3   0.972224 0.446521 0.391921 -0.232896
C15   C     C_1   0.174904 0.509664 0.503462 0.217195
C16   C     C_1   0.825375 0.504803 0.498263 0.187351
C17   C     C_R   0.500997 0.062605 0.621752 0.025337
C18   C     C_R   0.522753 0.130039 0.504788 -0.123888
C19   C     C_R   0.557104 0.066721 0.392928 -0.064849
C20   C     C_R   0.547596 0.936783 0.390518 -0.173024
H2    H     H_    0.568106 0.886609 0.302898 0.247899
C21   C     C_R   0.510819 0.872303 0.500691 -0.097552
C22   C     C_R   0.494902 0.935072 0.619553 0.049309
C23   C     C_3   0.418506 0.930752 0.712006 0.395944
C24   C     C_3   0.427537 0.074312 0.718091 -0.377447
H3    H     H_    0.373741 0.125279 0.673116 0.212229
C25   C     C_R   0.433027 0.448835 0.072576 0.120406
N1    N     N_R   0.499430 0.499140 0.142800 -0.168356
C26   C     C_R   0.569753 0.539868 0.069859 -0.113293
C27   C     C_R   0.569792 0.539720 0.926357 0.324480
N2    N     N_R   0.499430 0.499180 0.857150 -0.147437
C28   C     C_R   0.432663 0.449707 0.930467 0.069128
C29   C     C_3   0.342639 0.492736 0.926334 -0.367920
C30   C     C_3   0.342766 0.489122 0.080722 0.050047
H4    H     H_    0.338601 0.589350 0.884163 0.213707
H5    H     H_    0.335966 0.582491 0.127491 0.170244
C31   C     C_2   0.055096 0.258390 0.513946 1.047970
O9    O     O_2   0.001759 0.173360 0.514953 -0.501299
O10   O     O_R   0.141474 0.231912 0.519549 -0.773200
H6    H     H_    0.152029 0.138682 0.524376 0.397438
N3    N     N_R   0.432757 0.865598 0.841171 0.206820
O11   O     O_R   0.369932 0.848963 0.925900 -0.305998
O12   O     O_R   0.509383 0.843258 0.881649 -0.332809
C32   C     C_2   0.454102 0.125809 0.853237 1.086675
O13   O     O_2   0.524957 0.172842 0.868454 -0.592776
O14   O     O_R   0.396530 0.120125 0.960949 -0.683129
H7    H     H_    0.421666 0.155405 0.046571 0.367397
C33   C     C_2   0.644780 0.592690 0.137796 1.071184
O15   O     O_2   0.710875 0.534793 0.139346 -0.536722
O16   O     O_R   0.640862 0.709851 0.197548 -0.776480
H8    H     H_    0.696450 0.736219 0.240991 0.355908
N4    N     N_R   0.642636 0.588924 0.854766 0.220564
O17   O     O_R   0.640048 0.697475 0.794380 -0.295993
O18   O     O_R   0.714071 0.530321 0.859388 -0.282409
C34   C     C_2   0.281095 0.402697 0.859753 1.085013
O19   O     O_2   0.306228 0.308948 0.804309 -0.615990
O20   O     O_R   0.194798 0.429650 0.858429 -0.691230
H9    H     H_    0.160067 0.365057 0.807379 0.373023
N5    N     N_R   0.285895 0.392927 0.141705 0.245087
O21   O     O_R   0.315879 0.293502 0.199854 -0.335025
O22   O     O_R   0.205022 0.413537 0.151120 -0.303134
N6    N     N_R   0.939152 0.390263 0.735717 0.261755
O23   O     O_R   0.992620 0.350770 0.824944 -0.301441
O24   O     O_R   0.858157 0.371383 0.755788 -0.273798
C35   C     C_2   0.060870 0.633440 0.264245 1.093608
O25   O     O_2   0.009699 0.666411 0.179705 -0.506122
O26   O     O_R   0.147614 0.658464 0.244919 -0.756288
H10   H     H_    0.160459 0.703220 0.156160 0.385602
N7    N     N_R   0.945176 0.755402 0.492242 0.257609
O27   O     O_R   0.001228 0.846833 0.491036 -0.266960
O28   O     O_R   0.864759 0.780222 0.489387 -0.322532
N8    N     N_R   0.054199 0.640251 0.728059 0.269463
O29   O     O_R   0.997659 0.681455 0.811515 -0.233464
O30   O     O_R   0.134182 0.666250 0.747687 -0.275911
C36   C     C_2   0.602823 0.130699 0.279062 0.970459
O31   O     O_2   0.646411 0.224949 0.298605 -0.585968
O32   O     O_R   0.599372 0.079500 0.150258 -0.740320
H11   H     H_    0.634635 0.129832 0.081973 0.393780
N9    N     N_R   0.341244 0.885503 0.643571 0.207287
O33   O     O_R   0.313353 0.944195 0.537568 -0.360438
O34   O     O_R   0.306993 0.777171 0.676310 -0.327041

loop_
_geom_bond_atom_site_label_1
_geom_bond_atom_site_label_2
_geom_bond_distance
_ccdc_geom_bond_type
C34   O20   1.395733 S    
C32   O13   1.223683 D    
N4    O18   1.300920 A    
C6    C10   1.544943 S    
C27   N2    1.372146 A    
C29   C34   1.510613 S    
C23   C24   1.538283 S    
C7    C15   1.181849 T    
C10   C15   1.427667 S    
C6    C31   1.499701 S    
N9    O33   1.302303 A    
C29   C30   1.533000 S    
Zn1   O7    1.974653 S    
C17   C18   1.394791 A    
C35   O26   1.396857 S    
C19   C20   1.392622 A    
O7    C4    1.290470 A    
C36   O32   1.398398 S    
C5    C6    1.537677 S    
C22   C23   1.507425 S    
N6    O23   1.299739 A    
Zn1   N2    2.025681 S    
C1    C18   1.427145 S    
O5    C3    1.287091 A    
C25   C30   1.496615 S    
C20   H2    1.079244 S    
C29   H4    1.111772 S    
O20   H9    1.013369 S    
C20   C21   1.399456 A    
N5    O21   1.302043 A    
Zn2   N1    2.026538 S    
C12   C16   1.426089 S    
C19   C36   1.485956 S    
C8    C16   1.181677 T    
O32   H11   1.013791 S    
C5    C12   1.533920 S    
C34   O19   1.221540 D    
C17   C22   1.363476 A    
C33   O15   1.223183 D    
C26   C33   1.469121 S    
O1    Zn1   1.998469 S    
N6    O24   1.299931 A    
O3    Zn1   1.980217 S    
N3    O12   1.300846 A    
C21   C22   1.389112 A    
C30   H5    1.112557 S    
C5    C9    1.531309 S    
C2    C7    1.394359 S    
C33   O16   1.394199 S    
C25   N1    1.364312 A    
C13   C14   1.556005 S    
N7    O28   1.300231 A    
N1    C26   1.377359 A    
C36   O31   1.223015 D    
C13   C35   1.499141 S    
O1    C1    1.289669 A    
C28   C29   1.501125 S    
C3    C21   1.418586 S    
C18   C19   1.418445 A    
N9    O34   1.301064 A    
N8    O29   1.300226 A    
Zn2   O8    1.980219 S    
O10   H6    1.013834 S    
C35   O25   1.221963 D    
O3    C2    1.289370 A    
C31   O9    1.221957 D    
C5    N6    1.458713 S    
C9    C11   1.531312 S    
C32   O14   1.396849 S    
C11   C13   1.538378 S    
C10   C13   1.543645 S    
N2    C28   1.366324 A    
C27   N4    1.430672 S    
N3    O11   1.301436 A    
C6    C14   1.555419 S    
Zn1   O5    1.988631 S    
C26   C27   1.424921 A    
N8    O30   1.299719 A    
C30   N5    1.468295 S    
O26   H10   1.013859 S    
C4    C8    1.394018 S    
Zn2   O6    1.998469 S    
O2    Zn2   1.988629 S    
O8    C4    1.289601 A    
N7    O27   1.300320 A    
O6    C3    1.292362 A    
O4    Zn2   1.974654 S    
H1    C14   1.110387 S    
O2    C1    1.291446 A    
C11   N7    1.458046 S    
C25   C28   1.411034 A    
C24   C32   1.514771 S    
O14   H7    1.013644 S    
O4    C2    1.290813 A    
C31   O10   1.397056 S    
C12   C14   1.549764 S    
O16   H8    1.014018 S    
N4    O17   1.299740 A    
C23   N9    1.472235 S    
C9    C10   1.535700 S    
C17   C24   1.504266 S    
C24   H3    1.110907 S    
C9    N8    1.457013 S    
C23   N3    1.472258 S    
C11   C12   1.533126 S    
N5    O22   1.300331 A    
