data_mof_unit_23809.cif
_audit_creation_date              2013-03-05T16:42:22-0500
_audit_creation_method            fapswitch 2.2
_symmetry_space_group_name_H-M    P1
_symmetry_Int_Tables_number       1
_space_group_crystal_system       triclinic
_cell_length_a                    9.910514
_cell_length_b                    10.638849
_cell_length_c                    15.60945
_cell_angle_alpha                 90.228122
_cell_angle_beta                  66.413333
_cell_angle_gamma                 90.349533
_cell_volume                      1508.27761821

loop_
_atom_site_label
_atom_site_type_symbol
_atom_site_description
_atom_site_fract_x
_atom_site_fract_y
_atom_site_fract_z
_atom_type_partial_charge
O1    O     O_R   0.385310 0.683210 0.499990 -0.616380
O2    O     O_R   0.614650 0.683240 0.500000 -0.565289
C1    C     C_R   0.506323 0.739752 0.491443 0.884081
O3    O     O_R   0.319830 0.499970 0.632240 -0.579972
O4    O     O_R   0.549170 0.500000 0.632250 -0.626744
C2    C     C_R   0.407244 0.501825 0.676031 0.889463
Zn1   Zn    Zn3+2 0.346870 0.499980 0.499990 0.997471
Zn2   Zn    Zn3+2 0.653130 0.500020 0.500010 1.023884
O5    O     O_R   0.385350 0.316760 0.500000 -0.610173
O6    O     O_R   0.614690 0.316790 0.500010 -0.629195
O7    O     O_R   0.450830 0.500000 0.367750 -0.630586
O8    O     O_R   0.680170 0.500030 0.367760 -0.564346
C3    C     C_R   0.502449 0.259849 0.495808 0.907102
C4    C     C_R   0.593376 0.502098 0.323422 0.897580
C5    C     C_R   0.348886 0.518753 0.777142 -0.102598
C6    C     C_R   0.652540 0.500229 0.220500 -0.169867
C7    C     C_R   0.200964 0.638586 0.914554 0.292461
C8    C     C_R   0.234745 0.602882 0.822184 -0.175906
C9    C     C_R   0.430079 0.470138 0.824133 -0.252679
C10   C     C_R   0.410736 0.514638 0.912912 0.072940
C11   C     C_R   0.290007 0.595926 0.960032 -0.000282
C12   C     C_R   0.511959 0.485534 0.953912 0.086742
C13   C     C_R   0.483256 0.529612 0.045585 0.076608
C14   C     C_R   0.357308 0.604439 0.092241 -0.168606
C15   C     C_R   0.263122 0.636328 0.050374 -0.065328
C16   C     C_R   0.644831 0.419694 0.904602 -0.161220
C17   C     C_R   0.746603 0.399666 0.943524 -0.071150
C18   C     C_R   0.719085 0.441634 0.033254 0.100928
C19   C     C_R   0.584397 0.501411 0.086513 0.107776
C20   C     C_R   0.825488 0.425175 0.070284 -0.191190
C21   C     C_R   0.795426 0.459214 0.162827 0.336985
C22   C     C_R   0.552636 0.526689 0.180434 -0.259734
H1    H     H_    0.170310 0.695808 0.089159 0.228518
H2    H     H_    0.847467 0.350107 0.903270 0.188776
H3    H     H_    0.179843 0.648573 0.783530 0.203045
H4    H     H_    0.513020 0.402040 0.786977 0.154072
H5    H     H_    0.331370 0.646465 0.159799 0.178803
H6    H     H_    0.677657 0.386572 0.833950 0.152143
H7    H     H_    0.932935 0.388062 0.026675 0.182273
C23   C     C_R   0.414177 0.935088 0.452121 0.062365
C24   C     C_R   0.526215 0.870227 0.465414 -0.269450
C25   C     C_R   0.655588 0.937573 0.455873 0.311253
C26   C     C_R   0.648356 0.067778 0.462408 -0.251479
H8    H     H_    0.742614 0.119475 0.462885 0.210474
C27   C     C_R   0.517190 0.129054 0.474532 -0.164088
C28   C     C_R   0.409211 0.063276 0.457231 0.093087
C29   C     C_3   0.244835 0.066996 0.501831 -0.495247
C30   C     C_3   0.250097 0.923943 0.494860 0.146799
H9    H     H_    0.202540 0.101779 0.575142 0.191576
H10   H     H_    0.197192 0.113898 0.456846 0.243355
H11   H     H_    0.205732 0.875643 0.563663 0.100122
C31   C     C_R   0.877893 0.516026 0.580768 0.136083
N1    N     N_R   0.856900 0.500860 0.500610 -0.096945
C32   C     C_R   0.976958 0.468258 0.422178 -0.014426
H12   H     H_    0.962544 0.441930 0.359685 0.203176
C33   C     C_R   0.120726 0.469525 0.421746 -0.048965
H13   H     H_    0.213331 0.446343 0.357845 0.157910
N2    N     N_R   0.142540 0.500820 0.500610 -0.114296
C34   C     C_R   0.019063 0.512665 0.581614 0.175733
C35   C     C_3   0.979977 0.618613 0.650764 0.105831
C36   C     C_3   0.830009 0.624783 0.645522 -0.476550
H14   H     H_    0.049102 0.704068 0.625993 0.131137
H15   H     H_    0.735473 0.600313 0.711684 0.217817
H16   H     H_    0.814631 0.711016 0.610564 0.242668
N3    N     N_R   0.790137 0.877381 0.445991 0.233760
O9    O     O_R   0.852630 0.798388 0.377819 -0.282091
O10   O     O_R   0.863873 0.919280 0.492961 -0.384527
N4    N     N_R   0.194713 0.873574 0.427592 0.274843
O11   O     O_R   0.233728 0.923378 0.345003 -0.333435
O12   O     O_R   0.118397 0.769973 0.446484 -0.355333
N5    N     N_R   0.964992 0.578027 0.743357 0.190679
O13   O     O_R   0.896452 0.649737 0.815181 -0.348554
O14   O     O_R   0.012591 0.468682 0.755771 -0.432255
H17   H     H_    0.445783 0.560259 0.225895 0.178768
N6    N     N_R   0.911446 0.456468 0.195319 0.187065
O15   O     O_R   0.945793 0.559731 0.226970 -0.373161
O16   O     O_R   0.004220 0.363655 0.171983 -0.402913
N7    N     N_R   0.086204 0.728282 0.957703 0.204481
O17   O     O_R   0.118207 0.841265 0.976095 -0.363585
O18   O     O_R   0.950669 0.699806 0.973252 -0.312085

loop_
_geom_bond_atom_site_label_1
_geom_bond_atom_site_label_2
_geom_bond_distance
_ccdc_geom_bond_type
C5    C8    1.394953 A    
C24   C25   1.419952 A    
C9    C10   1.401643 A    
N6    O15   1.300995 A    
C29   H9    1.112130 S    
N1    C32   1.367762 A    
C6    C21   1.410787 A    
C5    C9    1.390484 A    
C16   C17   1.387751 A    
C13   C19   1.421455 A    
C18   C19   1.412599 A    
C19   C22   1.396187 A    
C31   C36   1.482948 S    
C22   H17   1.074129 S    
C20   C21   1.399764 A    
O7    C4    1.300951 A    
N7    O18   1.299867 A    
C33   H13   1.079930 S    
C35   H14   1.108419 S    
C36   H15   1.112195 S    
O5    C3    1.290407 A    
Zn1   O7    1.902747 S    
C2    C5    1.458225 S    
C28   C29   1.494327 S    
C30   H11   1.111106 S    
N4    O11   1.302389 A    
N3    O10   1.300950 A    
C25   N3    1.434218 S    
C13   C14   1.414979 A    
C8    H3    1.079199 S    
Zn1   N2    2.021236 S    
C34   C35   1.498893 S    
O3    Zn1   1.972472 S    
C14   H5    1.076464 S    
C29   H10   1.111745 S    
C17   H2    1.083132 S    
C32   C33   1.422107 A    
C14   C15   1.381035 A    
O3    C2    1.300668 A    
N5    O14   1.301922 A    
N7    O17   1.301274 A    
C16   H6    1.075852 S    
C35   N5    1.459401 S    
N2    C34   1.369123 A    
C27   C28   1.388692 A    
C7    C11   1.413317 A    
C35   C36   1.522676 S    
O1    C1    1.296833 A    
C36   H16   1.111251 S    
C23   C28   1.365823 A    
C26   H8    1.083719 S    
C31   C34   1.405069 A    
N6    O16   1.301251 A    
C21   N6    1.430868 S    
C29   C30   1.525092 S    
Zn2   O8    1.972469 S    
C7    C8    1.395052 A    
C30   N4    1.464285 S    
C26   C27   1.401104 A    
N4    O12   1.299135 A    
C23   C24   1.395339 A    
O8    C4    1.302358 A    
C4    C6    1.473517 S    
C25   C26   1.388757 A    
C31   N1    1.356905 A    
Zn1   O5    1.988499 S    
C11   C15   1.392932 A    
C32   H12   1.076712 S    
C1    C24   1.437992 S    
O1    Zn1   1.983950 S    
O2    Zn2   1.988499 S    
C10   C12   1.425124 A    
O6    C3    1.287818 A    
Zn2   N1    2.023197 S    
O4    Zn2   1.902747 S    
C6    C22   1.396796 A    
C9    H4    1.076720 S    
C18   C20   1.402717 A    
O2    C1    1.286521 A    
N5    O13   1.300172 A    
C3    C27   1.424047 S    
O4    C2    1.294911 A    
C7    N7    1.432792 S    
C33   N2    1.371806 A    
C20   H7    1.084472 S    
C10   C11   1.422577 A    
Zn2   O6    1.983950 S    
N3    O9    1.301545 A    
C12   C16   1.418789 A    
C17   C18   1.387921 A    
C12   C13   1.420920 A    
C23   C30   1.494484 S    
C15   H1    1.082331 S    
