data_mof_unit_46040.cif
_audit_creation_date              2012-12-11T14:19:35-0500
_audit_creation_method            fapswitch 2.2
_symmetry_space_group_name_H-M    P1
_symmetry_Int_Tables_number       1
_space_group_crystal_system       triclinic
_cell_length_a                    19.449244
_cell_length_b                    7.231683
_cell_length_c                    17.703947
_cell_angle_alpha                 90.054818
_cell_angle_beta                  107.772737
_cell_angle_gamma                 89.978994
_cell_volume                      2371.23322848

loop_
_atom_site_label
_atom_site_type_symbol
_atom_type_description
_atom_site_fract_x
_atom_site_fract_y
_atom_site_fract_z
_atom_type_partial_charge
O1    O     O_R   0.414820 0.494320 0.416790 -0.513458
O2    O     O_R   0.585180 0.994320 0.583210 -0.512451
O3    O     O_R   0.560270 0.819500 0.430140 -0.506358
O4    O     O_R   0.439730 0.319500 0.569860 -0.517632
C1    C     C_R   0.580398 0.655219 0.413687 0.747590
C2    C     C_R   0.419581 0.155511 0.586053 0.757510
O5    O     O_R   0.413840 0.823740 0.407440 -0.519131
O6    O     O_R   0.586160 0.323740 0.592560 -0.516143
O7    O     O_R   0.437710 0.998590 0.560350 -0.555717
O8    O     O_R   0.562290 0.498590 0.439650 -0.553346
C3    C     C_R   0.388359 0.654247 0.384127 0.658375
C4    C     C_R   0.611642 0.154319 0.615876 0.672488
O9    O     O_3   0.508000 0.662290 0.550200 -0.366259
O10   O     O_3   0.492000 0.162290 0.449800 -0.361986
V1    V     V_3+5 0.498520 0.935380 0.490690 1.635304
V2    V     V_3+5 0.501480 0.435380 0.509310 1.629854
C5    C     C_2   0.766341 0.247244 0.810857 0.100788
C6    C     C_2   0.233868 0.746450 0.188932 0.102449
C7    C     C_2   0.820273 0.121478 0.818012 -0.296452
C8    C     C_2   0.179692 0.621647 0.182003 -0.302878
H1    H     H_    0.818944 0.032263 0.768253 0.158095
H2    H     H_    0.180828 0.533395 0.231920 0.158176
C9    C     C_2   0.709450 0.275679 0.732895 0.467360
C10   C     C_2   0.290845 0.775247 0.266827 0.464980
C11   C     C_2   0.674237 0.133040 0.688576 0.312026
C12   C     C_2   0.325709 0.632783 0.311473 0.310196
C13   C     C_R   0.316949 0.014232 0.621624 -0.302360
C14   C     C_R   0.674446 0.496225 0.368096 -0.263622
C15   C     C_R   0.370731 0.148712 0.636012 -0.167052
C16   C     C_R   0.626951 0.644768 0.360801 -0.172781
C17   C     C_R   0.376471 0.280202 0.695720 0.576855
C18   C     C_R   0.624358 0.781658 0.303873 0.557018
C19   C     C_R   0.325998 0.284623 0.738999 -0.104596
C20   C     C_R   0.664855 0.762960 0.249925 -0.108587
C21   C     C_R   0.273352 0.140483 0.726134 -0.058986
C22   C     C_R   0.719122 0.622866 0.264688 -0.055602
C23   C     C_R   0.267768 0.006148 0.665941 0.059485
C24   C     C_R   0.723855 0.487159 0.323987 0.075887
C25   C     C_R   0.325124 0.429959 0.793305 -0.011802
C26   C     C_R   0.654425 0.880907 0.182779 0.012307
C27   C     C_R   0.277425 0.419544 0.838716 0.610909
C28   C     C_R   0.706485 0.882262 0.142575 0.634808
C29   C     C_R   0.228326 0.272773 0.829538 -0.157525
C30   C     C_R   0.762688 0.752063 0.159716 -0.163933
C31   C     C_R   0.225320 0.133519 0.772160 -0.112303
C32   C     C_R   0.768279 0.618564 0.219967 -0.109248
C33   C     C_R   0.174712 0.986958 0.761748 0.101867
C34   C     C_R   0.824508 0.485405 0.236853 0.099874
C35   C     C_R   0.169033 0.851715 0.701462 0.125209
C36   C     C_R   0.831322 0.353561 0.298505 0.127440
C37   C     C_R   0.212599 0.868822 0.650041 0.105977
C38   C     C_R   0.778170 0.347407 0.338939 0.120746
C39   C     C_R   0.181162 0.265449 0.876142 0.633942
C40   C     C_R   0.812792 0.751747 0.116496 0.632163
C41   C     C_R   0.131511 0.120522 0.866927 -0.223247
C42   C     C_R   0.867838 0.619349 0.132026 -0.211492
C43   C     C_R   0.129523 0.981947 0.811063 -0.244984
C44   C     C_R   0.872984 0.487646 0.191308 -0.271323
H3    H     H_    0.314757 0.915937 0.575088 0.163530
H4    H     H_    0.674864 0.394548 0.412695 0.165518
H5    H     H_    0.090352 0.873400 0.805639 0.167995
H6    H     H_    0.915703 0.387016 0.200669 0.162047
O11   O     O_R   0.937810 0.773680 0.060480 -0.504237
O12   O     O_R   0.062190 0.273680 0.939520 -0.500409
O13   O     O_R   0.086190 0.439740 0.092580 -0.526682
O14   O     O_R   0.913810 0.939740 0.907420 -0.525571
C45   C     C_R   0.113607 0.608759 0.113033 0.741916
C46   C     C_R   0.886376 0.108715 0.886973 0.741831
O15   O     O_R   0.939760 0.444210 0.069890 -0.551908
O16   O     O_R   0.060240 0.944210 0.930110 -0.550133
O17   O     O_R   0.914790 0.269640 0.916760 -0.551103
O18   O     O_R   0.085210 0.769640 0.083240 -0.550831
C47   C     C_R   0.918639 0.612421 0.084276 0.734745
C48   C     C_R   0.081453 0.112410 0.915718 0.734550
O19   O     O_3   0.992050 0.601530 0.949880 -0.377862
O20   O     O_3   0.007950 0.101530 0.050120 -0.381873
V3    V     V_3+5 0.001480 0.328340 0.009300 1.503312
V4    V     V_3+5 0.998520 0.828340 0.990700 1.507887
C49   C     C_3   0.761354 0.368100 0.879588 -0.283932
C50   C     C_3   0.688143 0.347526 0.894058 -0.617279
H7    H     H_    0.643850 0.397929 0.842304 0.248707
H8    H     H_    0.678262 0.200333 0.905434 0.256600
H9    H     H_    0.687684 0.430552 0.946732 0.222429
H10   H     H_    0.802399 0.332367 0.936386 0.191337
H11   H     H_    0.769517 0.515101 0.866236 0.224100
C51   C     C_3   0.239094 0.865759 0.119968 -0.280714
C52   C     C_3   0.312104 0.842423 0.105268 -0.631627
H12   H     H_    0.356702 0.892297 0.156878 0.241952
H13   H     H_    0.321339 0.694692 0.094011 0.252087
H14   H     H_    0.312775 0.924374 0.052456 0.224269
H15   H     H_    0.197752 0.830334 0.063314 0.194234
H16   H     H_    0.231568 0.013279 0.133192 0.221120
C53   C     C_3   0.117317 0.688193 0.692626 -0.354227
C54   C     C_3   0.039543 0.740875 0.646699 -0.775976
H17   H     H_    0.003928 0.618884 0.642566 0.223886
H18   H     H_    0.019409 0.854431 0.676405 0.225126
H19   H     H_    0.035642 0.786454 0.585724 0.222244
H20   H     H_    0.133422 0.569156 0.662615 0.183986
H21   H     H_    0.120143 0.630357 0.751535 0.195923
C55   C     C_3   0.897823 0.228379 0.324605 -0.382403
C56   C     C_3   0.888968 0.054859 0.273272 -0.729143
H22   H     H_    0.846444 0.964859 0.283047 0.213898
H23   H     H_    0.874100 0.090154 0.209353 0.259461
H24   H     H_    0.940402 0.976040 0.289707 0.209604
H25   H     H_    0.947069 0.305047 0.324049 0.167792
H26   H     H_    0.910754 0.186314 0.387457 0.188907
C57   C     C_3   0.195558 0.753969 0.573830 -0.363165
C58   C     C_3   0.242666 0.581226 0.583077 -0.765412
H27   H     H_    0.300833 0.615321 0.607026 0.233917
H28   H     H_    0.228619 0.480967 0.623160 0.220952
H29   H     H_    0.233103 0.513864 0.524390 0.220846
H30   H     H_    0.138159 0.711789 0.552559 0.188105
H31   H     H_    0.201219 0.839660 0.524081 0.175343
C59   C     C_3   0.778748 0.190421 0.397026 -0.352700
C60   C     C_3   0.815660 0.247722 0.483179 -0.776506
H32   H     H_    0.872889 0.285414 0.492186 0.222759
H33   H     H_    0.788324 0.367966 0.500352 0.231427
H34   H     H_    0.814117 0.130555 0.523120 0.224264
H35   H     H_    0.723119 0.140599 0.389609 0.205773
H36   H     H_    0.805572 0.064786 0.384035 0.187133
F1    F     F_    0.688813 0.452632 0.711186 -0.655527
F2    F     F_    0.311951 0.952177 0.288123 -0.658230
F3    F     F_    0.692065 0.956917 0.714518 -0.659605
F4    F     F_    0.307493 0.456507 0.285894 -0.661680
F5    F     F_    0.434228 0.395485 0.713409 -0.706882
F6    F     F_    0.587281 0.939029 0.306643 -0.713354
C61   C     C_3   0.369599 0.606184 0.801272 -0.225852
C62   C     C_3   0.440801 0.590562 0.868209 -0.610374
H37   H     H_    0.430237 0.572932 0.926002 0.227423
H38   H     H_    0.472923 0.470962 0.858604 0.258946
H39   H     H_    0.472873 0.718738 0.870836 0.206409
H40   H     H_    0.378771 0.646298 0.744803 0.215847
H41   H     H_    0.339048 0.725901 0.814161 0.196951
C63   C     C_3   0.586138 0.994612 0.146063 -0.241768
C64   C     C_3   0.543332 0.920639 0.064045 -0.738174
H42   H     H_    0.574048 0.934362 0.020885 0.276641
H43   H     H_    0.529486 0.772738 0.068292 0.222213
H44   H     H_    0.492354 0.000213 0.040875 0.218366
H45   H     H_    0.547383 0.993262 0.180047 0.245549
H46   H     H_    0.601014 0.141503 0.141111 0.209712
F7    F     F_    0.278743 0.556732 0.891829 -0.647975
F8    F     F_    0.701064 0.011424 0.085220 -0.646326
F9    F     F_    0.184705 0.396443 0.932374 -0.632421
F10   F     F_    0.806833 0.875899 0.057189 -0.636129

loop_
_geom_bond_atom_site_label_1
_geom_bond_atom_site_label_2
_ccdc_geom_bond_type
C44   H6    S    
C64   H44   S    
C40   F10   S    
C52   H12   S    
C53   C54   S    
C13   C15   A    
O12   V3    S    
C8    C45   S    
O14   C46   A    
O1    C3    A    
O17   V3    S    
O2    C4    A    
C62   H37   S    
C2    O7    A    
C59   C60   S    
C64   H42   S    
C9    F1    S    
O5    C3    A    
C55   H25   S    
C56   H22   S    
C12   F4    S    
C20   C26   A    
C7    H1    S    
C10   C12   D    
C51   H15   S    
C63   H46   S    
C49   H10   S    
C23   C37   A    
O16   V4    S    
C37   C57   S    
C60   H32   S    
C5    C49   S    
C58   H27   S    
C45   O18   A    
C57   H30   S    
C35   C37   A    
C18   F6    S    
C43   H5    S    
O16   C48   A    
C57   H31   S    
O18   V4    S    
C13   H3    S    
C5    C7    D    
C61   H40   S    
C41   C48   S    
O15   V3    S    
C29   C39   A    
C58   H28   S    
C60   H33   S    
C28   F8    S    
C36   C38   A    
C57   C58   S    
C17   C19   A    
O15   C47   A    
C53   H21   S    
C20   C22   A    
C59   H35   S    
C34   C36   A    
O6    V2    S    
C15   C17   A    
C27   C29   A    
C28   C30   A    
C50   H9    S    
C30   C32   A    
C32   C34   A    
C14   H4    S    
O14   V4    S    
C40   C42   A    
O13   V3    S    
C25   C61   S    
O20   V3    S    
C33   C35   A    
C31   C33   A    
C63   H45   S    
C51   C52   S    
O5    V1    S    
O11   C47   A    
C54   H19   S    
O13   C45   A    
C26   C63   S    
C39   F9    S    
C18   C20   A    
O4    V2    S    
C27   F7    S    
C33   C43   A    
C19   C25   A    
C5    C9    S    
C14   C24   A    
O6    C4    A    
C60   H34   S    
C10   F2    S    
C7    C46   S    
O1    V2    S    
C6    C51   S    
C54   H18   S    
O2    V1    S    
C11   F3    S    
C50   H8    S    
C8    H2    S    
C56   H24   S    
C41   C43   A    
C6    C10   S    
O9    V2    S    
O4    C2    A    
C17   F5    S    
C39   C41   A    
C61   C62   S    
C21   C31   A    
C62   H39   S    
C49   H11   S    
O3    V1    S    
C1    C16   S    
C64   H43   S    
C42   C47   S    
C21   C23   A    
C55   H26   S    
C61   H41   S    
C50   H7    S    
O3    C1    A    
C62   H38   S    
C34   C44   A    
C63   C64   S    
C38   C59   S    
C36   C55   S    
C3    C12   S    
C58   H29   S    
C4    C11   S    
C14   C16   A    
O7    V1    S    
C1    O8    A    
C29   C31   A    
C51   H16   S    
C22   C24   A    
C16   C18   A    
C22   C32   A    
C13   C23   A    
C46   O17   A    
C26   C28   A    
C55   C56   S    
C19   C21   A    
C42   C44   A    
C6    C8    D    
C9    C11   D    
C54   H17   S    
O19   V4    S    
C49   C50   S    
C30   C40   A    
C2    C15   S    
C24   C38   A    
C25   C27   A    
C56   H23   S    
C52   H14   S    
C52   H13   S    
O12   C48   A    
O10   V1    S    
O8    V2    S    
C35   C53   S    
C53   H20   S    
C59   H36   S    
O11   V4    S    
