data_mof_unit_47583.cif
_audit_creation_date              2012-12-10T17:03:28-0500
_audit_creation_method            fapswitch 2.2
_symmetry_space_group_name_H-M    P1
_symmetry_Int_Tables_number       1
_space_group_crystal_system       triclinic
_cell_length_a                    14.966796
_cell_length_b                    11.012093
_cell_length_c                    9.827644
_cell_angle_alpha                 111.062216
_cell_angle_beta                  97.974185
_cell_angle_gamma                 90.995774
_cell_volume                      1492.95394187

loop_
_atom_site_label
_atom_site_type_symbol
_atom_type_description
_atom_site_fract_x
_atom_site_fract_y
_atom_site_fract_z
_atom_type_partial_charge
C1    C     C_R   0.493735 0.254142 0.440678 0.857984
C2    C     C_R   0.506772 0.745863 0.559304 0.857973
C3    C     C_R   0.037409 0.263328 0.416474 -0.276629
C4    C     C_R   0.963725 0.737549 0.598362 -0.255856
C5    C     C_2   0.490935 0.114748 0.407198 -0.355910
C6    C     C_2   0.510932 0.885274 0.592743 -0.360865
C7    C     C_2   0.503699 0.069612 0.516517 -0.152664
C8    C     C_2   0.500525 0.930446 0.483358 -0.154211
C9    C     C_2   0.507673 0.510611 0.081181 -0.069848
C10   C     C_2   0.492307 0.489413 0.918826 -0.072590
C11   C     C_R   0.329138 0.500367 0.501629 0.805265
C12   C     C_R   0.670860 0.499756 0.498469 0.803201
C13   C     C_R   0.818395 0.617595 0.544057 -0.248675
C14   C     C_R   0.181748 0.382747 0.458847 -0.244097
C15   C     C_R   0.766861 0.499254 0.495896 -0.045144
C16   C     C_R   0.233221 0.500920 0.505301 -0.045774
C17   C     C_R   0.807102 0.380782 0.453463 -0.248650
C18   C     C_R   0.193586 0.619547 0.553975 -0.248331
C19   C     C_R   0.901195 0.378857 0.459712 0.068034
C20   C     C_R   0.100244 0.621966 0.557483 0.065175
C21   C     C_R   0.953521 0.499515 0.505054 0.041257
C22   C     C_R   0.047512 0.501258 0.507749 0.042710
C23   C     C_R   0.911771 0.618719 0.548448 0.105770
C24   C     C_R   0.088859 0.381929 0.460057 0.108976
C25   C     C_R   0.944391 0.260221 0.420519 -0.002143
C26   C     C_R   0.057856 0.740977 0.606449 -0.006400
Cu1   Cu    Cu3+1 0.515770 0.521810 0.644910 0.938943
Cu2   Cu    Cu3+1 0.484230 0.478190 0.355090 0.938624
H1    H     H_    0.785523 0.708490 0.578403 0.118959
H2    H     H_    0.214346 0.291759 0.422244 0.124564
H3    H     H_    0.764276 0.291095 0.416106 0.144785
H4    H     H_    0.236141 0.708843 0.585878 0.144083
H5    H     H_    0.070425 0.172551 0.383679 0.143788
H6    H     H_    0.931007 0.828413 0.634882 0.152021
H7    H     H_    0.489087 0.864599 0.368428 0.181620
H8    H     H_    0.516145 0.135471 0.631424 0.180971
H9    H     H_    0.522403 0.951429 0.707469 0.150819
H10   H     H_    0.478395 0.048580 0.292497 0.148916
H11   H     H_    0.439821 0.416901 0.846139 0.158073
H12   H     H_    0.560144 0.583144 0.153880 0.157431
H13   H     H_    0.588874 0.622820 0.934179 0.191769
H14   H     H_    0.411141 0.377142 0.065817 0.187458
N1    N     N_2   0.460520 0.445420 0.137370 -0.284540
N2    N     N_2   0.539480 0.554580 0.862630 -0.284750
O1    O     O_R   0.508410 0.332340 0.577400 -0.579216
O2    O     O_R   0.491590 0.667660 0.422600 -0.579254
O3    O     O_R   0.481780 0.295500 0.332650 -0.577253
O4    O     O_R   0.518220 0.704500 0.667350 -0.575819
O5    O     O_R   0.383570 0.518390 0.622380 -0.577971
O6    O     O_R   0.616430 0.481610 0.377620 -0.577516
O7    O     O_R   0.356940 0.481550 0.377630 -0.568622
O8    O     O_R   0.643060 0.518450 0.622370 -0.569724
C27   C     C_R   0.896311 0.132262 0.391641 0.108757
C28   C     C_R   0.853905 0.112199 0.501657 -0.160111
C29   C     C_R   0.812699 0.989746 0.477598 -0.145386
C30   C     C_R   0.814224 0.886155 0.344360 -0.114152
C31   C     C_R   0.856887 0.904902 0.234884 -0.137478
C32   C     C_R   0.898071 0.027282 0.258378 -0.158384
H15   H     H_    0.853572 0.191048 0.606433 0.136208
H16   H     H_    0.780142 0.974891 0.562664 0.129092
H17   H     H_    0.782686 0.791272 0.326226 0.127731
H18   H     H_    0.858380 0.824425 0.131988 0.133525
H19   H     H_    0.931454 0.040206 0.173030 0.132578
C33   C     C_R   0.109453 0.870308 0.671791 0.113198
C34   C     C_R   0.174196 0.899958 0.799499 -0.160615
C35   C     C_R   0.221270 0.022837 0.863216 -0.136564
C36   C     C_R   0.203312 0.117555 0.801263 -0.102550
C37   C     C_R   0.138033 0.089688 0.675806 -0.136173
C38   C     C_R   0.091012 0.966707 0.611194 -0.151325
H20   H     H_    0.187989 0.827970 0.849728 0.133735
H21   H     H_    0.271369 0.044839 0.961054 0.129240
H22   H     H_    0.239643 0.212766 0.850901 0.118025
H23   H     H_    0.123814 0.163712 0.629150 0.137359
H24   H     H_    0.040495 0.946547 0.514058 0.146575

loop_
_geom_bond_atom_site_label_1
_geom_bond_atom_site_label_2
_ccdc_geom_bond_type
Cu1   O4    S    
C29   C30   A    
Cu2   O3    S    
C7    C8    S    
C7    H8    S    
C31   H18   S    
C27   C28   A    
C2    O2    A    
Cu2   O2    S    
C1    C5    S    
C13   H1    S    
C19   C21   A    
C25   C27   S    
Cu2   O7    S    
C3    H5    S    
C34   H20   S    
C30   C31   A    
C13   C23   A    
C36   H22   S    
C14   C24   A    
C26   C33   S    
Cu2   O6    S    
Cu1   N2    S    
C37   C38   A    
C9    C10   S    
C18   C20   A    
C29   H16   S    
Cu1   O1    S    
C35   C36   A    
C21   C22   A    
C3    C24   A    
C2    C6    S    
C14   H2    S    
C12   O8    A    
C28   H15   S    
C4    H6    S    
C9    N1    D    
C10   N2    D    
C36   C37   A    
C3    C25   A    
C5    C7    D    
C4    C23   A    
C1    O3    A    
C6    C8    D    
C2    O4    A    
C37   H23   S    
C9    H12   S    
C10   H11   S    
C8    H7    S    
C11   O5    A    
C11   C16   S    
C4    C26   A    
C35   H21   S    
C12   C15   S    
C6    H9    S    
C38   H24   S    
C33   C38   A    
C20   C22   A    
C13   C15   A    
C17   H3    S    
H13   N2    S    
C14   C16   A    
C18   H4    S    
H14   N1    S    
Cu1   O8    S    
C32   H19   S    
C15   C17   A    
C28   C29   A    
C12   O6    A    
C27   C32   A    
Cu2   N1    S    
C33   C34   A    
C21   C23   A    
C1    O1    A    
C31   C32   A    
C20   C26   A    
C17   C19   A    
C22   C24   A    
C19   C25   A    
C11   O7    A    
C16   C18   A    
C34   C35   A    
Cu1   Cu2   S    
C30   H17   S    
C5    H10   S    
Cu1   O5    S    
