data_mof_unit_7579.cif
_audit_creation_date              2013-03-05T15:52:14-0500
_audit_creation_method            fapswitch 2.2
_symmetry_space_group_name_H-M    P1
_symmetry_Int_Tables_number       1
_space_group_crystal_system       triclinic
_cell_length_a                    23.500881
_cell_length_b                    10.853835
_cell_length_c                    9.60065
_cell_angle_alpha                 89.36313
_cell_angle_beta                  88.959712
_cell_angle_gamma                 93.194449
_cell_volume                      2444.49422488

loop_
_atom_site_label
_atom_site_type_symbol
_atom_site_description
_atom_site_fract_x
_atom_site_fract_y
_atom_site_fract_z
_atom_type_partial_charge
O1    O     O_R   0.500000 0.319640 0.618810 -0.597238
O2    O     O_R   0.500000 0.319660 0.381240 -0.594641
C1    C     C_R   0.501682 0.262014 0.502144 0.786846
O3    O     O_R   0.417880 0.499950 0.618810 -0.576849
O4    O     O_R   0.417880 0.499980 0.381240 -0.572732
C2    C     C_R   0.390989 0.500016 0.501106 0.800771
Cu1   Cu    Cu3+1 0.500000 0.499990 0.640660 0.950071
Cu2   Cu    Cu3+1 0.500000 0.500010 0.359340 0.963987
O5    O     O_R   0.500000 0.680340 0.618760 -0.609804
O6    O     O_R   0.500000 0.680360 0.381190 -0.560321
O7    O     O_R   0.582120 0.500020 0.618760 -0.592987
O8    O     O_R   0.582120 0.500050 0.381190 -0.613129
C3    C     C_R   0.494793 0.736304 0.499931 0.833776
C4    C     C_R   0.608778 0.496671 0.498942 0.797737
C5    C     C_R   0.883359 0.612902 0.482086 0.545171
N1    N     N_R   0.851939 0.504197 0.505237 -0.467419
C6    C     C_R   0.877545 0.396361 0.532652 0.543181
C7    C     C_R   0.937126 0.394665 0.535679 -0.016087
C8    C     C_R   0.970047 0.505556 0.511824 -0.016863
C9    C     C_R   0.943086 0.615943 0.485542 -0.017844
C10   C     C_R   0.964425 0.285038 0.561725 -0.152336
C11   C     C_R   0.023769 0.285300 0.563026 -0.155702
C12   C     C_R   0.057022 0.395257 0.538698 -0.015426
C13   C     C_R   0.030080 0.505931 0.513646 -0.016646
C14   C     C_R   0.063032 0.616843 0.489702 -0.015971
C15   C     C_R   0.035717 0.726623 0.464784 -0.152263
C16   C     C_R   0.976355 0.726147 0.462519 -0.156394
C17   C     C_R   0.116741 0.397477 0.537471 0.532765
N2    N     N_R   0.148065 0.505806 0.512469 -0.481999
C18   C     C_R   0.122645 0.614576 0.490188 0.526872
O9    O     O_2   0.856887 0.717366 0.454416 -0.520713
O10   O     O_2   0.845386 0.291279 0.557819 -0.520379
H1    H     H_    0.940066 0.198594 0.580504 0.194264
H2    H     H_    0.043460 0.199070 0.582681 0.191783
O11   O     O_2   0.143388 0.292281 0.559858 -0.519756
O12   O     O_2   0.155028 0.719756 0.467674 -0.518062
H3    H     H_    0.060091 0.813080 0.446213 0.193907
H4    H     H_    0.956667 0.812290 0.442362 0.191752
C19   C     C_R   0.238672 0.498734 0.378438 0.019439
C20   C     C_R   0.298346 0.497522 0.377951 -0.165416
H5    H     H_    0.321434 0.492834 0.279624 0.205521
C21   C     C_R   0.328345 0.501501 0.503298 -0.098695
C22   C     C_R   0.298102 0.507197 0.630217 -0.192947
H6    H     H_    0.320116 0.510544 0.728353 0.188902
C23   C     C_R   0.238916 0.508844 0.631853 -0.068427
H7    H     H_    0.216041 0.513256 0.730464 0.168712
C24   C     C_R   0.209021 0.504763 0.507102 0.260250
C25   C     C_R   0.761616 0.434683 0.398963 -0.061187
H8    H     H_    0.785917 0.384371 0.323760 0.186029
C26   C     C_R   0.701792 0.427799 0.396820 -0.066628
C27   C     C_R   0.671318 0.494665 0.497154 -0.119513
C28   C     C_R   0.701291 0.562902 0.598481 -0.173082
H9    H     H_    0.678802 0.614385 0.676014 0.151466
C29   C     C_R   0.760506 0.566776 0.600417 -0.083477
H10   H     H_    0.782873 0.619033 0.679997 0.155570
C30   C     C_R   0.790892 0.502961 0.500704 0.292254
H11   H     H_    0.513662 0.114225 0.284812 0.156132
C31   C     C_R   0.496480 0.107462 0.771481 -0.168886
H12   H     H_    0.519414 0.193599 0.792274 0.179353
C32   C     C_R   0.475171 0.041967 0.888672 -0.265214
H13   H     H_    0.478936 0.083660 0.990400 0.124844
C33   C     C_R   0.448913 0.924624 0.874822 0.067363
C34   C     C_R   0.449228 0.869357 0.743767 -0.122716
H14   H     H_    0.428117 0.778871 0.733692 0.187661
C35   C     C_R   0.475767 0.930821 0.626728 0.036861
C36   C     C_R   0.491509 0.057557 0.635847 0.114259
C37   C     C_R   0.501738 0.126739 0.508966 -0.103265
C38   C     C_R   0.505544 0.064601 0.382353 -0.216174
H15   H     H_    0.507545 0.892451 0.281183 0.166992
C39   C     C_R   0.500730 0.937421 0.379389 -0.150020
C40   C     C_R   0.487875 0.869304 0.501251 -0.103419
H16   H     H_    0.446070 0.339703 0.133367 0.132601
C41   C     C_R   0.560210 0.700229 0.131921 0.018085
C42   C     C_R   0.570418 0.808306 0.052204 -0.236466
H17   H     H_    0.587976 0.892249 0.099118 0.188294
C43   C     C_R   0.576441 0.798459 0.909840 -0.224606
H18   H     H_    0.595650 0.874800 0.848686 0.182710
C44   C     C_R   0.562898 0.686408 0.848168 -0.143054
H19   H     H_    0.577805 0.677969 0.743403 0.202123
C45   C     C_R   0.530950 0.592241 0.921667 0.229488
C46   C     C_R   0.530616 0.594860 0.070975 0.121488
N3    N     N_R   0.500540 0.501210 0.147910 -0.196862
C47   C     C_R   0.470459 0.411843 0.076386 -0.025571
H20   H     H_    0.445089 0.341427 0.875598 0.138780
C48   C     C_R   0.470053 0.412598 0.928632 -0.049746
N4    N     N_R   0.500560 0.501290 0.852040 -0.194922
C49   C     C_2   0.672513 0.344880 0.295202 0.366082
H21   H     H_    0.628020 0.315023 0.309829 0.087688
O13   O     O_2   0.698217 0.306802 0.194182 -0.528191
C50   C     C_2   0.424054 0.858688 0.999186 0.376589
H22   H     H_    0.424545 0.903608 0.099650 0.062028
O14   O     O_2   0.403045 0.753567 0.991424 -0.532665
C51   C     C_2   0.607142 0.688272 0.228779 0.461982
H23   H     H_    0.636606 0.616013 0.212420 0.068851
O15   O     O_2   0.616200 0.763750 0.320409 -0.557600
C52   C     C_2   0.207541 0.492505 0.245308 0.420860
H24   H     H_    0.161334 0.489476 0.245231 0.073892
O16   O     O_2   0.233132 0.490554 0.133549 -0.535719

loop_
_geom_bond_atom_site_label_1
_geom_bond_atom_site_label_2
_geom_bond_distance
_ccdc_geom_bond_type
C49   H21   1.083479 S    
C34   C35   1.417089 A    
C51   H23   1.085613 S    
C7    C10   1.405071 A    
C41   C42   1.400478 A    
C8    C9    1.408664 A    
C41   C51   1.465795 S    
C46   N3    1.400937 A    
Cu1   Cu2   2.700851 S    
C48   N4    1.367341 A    
Cu1   O7    1.937495 S    
C15   C16   1.395358 A    
C33   C34   1.399968 A    
C42   C43   1.377483 A    
N2    C24   1.433177 S    
Cu2   N3    2.029568 S    
C17   N2    1.368518 A    
C43   C44   1.382271 A    
O4    C2    1.302812 A    
O7    C4    1.301679 A    
C44   C45   1.409068 A    
Cu1   N4    2.029868 S    
C10   H1    1.083124 S    
C16   H4    1.083125 S    
C31   C32   1.394301 A    
C5    N1    1.370353 A    
C32   C33   1.392753 A    
C7    C8    1.408299 A    
O5    C3    1.297459 A    
C45   N4    1.372901 A    
H20   C48   1.081311 S    
C31   C36   1.420158 A    
C17   O11   1.349504 S    
N1    C6    1.370656 A    
C52   O16   1.221419 D    
C12   C13   1.409122 A    
C39   C40   1.396320 A    
C20   C21   1.405593 A    
C36   C37   1.433319 A    
C51   O15   1.222178 D    
C10   C11   1.394763 A    
O3    Cu1   1.945019 S    
C41   C46   1.440496 A    
C28   C29   1.390371 A    
C26   C27   1.419836 A    
C23   C24   1.399382 A    
C5    C9    1.403170 A    
C11   H2    1.083146 S    
C29   C30   1.396833 A    
C42   H17   1.084996 S    
C27   C28   1.404916 A    
C43   H18   1.083017 S    
O3    C2    1.304730 A    
C19   C20   1.403109 A    
C44   H19   1.065640 S    
C3    C40   1.461822 S    
C14   C15   1.404826 A    
C23   H7    1.083042 S    
C37   C38   1.400523 A    
C32   H13   1.083956 S    
O1    C1    1.289976 A    
C22   H6    1.083059 S    
N1    C30   1.435428 S    
N2    C18   1.368955 A    
C50   O14   1.221308 D    
C4    C27   1.470915 S    
Cu2   O8    1.945019 S    
C52   H24   1.084582 S    
C6    C7    1.402179 A    
C12   C17   1.402129 A    
C13   C14   1.408972 A    
C22   C23   1.391844 A    
C26   C49   1.486646 S    
C38   C39   1.379377 A    
C25   H8    1.083603 S    
C47   C48   1.418682 A    
O8    C4    1.303531 A    
N3    C47   1.366796 A    
C49   O13   1.221390 D    
C21   C22   1.403156 A    
H11   C38   1.083642 S    
C28   H9    1.083306 S    
C19   C24   1.411151 A    
C14   C18   1.402621 A    
C25   C30   1.400119 A    
C29   H10   1.082913 S    
C20   H5    1.083367 S    
O1    Cu1   1.971013 S    
C1    C37   1.469064 S    
C45   C46   1.433946 A    
O6    C3    1.304553 A    
O4    Cu2   1.937497 S    
C15   H3    1.083119 S    
C5    O9    1.349490 S    
C9    C16   1.405170 A    
C18   O12   1.349393 S    
O2    C1    1.314792 A    
C31   H12   1.075323 S    
C35   C40   1.415845 A    
C50   H22   1.085523 S    
C33   C50   1.479233 S    
C25   C26   1.404271 A    
C8    C13   1.411043 A    
H15   C39   1.079956 S    
C19   C52   1.484512 S    
H16   C47   1.081634 S    
C34   H14   1.081486 S    
Cu1   O5    1.966425 S    
Cu2   O6    1.971014 S    
C35   C36   1.408496 A    
C2    C21   1.472946 S    
O2    Cu2   1.966422 S    
C6    O10   1.349659 S    
C11   C12   1.404571 A    
