data_mof_unit_22519.cif
_audit_creation_date              2012-12-10T16:45:23-0500
_audit_creation_method            fapswitch 2.2
_symmetry_space_group_name_H-M    P1
_symmetry_Int_Tables_number       1
_space_group_crystal_system       triclinic
_cell_length_a                    7.330867
_cell_length_b                    9.171252
_cell_length_c                    16.826842
_cell_angle_alpha                 85.885106
_cell_angle_beta                  87.382083
_cell_angle_gamma                 101.866625
_cell_volume                      1102.17295736

loop_
_atom_site_label
_atom_site_type_symbol
_atom_type_description
_atom_site_fract_x
_atom_site_fract_y
_atom_site_fract_z
_atom_type_partial_charge
C1    C     C_R   0.541883 0.798975 0.502853 0.892872
C2    C     C_R   0.458118 0.201026 0.497147 0.898446
C3    C     C_R   0.274739 0.455298 0.056175 -0.090719
C4    C     C_R   0.732349 0.542455 0.942044 -0.096343
C5    C     C_R   0.147310 0.415618 0.002073 -0.188982
C6    C     C_R   0.857797 0.580180 0.997264 -0.187365
C7    C     C_2   0.567182 0.961314 0.506520 -0.370917
C8    C     C_2   0.432819 0.038687 0.493481 -0.372988
C9    C     C_R   0.388638 0.491618 0.664097 0.842747
C10   C     C_R   0.611635 0.509823 0.335785 0.831835
C11   C     C_R   0.314370 0.485598 0.752761 -0.169268
C12   C     C_R   0.686562 0.517494 0.247075 -0.193321
C13   C     C_R   0.064628 0.399607 0.862759 0.365980
C14   C     C_R   0.933173 0.599888 0.136953 0.385368
C15   C     C_R   0.121427 0.441411 0.782943 0.396106
C16   C     C_R   0.879204 0.562115 0.217062 0.402597
C17   C     C_R   0.446464 0.514050 0.812738 -0.310909
C18   C     C_R   0.555103 0.489152 0.186631 -0.333588
C19   C     C_R   0.397700 0.480792 0.897444 0.020540
C20   C     C_R   0.605124 0.518760 0.101448 0.015909
C21   C     C_R   0.202995 0.425710 0.920856 -0.025674
C22   C     C_R   0.798737 0.572223 0.078230 -0.025548
C23   C     C_R   0.536122 0.502552 0.958535 0.081448
C24   C     C_R   0.469529 0.495788 0.039818 0.075175
Cu1   Cu    Cu3+1 0.322120 0.483240 0.490330 0.948951
Cu2   Cu    Cu3+1 0.677880 0.516760 0.509670 0.952102
H1    H     H_    0.007535 0.378621 0.026018 0.197077
H2    H     H_    0.997773 0.616385 0.973954 0.193477
H3    H     H_    0.409849 0.441622 0.204448 0.195655
H4    H     H_    0.591706 0.563424 0.795426 0.186251
H5    H     H_    0.215441 0.420574 0.116630 0.183868
H6    H     H_    0.793690 0.574986 0.881626 0.175988
H7    H     H_    0.702206 0.017016 0.521094 0.171941
H8    H     H_    0.297795 0.982986 0.478909 0.171022
H9    H     H_    0.020763 0.638669 0.537447 0.246568
H10   H     H_    0.979315 0.360470 0.463398 0.242875
N1    N     N_2   0.945180 0.542040 0.524240 -0.284760
N2    N     N_2   0.054820 0.457960 0.475760 -0.293053
O1    O     O_R   0.384450 0.714270 0.493720 -0.604092
O2    O     O_R   0.615550 0.285730 0.506280 -0.602329
O3    O     O_R   0.684880 0.742590 0.510050 -0.605162
O4    O     O_R   0.315120 0.257410 0.489950 -0.605314
O5    O     O_R   0.265540 0.477900 0.617090 -0.616213
O6    O     O_R   0.734460 0.522100 0.382910 -0.620788
O7    O     O_R   0.565970 0.506210 0.633420 -0.569217
O8    O     O_R   0.434030 0.493790 0.366580 -0.572738
O9    O     O_3   0.019112 0.546042 0.264062 -0.623791
C25   C     C_3   0.043392 0.643679 0.319124 -0.309642
H11   H     H_    0.020631 0.553994 0.360712 0.302898
H12   H     H_    0.938384 0.721872 0.316713 0.155040
H13   H     H_    0.185376 0.700746 0.332663 0.153807
O10   O     O_3   0.984838 0.453146 0.733811 -0.644036
C26   C     C_3   0.959401 0.344851 0.683729 -0.347573
H14   H     H_    0.071558 0.271044 0.687197 0.166347
H15   H     H_    0.976501 0.427750 0.638292 0.309599
H16   H     H_    0.818615 0.281271 0.669523 0.153438
O11   O     O_3   0.871200 0.350183 0.887389 -0.656721
C27   C     C_3   0.703327 0.302396 0.844526 0.027008
H17   H     H_    0.655465 0.195084 0.876444 0.191919
H18   H     H_    0.756096 0.310494 0.789316 0.345488
H19   H     H_    0.636342 0.266803 0.793704 -0.240648
O12   O     O_3   0.121679 0.634771 0.111947 -0.636344
C28   C     C_3   0.289211 0.699097 0.149057 0.003542
H20   H     H_    0.238799 0.738710 0.204381 0.158999
H21   H     H_    0.325662 0.802872 0.113569 0.138012
H22   H     H_    0.387583 0.720240 0.199204 0.017149

loop_
_geom_bond_atom_site_label_1
_geom_bond_atom_site_label_2
_ccdc_geom_bond_type
Cu1   O4    S    
C10   O8    A    
C19   C23   A    
C23   C24   A    
C28   H21   S    
Cu2   N1    S    
C9    O7    A    
O12   C28   S    
C6    H2    S    
Cu1   N2    S    
C7    H7    S    
O9    C25   S    
C13   C15   A    
Cu1   Cu2   S    
Cu1   O5    S    
C27   H19   S    
C25   H12   S    
C3    C24   A    
C28   H22   S    
C13   C21   A    
C7    C8    D    
C18   H3    S    
C8    H8    S    
C26   H14   S    
Cu1   O1    S    
C3    H5    S    
C17   H4    S    
C9    C11   S    
Cu2   O2    S    
O11   C27   S    
C4    H6    S    
C10   C12   S    
C2    O4    A    
C10   O6    A    
C16   O9    S    
H10   N2    S    
C25   H11   S    
H9    N1    S    
N1    N2    D    
C20   C22   A    
C27   H18   S    
C18   C20   A    
C26   H15   S    
C15   O10   S    
C14   C22   A    
C14   C16   A    
C9    O5    A    
C13   O11   S    
C1    O1    A    
Cu2   O6    S    
C28   H20   S    
C14   O12   S    
C17   C19   A    
C2    O2    A    
C5    C21   A    
O10   C26   S    
C19   C21   A    
C4    C6    A    
C26   H16   S    
C1    O3    A    
C4    C23   A    
C20   C24   A    
C11   C17   A    
C6    C22   A    
Cu2   O7    S    
C1    C7    S    
C27   H17   S    
C5    H1    S    
C11   C15   A    
Cu1   O8    S    
C25   H13   S    
C2    C8    S    
C12   C16   A    
Cu2   O3    S    
C3    C5    A    
C12   C18   A    
