data_mof_unit_54076.cif
_audit_creation_date              2013-03-05T15:46:12-0500
_audit_creation_method            fapswitch 2.2
_symmetry_space_group_name_H-M    P1
_symmetry_Int_Tables_number       1
_space_group_crystal_system       triclinic
_cell_length_a                    10.518653
_cell_length_b                    10.726545
_cell_length_c                    17.137829
_cell_angle_alpha                 80.304858
_cell_angle_beta                  89.871676
_cell_angle_gamma                 119.355672
_cell_volume                      1653.16631265

loop_
_atom_site_label
_atom_site_type_symbol
_atom_site_description
_atom_site_fract_x
_atom_site_fract_y
_atom_site_fract_z
_atom_type_partial_charge
O1    O     O_R   0.521780 0.757110 0.108900 -0.484727
O2    O     O_R   0.275160 0.783810 0.101120 -0.485618
C1    C     C_R   0.223317 0.854808 0.128811 0.547728
O3    O     O_R   0.237900 0.972600 0.090980 -0.465902
O4    O     O_R   0.511190 0.220540 0.061620 -0.449645
C2    C     C_R   0.610182 0.210423 0.102661 0.582433
O5    O     O_R   0.736920 0.257720 0.063840 -0.447858
O6    O     O_R   0.710450 0.984050 0.081720 -0.476086
C3    C     C_R   0.641226 0.857947 0.125085 0.548543
O7    O     O_R   0.524090 0.765520 0.933110 -0.515923
O8    O     O_R   0.277300 0.791600 0.938160 -0.489718
C4    C     C_R   0.224956 0.864389 0.898902 0.542693
O9    O     O_R   0.240210 0.981010 0.915190 -0.497190
O10   O     O_R   0.513330 0.228330 0.898660 -0.492216
C5    C     C_R   0.637607 0.285010 0.860922 0.547386
O11   O     O_R   0.739230 0.266130 0.888050 -0.474253
O12   O     O_R   0.712580 0.991850 0.918770 -0.443628
C6    C     C_R   0.649026 0.866768 0.900018 0.559169
Cr1   Cr    Cr6+3 0.402240 0.783890 0.019450 1.098942
Cr2   Cr    Cr6+3 0.382360 0.097900 0.991800 1.119979
Cr3   Cr    Cr6+3 0.715380 0.118170 0.988700 1.135009
O13   O     O_3   0.499990 0.999980 0.999980 -0.324586
C7    C     C_R   0.498847 0.252194 0.220875 0.188716
C8    C     C_R   0.508567 0.282770 0.297619 0.199703
C9    C     C_R   0.625109 0.289786 0.340065 -0.052812
C10   C     C_R   0.712595 0.236751 0.312675 0.167934
C11   C     C_R   0.714762 0.221779 0.233577 0.144597
C12   C     C_R   0.609764 0.232701 0.185609 -0.069790
C13   C     C_1   0.669606 0.846415 0.205105 0.034660
C14   C     C_1   0.680719 0.836634 0.274528 0.032533
C15   C     C_1   0.181318 0.826361 0.211343 0.008608
C16   C     C_1   0.151843 0.820291 0.279871 0.010167
C17   C     C_1   0.644340 0.323599 0.778157 0.007545
C18   C     C_1   0.651668 0.345429 0.707639 0.040968
C19   C     C_R   0.613954 0.710319 0.807280 -0.134491
H1    H     H_    0.551199 0.615381 0.853982 0.186386
C20   C     C_R   0.590751 0.694628 0.729950 0.194928
C21   C     C_R   0.670097 0.817017 0.667953 -0.013116
C22   C     C_R   0.769860 0.952431 0.685972 -0.117676
H2    H     H_    0.836939 0.045046 0.638905 0.198288
C23   C     C_R   0.784047 0.969769 0.764345 0.210026
C24   C     C_R   0.696833 0.848842 0.825377 -0.011455
C25   C     C_R   0.262013 0.968251 0.758019 -0.074251
H3    H     H_    0.327400 0.076023 0.771597 0.178275
C26   C     C_R   0.247991 0.955218 0.679389 0.220322
C27   C     C_R   0.161754 0.816412 0.661345 0.034527
C28   C     C_R   0.104863 0.691036 0.722000 -0.144430
H4    H     H_    0.038430 0.582821 0.709244 0.177820
C29   C     C_R   0.122491 0.704930 0.800776 -0.135232
H5    H     H_    0.076322 0.608383 0.847451 0.162439
C30   C     C_R   0.194992 0.843935 0.818789 -0.008947
O14   O     O_R   0.083770 0.911170 0.376030 -0.443149
O15   O     O_R   0.808770 0.880340 0.383890 -0.443916
C31   C     C_R   0.686710 0.808996 0.356945 0.571061
O16   O     O_R   0.584340 0.689460 0.394160 -0.488969
O17   O     O_R   0.614320 0.443940 0.423590 -0.447709
C32   C     C_R   0.678790 0.378865 0.401913 0.596270
O18   O     O_R   0.805020 0.410040 0.421340 -0.460306
O19   O     O_R   0.049240 0.685450 0.403290 -0.495799
C33   C     C_R   0.103816 0.810391 0.359236 0.551448
O20   O     O_R   0.077520 0.903010 0.551800 -0.443855
O21   O     O_R   0.802980 0.872780 0.546830 -0.492008
C34   C     C_R   0.678620 0.796553 0.587340 0.576494
O22   O     O_R   0.578090 0.681300 0.569920 -0.441900
O23   O     O_R   0.608530 0.436370 0.586530 -0.427666
C35   C     C_R   0.678824 0.382713 0.624612 0.599801
O24   O     O_R   0.798770 0.401880 0.597100 -0.505306
O25   O     O_R   0.043450 0.677890 0.566230 -0.518686
C36   C     C_R   0.101020 0.802339 0.585576 0.566628
Cr4   Cr    Cr6+3 0.936650 0.882420 0.465510 1.187660
Cr5   Cr    Cr6+3 0.605770 0.565620 0.493360 1.184228
Cr6   Cr    Cr6+3 0.921340 0.550490 0.496380 1.117722
O26   O     O_3   0.821250 0.666180 0.485090 -0.333344
Cl1   Cl    Cl    0.348720 0.247178 0.171368 -0.428529
Cl2   Cl    Cl    0.336806 0.115270 0.605668 -0.519192
Cl3   Cl    Cl    0.371644 0.308972 0.340315 -0.398545
N1    N     N_R   0.799899 0.199034 0.365610 0.121624
O27   O     O_R   0.739712 0.113996 0.434475 -0.331943
O28   O     O_R   0.941681 0.264843 0.350486 -0.212152
Cl4   Cl    Cl    0.854135 0.192884 0.197098 -0.466058
Cl5   Cl    Cl    0.455873 0.518860 0.717405 -0.525454
Cl6   Cl    Cl    0.909565 0.144773 0.781527 -0.519223

loop_
_geom_bond_atom_site_label_1
_geom_bond_atom_site_label_2
_geom_bond_distance
_ccdc_geom_bond_type
O20   Cr4   2.056764 S    
O6    C3    1.267079 A    
O11   Cr3   2.059807 S    
C23   C24   1.410737 A    
C19   H1    1.085083 S    
O18   Cr6   2.067093 S    
C18   C35   1.400251 S    
C28   C29   1.386011 A    
O4    Cr2   1.946346 S    
N1    O27   1.301384 A    
C14   C31   1.401622 S    
O8    Cr1   1.936682 S    
C10   C11   1.393074 A    
O21   C34   1.271906 A    
C19   C20   1.371333 A    
C20   C21   1.414520 A    
C6    C24   1.449455 S    
O4    C2    1.295788 A    
C5    O11   1.257989 A    
O17   C32   1.278848 A    
O21   Cr4   1.931320 S    
O24   Cr6   2.056945 S    
O22   Cr5   2.060793 S    
C19   C24   1.396566 A    
C27   C36   1.446467 S    
O14   C33   1.274315 A    
C27   C28   1.408747 A    
C2    C12   1.480988 S    
C15   C16   1.196850 T    
O25   C36   1.271222 A    
C29   C30   1.393305 A    
C7    C8    1.400306 A    
C3    C13   1.402125 S    
O19   Cr6   1.937470 S    
C35   O24   1.251695 A    
O19   C33   1.264361 A    
Cr3   O13   1.968999 S    
C20   Cl5   1.768897 S    
C9    C32   1.473135 S    
O15   Cr4   1.938036 S    
C17   C18   1.186544 T    
N1    O28   1.301566 A    
O1    Cr1   2.056224 S    
C10   N1    1.440269 S    
O10   Cr2   1.936855 S    
Cr1   O13   1.985565 S    
O1    C3    1.263178 A    
C8    C9    1.403404 A    
C22   C23   1.385175 A    
C11   Cl4   1.772791 S    
C22   H2    1.084309 S    
Cr5   O26   1.967455 S    
C8    Cl3   1.774867 S    
C9    C10   1.411400 A    
O5    Cr3   2.065985 S    
O12   Cr3   1.944499 S    
C25   H3    1.084142 S    
C13   C14   1.187776 T    
C28   H4    1.083673 S    
O7    Cr1   2.051428 S    
O25   Cr6   1.946065 S    
O17   Cr5   1.944637 S    
Cr4   O26   1.985361 S    
O12   C6    1.271656 A    
C7    C12   1.431350 A    
C1    C15   1.417229 S    
C25   C26   1.378877 A    
Cr2   O13   1.969567 S    
C29   H5    1.083670 S    
C16   C33   1.418501 S    
C7    Cl1   1.776081 S    
C1    O3    1.254562 A    
C4    C30   1.438085 S    
C21   C34   1.444209 S    
O20   C36   1.270454 A    
C31   O16   1.256229 A    
O9    Cr2   2.063177 S    
O2    Cr1   1.932847 S    
Cr6   O26   1.971502 S    
O6    Cr3   1.941072 S    
O8    C4    1.269501 A    
O15   C31   1.267142 A    
C2    O5    1.302475 A    
C26   Cl2   1.762959 S    
O2    C1    1.276836 A    
O23   Cr5   1.940767 S    
C25   C30   1.402531 A    
C32   O18   1.260870 A    
C21   C22   1.401584 A    
O7    C6    1.272003 A    
C23   Cl6   1.763976 S    
O14   Cr4   2.050282 S    
C34   O22   1.256846 A    
O3    Cr2   2.054523 S    
C26   C27   1.402651 A    
C4    O9    1.260763 A    
O23   C35   1.263655 A    
C11   C12   1.416968 A    
O10   C5    1.257494 A    
C5    C17   1.400468 S    
O16   Cr5   2.059203 S    
