data_mof_unit_31365.cif
_audit_creation_date              2013-03-05T16:22:47-0500
_audit_creation_method            fapswitch 2.2
_symmetry_space_group_name_H-M    P1
_symmetry_Int_Tables_number       1
_space_group_crystal_system       triclinic
_cell_length_a                    19.171748
_cell_length_b                    10.486625
_cell_length_c                    9.776783
_cell_angle_alpha                 90.435333
_cell_angle_beta                  88.299792
_cell_angle_gamma                 89.966902
_cell_volume                      1964.66953322

loop_
_atom_site_label
_atom_site_type_symbol
_atom_site_description
_atom_site_fract_x
_atom_site_fract_y
_atom_site_fract_z
_atom_type_partial_charge
O1    O     O_R   0.500000 0.313960 0.616610 -0.613695
O2    O     O_R   0.500000 0.686040 0.383390 -0.610443
O3    O     O_R   0.500030 0.313950 0.383350 -0.628155
O4    O     O_R   0.499970 0.686050 0.616650 -0.625399
C1    C     C_R   0.500001 0.257567 0.499404 0.853893
C2    C     C_R   0.499970 0.742452 0.500587 0.857915
O5    O     O_R   0.398120 0.499990 0.616660 -0.563586
O6    O     O_R   0.601880 0.500010 0.383340 -0.570994
O7    O     O_R   0.398150 0.499980 0.383410 -0.636747
O8    O     O_R   0.601850 0.500020 0.616590 -0.630230
C3    C     C_R   0.365673 0.500799 0.501828 0.871462
C4    C     C_R   0.634219 0.500939 0.498041 0.870910
Zn1   Zn    Zn3+2 0.499980 0.500010 0.655740 0.979113
Zn2   Zn    Zn3+2 0.500020 0.499990 0.344260 0.971742
C5    C     C_R   0.252168 0.464435 0.621588 -0.256889
C6    C     C_R   0.745576 0.554649 0.380385 -0.280892
H1    H     H_    0.279080 0.426408 0.708021 0.211299
H2    H     H_    0.716903 0.598668 0.299522 0.218897
C7    C     C_R   0.179531 0.471979 0.626944 0.326736
C8    C     C_R   0.818144 0.548928 0.369754 0.324657
C9    C     C_R   0.144991 0.519615 0.512489 -0.030539
C10   C     C_R   0.854813 0.493464 0.477589 -0.030509
C11   C     C_R   0.183127 0.563994 0.398256 -0.188227
C12   C     C_R   0.818464 0.440434 0.589996 -0.178246
H3    H     H_    0.156989 0.600211 0.309756 0.180422
H4    H     H_    0.845981 0.398470 0.673820 0.179148
C13   C     C_R   0.255241 0.557620 0.394948 -0.210230
C14   C     C_R   0.746304 0.444119 0.597364 -0.197923
H5    H     H_    0.283790 0.592704 0.305742 0.152409
H6    H     H_    0.718936 0.401655 0.683999 0.147001
C15   C     C_R   0.289968 0.506651 0.505867 -0.084645
C16   C     C_R   0.709788 0.501076 0.492690 -0.083715
N1    N     N_R   0.034066 0.610781 0.448294 -0.140607
N2    N     N_R   0.966149 0.401333 0.537439 -0.146529
N3    N     N_R   0.965331 0.603631 0.438009 -0.098990
N4    N     N_R   0.034829 0.408564 0.547986 -0.106052
C17   C     C_R   0.930432 0.498463 0.481607 0.345338
C18   C     C_R   0.069663 0.513771 0.504592 0.342437
C19   C     C_3   0.557457 0.042958 0.560885 -0.180503
C20   C     C_3   0.442469 0.957106 0.439056 -0.178420
C21   C     C_3   0.557356 0.956918 0.432036 -0.165103
C22   C     C_3   0.442571 0.043153 0.567906 -0.167721
H7    H     H_    0.604003 0.916870 0.377029 0.151559
H8    H     H_    0.395935 0.083236 0.622929 0.144022
H9    H     H_    0.604177 0.082891 0.610194 0.138947
H10   H     H_    0.395742 0.917218 0.389740 0.138106
C23   C     C_3   0.499960 0.877637 0.501694 0.024702
C24   C     C_3   0.499970 0.122415 0.498257 0.023952
C25   C     C_3   0.500061 0.960982 0.630705 -0.136373
C26   C     C_3   0.499865 0.039091 0.369238 -0.140113
H11   H     H_    0.500148 0.925114 0.737277 0.143244
H12   H     H_    0.499769 0.075013 0.262683 0.140578
C27   C     C_3   0.477802 0.391351 0.049428 -0.249119
C28   C     C_3   0.522547 0.608171 0.950880 -0.214312
C29   C     C_3   0.539949 0.409609 0.947592 -0.283159
C30   C     C_3   0.460200 0.590089 0.052041 -0.256337
H13   H     H_    0.572279 0.333834 0.897346 0.144517
H14   H     H_    0.426308 0.664507 0.100708 0.141648
H15   H     H_    0.460372 0.300656 0.096896 0.139633
H16   H     H_    0.542412 0.697954 0.904627 0.147480
N5    N     N_3   0.499950 0.500030 0.863290 -0.107305
N6    N     N_3   0.500050 0.499970 0.136710 -0.107128
C31   C     C_3   0.438886 0.481747 0.956824 0.644220
C32   C     C_3   0.561363 0.517620 0.043647 0.641192
O9    O     O_3   0.372445 0.462266 0.902099 -0.639253
C33   C     C_3   0.321574 0.443295 0.007891 0.021853
H17   H     H_    0.274357 0.498420 0.981708 0.196835
H18   H     H_    0.337318 0.478615 0.110286 0.133935
C34   C     C_3   0.302069 0.301999 0.016640 -0.336089
H19   H     H_    0.282793 0.268828 0.916509 0.261490
H20   H     H_    0.348658 0.244267 0.039787 0.197536
C35   C     C_3   0.246001 0.279443 0.127936 -0.830125
H21   H     H_    0.265792 0.306787 0.229711 0.251062
H22   H     H_    0.231796 0.176832 0.129828 0.265299
H23   H     H_    0.198507 0.336138 0.107591 0.297160
O10   O     O_3   0.626441 0.545760 0.100704 -0.637054
C36   C     C_3   0.682162 0.495326 0.019367 0.044121
H24   H     H_    0.727126 0.561187 0.028716 0.217431
H25   H     H_    0.671002 0.490982 0.908158 0.129820
C37   C     C_3   0.703415 0.364275 0.073000 -0.369133
H26   H     H_    0.715218 0.372212 0.183169 0.247824
H27   H     H_    0.659784 0.295612 0.063221 0.209705
C38   C     C_3   0.767612 0.312151 0.995431 -0.865741
H28   H     H_    0.755904 0.295897 0.886245 0.243689
H29   H     H_    0.783066 0.219804 0.040408 0.276713
H30   H     H_    0.811951 0.379767 0.002757 0.301426
N7    N     N_R   0.141915 0.434553 0.749472 0.204568
O11   O     O_R   0.091119 0.504859 0.799183 -0.354649
O12   O     O_R   0.162710 0.337266 0.819230 -0.410826
N8    N     N_R   0.853155 0.594771 0.247654 0.202328
O13   O     O_R   0.903689 0.528923 0.190027 -0.366494
O14   O     O_R   0.828066 0.691653 0.182748 -0.391773

loop_
_geom_bond_atom_site_label_1
_geom_bond_atom_site_label_2
_geom_bond_distance
_ccdc_geom_bond_type
C20   C23   1.526795 S    
C33   H18   1.114860 S    
N7    O11   1.301455 A    
C31   O9    1.410534 S    
C13   H5    1.082749 S    
N2    C17   1.354312 A    
C27   H15   1.108816 S    
C23   C25   1.529113 S    
C28   H16   1.110253 S    
C36   H24   1.110350 S    
C5    C7    1.394189 A    
O1    C1    1.285497 A    
N3    C17   1.355261 A    
C12   H4    1.083723 S    
C7    N7    1.437137 S    
C35   H23   1.110880 S    
C33   C34   1.530792 S    
Zn2   N6    2.029152 S    
C34   H20   1.108601 S    
O4    Zn1   1.990861 S    
N5    C31   1.477481 S    
N6    C32   1.477558 S    
C9    C18   1.449829 S    
C25   H11   1.110474 S    
C26   H12   1.110522 S    
C11   C13   1.383544 A    
C20   C22   1.544029 S    
N2    N4    1.325960 A    
C6    C8    1.393279 A    
C19   H9    1.110412 S    
C24   C26   1.529066 S    
C33   H17   1.111092 S    
C3    C15   1.452012 S    
C4    C16   1.448184 S    
C21   H7    1.110399 S    
O2    C2    1.285497 A    
C22   H8    1.110433 S    
C37   C38   1.525202 S    
C27   C29   1.542830 S    
C21   C23   1.526771 S    
C1    C24   1.417244 S    
C28   C30   1.541385 S    
C30   C31   1.526900 S    
C2    C23   1.417594 S    
C13   C15   1.398631 A    
C14   C16   1.394806 A    
O10   C36   1.412734 S    
C35   H22   1.110271 S    
C35   H21   1.111075 S    
C10   C17   1.452403 S    
C8    N8    1.438127 S    
C34   C35   1.526497 S    
O5    C3    1.299628 A    
O7    Zn2   1.979006 S    
C27   N6    1.488261 S    
N8    O14   1.301375 A    
C38   H28   1.109256 S    
O6    C4    1.297358 A    
C29   C32   1.529919 S    
C32   O10   1.412149 S    
C36   H25   1.114930 S    
C22   C24   1.526667 S    
O7    C3    1.298149 A    
O3    Zn2   1.990861 S    
O8    C4    1.298469 A    
C37   H27   1.109816 S    
C38   H29   1.110324 S    
C8    C10   1.413103 A    
C29   H13   1.110115 S    
C10   C12   1.402469 A    
O4    C2    1.283600 A    
O1    Zn1   1.985332 S    
C20   H10   1.110392 S    
C21   C26   1.543192 S    
C36   C37   1.533819 S    
C5    H1    1.081699 S    
O6    Zn2   2.000954 S    
C19   C25   1.543132 S    
C12   C14   1.383683 A    
C37   H26   1.109678 S    
O3    C1    1.283418 A    
O8    Zn1   1.979006 S    
C5    C15   1.400186 A    
C28   N5    1.488253 S    
C6    C16   1.398951 A    
N1    C18   1.354106 A    
C9    C11   1.399387 A    
C14   H6    1.081974 S    
C27   C31   1.525538 S    
N8    O13   1.301445 A    
C28   C32   1.526559 S    
C20   C26   1.543172 S    
C29   N5    1.488289 S    
N4    C18   1.354369 A    
N1    N3    1.326686 A    
C30   H14   1.110414 S    
C30   N6    1.486817 S    
C11   H3    1.083741 S    
C34   H19   1.110117 S    
O2    Zn2   1.985332 S    
C22   C25   1.543174 S    
O5    Zn1   2.000954 S    
C38   H30   1.110867 S    
Zn1   N5    2.029154 S    
C19   C21   1.543983 S    
C6    H2    1.082279 S    
O9    C33   1.415645 S    
N7    O12   1.300441 A    
C19   C24   1.526637 S    
C7    C9    1.411491 A    
