data_mof_unit_30282.cif
_audit_creation_date              2012-10-26T20:08:13-0400
_audit_creation_method            fapswitch 2.2
_symmetry_space_group_name_H-M    P1
_symmetry_Int_Tables_number       1
_space_group_crystal_system       triclinic
_cell_length_a                    10.888755
_cell_length_b                    10.799951
_cell_length_c                    9.561802
_cell_angle_alpha                 90.455599
_cell_angle_beta                  90.753838
_cell_angle_gamma                 92.092034
_cell_volume                      1123.56225695

loop_
_atom_site_label
_atom_site_type_symbol
_atom_type_description
_atom_site_fract_x
_atom_site_fract_y
_atom_site_fract_z
_atom_type_partial_charge
C1    C     C_R   0.501166 0.262298 0.499631 0.578845
C2    C     C_R   0.466412 0.063710 0.620134 -0.106834
C3    C     C_R   0.501674 0.871729 0.500875 0.035427
C4    C     C_R   0.501305 0.128403 0.499648 0.035686
C5    C     C_R   0.444039 0.404246 0.069880 0.098808
C6    C     C_R   0.555789 0.595842 0.930123 0.105993
C7    C     C_R   0.446688 0.404225 0.922152 -0.030048
C8    C     C_R   0.552824 0.596008 0.077816 0.000207
C9    C     C_R   0.262315 0.496452 0.498842 0.600486
C10   C     C_R   0.737743 0.503632 0.501177 0.602426
C11   C     C_R   0.267868 0.816103 0.221573 -0.071371
C12   C     C_R   0.499889 0.737754 0.500441 0.580275
C13   C     C_R   0.730870 0.200530 0.799161 -0.076921
C14   C     C_R   0.206489 0.750681 0.326977 -0.039481
C15   C     C_R   0.793596 0.257622 0.688864 -0.013158
C16   C     C_R   0.135932 0.642730 0.293586 0.107564
C17   C     C_R   0.866577 0.365740 0.713661 0.103872
C18   C     C_R   0.130958 0.599156 0.154640 0.009541
C19   C     C_R   0.873965 0.416976 0.849223 -0.003951
C20   C     C_R   0.194912 0.663477 0.050381 -0.080205
C21   C     C_R   0.809457 0.360632 0.958541 -0.071101
C22   C     C_R   0.263081 0.772005 0.083767 -0.087177
C23   C     C_R   0.872163 0.507208 0.504430 -0.036154
C24   C     C_R   0.738101 0.252372 0.933565 -0.096167
C25   C     C_R   0.939182 0.584739 0.411434 0.193159
C26   C     C_R   0.060738 0.415504 0.587344 0.172609
C27   C     C_2   0.377093 0.298166 0.132658 0.294018
C28   C     C_2   0.622764 0.701968 0.867439 0.294554
C29   C     C_R   0.128041 0.493775 0.495596 -0.043152
C30   C     C_R   0.933597 0.428661 0.598003 -0.085093
C31   C     C_R   0.067010 0.574040 0.403501 -0.089979
C32   C     C_R   0.536871 0.064472 0.379936 -0.141403
C33   C     C_R   0.466758 0.935721 0.620817 -0.138438
C34   C     C_R   0.537515 0.936446 0.380738 -0.110533
Cu1   Cu    Cu3+1 0.500000 0.500020 0.640660 1.024141
Cu2   Cu    Cu3+1 0.500000 0.499980 0.359340 1.047894
H1    H     H_    0.311611 0.822330 0.002709 0.098172
H2    H     H_    0.929004 0.500903 0.869749 0.131066
H3    H     H_    0.190843 0.630021 0.943455 0.095606
H4    H     H_    0.814904 0.400735 0.062638 0.149126
H5    H     H_    0.564989 0.113229 0.286405 0.114928
H6    H     H_    0.438307 0.887025 0.714259 0.114099
H7    H     H_    0.565261 0.888253 0.287187 0.152657
H8    H     H_    0.438389 0.111841 0.713614 0.151000
H9    H     H_    0.967429 0.867081 0.381441 0.352973
H10   H     H_    0.182503 0.424766 0.842599 0.317380
H11   H     H_    0.397772 0.204777 0.100082 0.058155
H12   H     H_    0.688492 0.208592 0.018378 0.098910
H13   H     H_    0.602456 0.795315 0.900531 0.053942
H14   H     H_    0.403768 0.328049 0.863252 0.165599
H15   H     H_    0.594962 0.672597 0.136649 0.168429
H16   H     H_    0.318244 0.901638 0.246299 0.119594
H17   H     H_    0.676792 0.115948 0.780685 0.112529
H18   H     H_    0.211282 0.785403 0.433568 0.095973
H19   H     H_    0.786450 0.217369 0.584835 0.110083
H20   H     H_    0.077649 0.515569 0.127416 0.136719
N1    N     N_R   0.500030 0.500030 0.852070 -0.249587
N2    N     N_R   0.499970 0.499970 0.147930 -0.246601
O1    O     O_R   0.499990 0.319660 0.618740 -0.508954
O2    O     O_2   0.753268 0.744445 0.383983 -0.293419
O3    O     O_3   0.958237 0.827754 0.287739 -0.488510
O4    O     O_2   0.045969 0.179197 0.679876 -0.242284
O5    O     O_2   0.248110 0.255906 0.613468 -0.269403
O6    O     O_3   0.158482 0.335680 0.846913 -0.519449
O7    O     O_2   0.291944 0.313161 0.211655 -0.442227
O8    O     O_2   0.707573 0.687044 0.787953 -0.447574
O9    O     O_R   0.500010 0.680340 0.381260 -0.508593
O10   O     O_R   0.499990 0.319630 0.381170 -0.500506
O11   O     O_R   0.500010 0.680370 0.618830 -0.500067
O12   O     O_R   0.319650 0.500020 0.618780 -0.499856
O13   O     O_R   0.680350 0.499980 0.381220 -0.462684
O14   O     O_R   0.319640 0.500000 0.381210 -0.455692
O15   O     O_R   0.680360 0.500000 0.618790 -0.461196
O16   O     O_2   0.830063 0.648480 0.171107 -0.295935
S1    S     S_3+6 0.865850 0.701870 0.311920 0.007376
S2    S     S_3+6 0.130750 0.292081 0.679989 0.023884

loop_
_geom_bond_atom_site_label_1
_geom_bond_atom_site_label_2
_ccdc_geom_bond_type
C25   C31   A    
C12   O11   A    
C28   O8    D    
Cu1   Cu2   S    
C9    O14   A    
Cu2   O9    S    
O3    S1    S    
C16   C31   S    
C5    N2    A    
C33   H6    S    
C19   C21   A    
Cu2   N2    S    
C1    O1    A    
C10   O15   A    
O5    S2    D    
C3    C33   A    
C1    O10   A    
Cu1   O1    S    
C3    C12   S    
C8    N2    A    
C5    C27   S    
C6    C28   S    
Cu1   O12   S    
C2    H8    S    
C26   S2    S    
C32   H5    S    
C11   H16   S    
Cu2   O13   S    
C9    C29   S    
C10   O13   A    
C17   C30   S    
C6    N1    A    
O4    S2    D    
C13   H17   S    
C12   O9    A    
O16   S1    D    
C24   H12   S    
C23   C30   A    
C9    O12   A    
C11   C14   A    
C5    C7    A    
C20   H3    S    
C6    C8    A    
C3    C34   A    
C22   H1    S    
C13   C24   A    
H10   O6    S    
C25   S1    S    
C32   C34   A    
C2    C4    A    
C27   O7    D    
C19   H2    S    
C28   H13   S    
O6    S2    S    
C8    H15   S    
C4    C32   A    
C2    C33   A    
C14   H18   S    
C20   C22   A    
C26   C30   A    
C13   C15   A    
C14   C16   A    
C27   H11   S    
C15   C17   A    
Cu1   O15   S    
C11   C22   A    
C34   H7    S    
C7    H14   S    
Cu2   O10   S    
C18   H20   S    
C10   C23   S    
O2    S1    D    
Cu1   N1    S    
C1    C4    S    
C29   C31   A    
C21   H4    S    
H9    O3    S    
C17   C19   A    
C18   C20   A    
C23   C25   A    
Cu1   O11   S    
C26   C29   A    
C16   C18   A    
C21   C24   A    
C7    N1    A    
Cu2   O14   S    
C15   H19   S    
