data_mof_unit_24216.cif
_audit_creation_date              2012-12-11T20:46:30-0500
_audit_creation_method            fapswitch 2.2
_symmetry_space_group_name_H-M    P1
_symmetry_Int_Tables_number       1
_space_group_crystal_system       triclinic
_cell_length_a                    8.40651
_cell_length_b                    18.814739
_cell_length_c                    19.120435
_cell_angle_alpha                 101.834319
_cell_angle_beta                  94.02871
_cell_angle_gamma                 91.637008
_cell_volume                      2949.75203248

loop_
_atom_site_label
_atom_site_type_symbol
_atom_type_description
_atom_site_fract_x
_atom_site_fract_y
_atom_site_fract_z
_atom_type_partial_charge
Ba1   Ba    Ba6+2 0.153490 0.533960 0.468530 1.700073
Ba2   Ba    Ba6+2 0.656680 0.466030 0.531410 1.686558
C1    C     C_3   0.356977 0.712482 0.217223 -0.366227
C2    C     C_3   0.387498 0.692239 0.289790 0.312798
C3    C     C_3   0.525614 0.694341 0.649888 0.344365
C4    C     C_3   0.567609 0.775280 0.678948 -0.250454
C5    C     C_3   0.974902 0.280966 0.704616 0.241334
C6    C     C_3   0.007963 0.226353 0.753988 -0.157481
C7    C     C_3   0.500373 0.279319 0.713366 0.368283
C8    C     C_3   0.544890 0.206095 0.734835 -0.195283
C9    C     C_R   0.998798 0.952453 0.531924 0.002323
C10   C     C_R   0.086641 0.905751 0.567931 -0.093383
C11   C     C_R   0.220100 0.046286 0.549239 -0.124714
C12   C     C_3   0.868876 0.717088 0.324779 0.386495
C13   C     C_R   0.060761 0.022407 0.525826 0.022481
C14   C     C_R   0.279048 0.114966 0.545350 -0.063017
C15   C     C_R   0.182665 0.163917 0.517968 -0.015209
C16   C     C_R   0.024445 0.140733 0.490190 0.038415
C17   C     C_R   0.962965 0.069456 0.493562 0.081745
C18   C     C_R   0.239140 0.235945 0.518998 0.039798
C19   C     C_R   0.137672 0.283676 0.493904 -0.272044
C20   C     C_R   0.981172 0.263792 0.467253 0.022800
C21   C     C_R   0.925937 0.189958 0.461772 -0.052421
C22   C     C_R   0.841319 0.928977 0.503809 0.030135
C23   C     C_3   0.823117 0.788032 0.302425 -0.216521
C24   C     C_R   0.783076 0.856627 0.504750 0.007582
C25   C     C_R   0.881836 0.808091 0.533969 -0.042352
C26   C     C_R   0.028177 0.836108 0.569822 -0.017805
C27   C     C_R   0.777178 0.163394 0.427871 0.001503
C28   C     C_R   0.718547 0.092537 0.426849 -0.052611
C29   C     C_R   0.804091 0.046280 0.465619 -0.023189
C30   C     C_R   0.740373 0.977404 0.475665 0.006118
C31   C     C_R   0.576345 0.956375 0.463082 -0.123524
C32   C     C_R   0.624909 0.833412 0.477414 -0.027252
C33   C     C_R   0.521232 0.885393 0.460617 -0.094198
C34   C     C_3   0.796586 0.350723 0.295978 0.204519
C35   C     C_R   0.574802 0.759427 0.468702 -0.031849
C36   C     C_R   0.682017 0.710151 0.489856 -0.314179
C37   C     C_R   0.830532 0.733647 0.526608 -0.003686
C38   C     C_2   0.587241 0.522640 0.294896 -0.238715
C39   C     C_3   0.721986 0.518216 0.246269 0.008728
C40   C     C_2   0.656316 0.529734 0.173611 -0.110885
C41   C     C_2   0.503892 0.506228 0.149839 -0.096309
C42   C     C_2   0.402618 0.475812 0.200193 -0.076887
C43   C     C_1   0.455970 0.482838 0.269523 0.100993
C44   C     C_R   0.327757 0.514263 0.939118 0.442809
C45   C     C_3   0.915099 0.353534 0.238125 -0.192585
C46   C     C_R   0.440551 0.509245 0.075521 0.432398
C47   C     C_R   0.377736 0.543990 0.816591 -0.019129
C48   C     C_R   0.334773 0.529753 0.741438 -0.009576
C49   C     C_R   0.089100 0.465371 0.757956 0.010312
C50   C     C_R   0.132623 0.476038 0.831665 -0.142580
C51   C     C_R   0.277754 0.513710 0.862007 -0.055499
C52   C     C_R   0.193371 0.489516 0.713810 -0.293019
C53   C     C_3   0.993901 0.632814 0.694005 0.290254
C54   C     C_3   0.959507 0.652631 0.772863 -0.241586
C55   C     C_3   0.282976 0.310363 0.356721 0.188262
C56   C     C_3   0.221525 0.231978 0.322449 -0.279709
H1    H     H_    0.330886 0.637414 0.286422 0.071136
H2    H     H_    0.898633 0.402635 0.215364 0.018025
H3    H     H_    0.036728 0.357051 0.264074 0.168773
H4    H     H_    0.121365 0.621097 0.689674 -0.055801
H5    H     H_    0.916979 0.584053 0.669080 0.037605
H6    H     H_    0.976359 0.604931 0.797892 -0.017744
H7    H     H_    0.833009 0.667791 0.776756 0.108231
H8    H     H_    0.182294 0.340191 0.380914 0.027848
H9    H     H_    0.381824 0.309131 0.398147 0.034824
H10   H     H_    0.227641 0.706056 0.200056 0.133058
H11   H     H_    0.092901 0.231954 0.305703 0.113115
H12   H     H_    0.233149 0.197468 0.362990 0.110120
H13   H     H_    0.518290 0.690953 0.300887 -0.042151
H14   H     H_    0.422188 0.676020 0.176792 0.098372
H15   H     H_    0.636966 0.668530 0.632429 0.027416
H16   H     H_    0.432859 0.688785 0.604532 0.089861
H17   H     H_    0.661569 0.781389 0.723901 0.099669
H18   H     H_    0.617158 0.798655 0.635876 -0.013260
H19   H     H_    0.399271 0.769556 0.220106 0.125079
H20   H     H_    0.731721 0.774800 0.256215 0.109348
H21   H     H_    0.091513 0.306117 0.696252 0.016445
H22   H     H_    0.894594 0.208264 0.771775 0.123236
H23   H     H_    0.079424 0.256020 0.802902 0.102688
H24   H     H_    0.605446 0.304427 0.694714 0.107005
H25   H     H_    0.447542 0.164469 0.714908 0.121330
H26   H     H_    0.976728 0.726766 0.363096 0.082759
H27   H     H_    0.647104 0.184879 0.705251 0.149246
H28   H     H_    0.182909 0.337844 0.494442 0.113351
H29   H     H_    0.402075 0.128999 0.564613 0.117761
H30   H     H_    0.101755 0.804250 0.598818 0.152928
H31   H     H_    0.707614 0.196263 0.398123 0.114464
H32   H     H_    0.395482 0.872399 0.446539 0.101980
H33   H     H_    0.304700 0.012643 0.570299 0.070518
H34   H     H_    0.201397 0.921576 0.596423 0.065318
H35   H     H_    0.768195 0.698970 0.352258 -0.110117
H36   H     H_    0.485947 0.994424 0.456932 0.089923
H37   H     H_    0.735048 0.550040 0.138762 0.095995
H38   H     H_    0.054167 0.454025 0.865291 0.095296
H39   H     H_    0.570107 0.575167 0.327778 -0.013753
H40   H     H_    0.766473 0.823651 0.346614 0.075201
H41   H     H_    0.782908 0.406291 0.328070 -0.013162
N1    N     N_R   0.410751 0.571932 0.982100 -0.250579
N2    N     N_R   0.466737 0.569489 0.048560 -0.248224
N3    N     N_R   0.354818 0.451963 0.033261 -0.233740
N4    N     N_R   0.299796 0.454347 0.966607 -0.246692
O1    O     O_2   0.117290 0.676350 0.548250 -0.448627
O2    O     O_3   0.337902 0.344585 0.304536 -0.606567
O3    O     O_3   0.897296 0.664495 0.263643 -0.604214
O4    O     O_2   0.693010 0.323600 0.451730 -0.496538
O5    O     O_3   0.941240 0.413050 0.457220 -0.472839
O6    O     O_3   0.453310 0.371360 0.582690 -0.417574
O7    O     O_3   0.855027 0.302983 0.337803 -0.682722
O8    O     O_3   0.371310 0.539060 0.587050 -0.434502
O9    O     O_3   0.867330 0.408540 0.621000 -0.472207
O10   O     O_2   0.756664 0.459730 0.749024 -0.497826
O11   O     O_3   0.874132 0.332930 0.739869 -0.658310
O12   O     O_3   0.869060 0.586940 0.542720 -0.502392
O13   O     O_3   0.438990 0.460930 0.412890 -0.466016
O14   O     O_2   0.623700 0.539890 0.674570 -0.462683
O15   O     O_3   0.467751 0.663469 0.704081 -0.647837
O16   O     O_2   0.575460 0.237982 0.554368 -0.495144
O17   O     O_3   0.376374 0.262196 0.658531 -0.657395
O18   O     O_3   0.356990 0.628630 0.417250 -0.456398
O19   O     O_2   0.241093 0.755161 0.473346 -0.498068
O20   O     O_3   0.961352 0.691925 0.662250 -0.612859
O21   O     O_3   0.322289 0.743812 0.342772 -0.606972
O22   O     O_2   0.186600 0.460070 0.325400 -0.487240
O23   O     O_3   0.942970 0.591450 0.378940 -0.496548
O24   O     O_2   0.054741 0.548008 0.252798 -0.507850
P1    P     P_3+3 0.945300 0.665790 0.568510 0.990225
P2    P     P_3+3 0.360080 0.438780 0.334620 1.032504
P3    P     P_3+3 0.902091 0.578642 0.286050 0.941901
P4    P     P_3+3 0.865000 0.334200 0.431430 0.974192
P5    P     P_3+3 0.897692 0.417630 0.715922 0.923862
P6    P     P_3+3 0.374103 0.722993 0.426434 0.943133
P7    P     P_3+3 0.449161 0.568555 0.677160 0.967715
P8    P     P_3+3 0.420744 0.277446 0.574129 0.988427
C57   C     C_2   0.903171 0.287989 0.176954 0.541969
H42   H     H_    0.802599 0.280317 0.137003 0.044880
O25   O     O_2   0.007304 0.243831 0.170742 -0.569961
C58   C     C_2   0.069067 0.713957 0.812965 0.609245
H43   H     H_    0.196930 0.707712 0.815759 0.000809
O26   O     O_2   0.015409 0.771006 0.842512 -0.557046
C59   C     C_2   0.303791 0.198387 0.256954 0.608096
H44   H     H_    0.307473 0.225747 0.212339 0.124924
O27   O     O_2   0.363839 0.139550 0.252282 -0.546762
C60   C     C_2   0.427682 0.818800 0.704700 0.506615
H45   H     H_    0.444133 0.877321 0.722148 -0.013012
O28   O     O_2   0.296581 0.789957 0.706714 -0.565580
C61   C     C_2   0.892743 0.246338 0.632802 0.477928
H46   H     H_    0.875943 0.278777 0.592939 0.049826
O29   O     O_2   0.839617 0.183656 0.618700 -0.626004
C62   C     C_3   0.093763 0.157959 0.720489 -0.254561
C63   C     C_3   0.158220 0.117970 0.777523 -0.436159
H47   H     H_    0.240322 0.154279 0.818177 0.147147
H48   H     H_    0.058156 0.098427 0.804663 0.152483
H49   H     H_    0.223930 0.070362 0.751934 0.133528
H50   H     H_    0.010915 0.118896 0.682796 0.183186
H51   H     H_    0.191128 0.172851 0.689978 0.155191
C64   C     C_3   0.434150 0.336221 0.773464 -0.183608
C65   C     C_3   0.554360 0.371005 0.836155 -0.424253
H52   H     H_    0.678691 0.359710 0.824777 0.181707
H53   H     H_    0.546126 0.430627 0.848204 0.141414
H54   H     H_    0.528416 0.351598 0.885373 0.138031
H55   H     H_    0.387908 0.380470 0.748386 0.123056
H56   H     H_    0.330360 0.312093 0.794493 0.101049
C66   C     C_3   0.583333 0.206057 0.814739 -0.264296
C67   C     C_3   0.621790 0.129991 0.825643 -0.410697
H57   H     H_    0.725928 0.109783 0.795965 0.137683
H58   H     H_    0.650823 0.131710 0.883536 0.151512
H59   H     H_    0.517749 0.091507 0.806637 0.138043
H60   H     H_    0.479607 0.223984 0.845569 0.139333
H61   H     H_    0.687714 0.242943 0.836981 0.138768
C68   C     C_2   0.641302 0.632176 0.472779 0.539425
H62   H     H_    0.697092 0.597005 0.431090 -0.004016
O30   O     O_2   0.555730 0.605161 0.509834 -0.539013
C69   C     C_2   0.576253 0.067199 0.377426 0.493623
H63   H     H_    0.571511 0.013821 0.342318 0.005903
O31   O     O_2   0.460534 0.104856 0.377765 -0.564511
C70   C     C_2   0.254263 0.433198 0.169790 0.595373
H64   H     H_    0.160525 0.458195 0.142611 -0.016975
O32   O     O_2   0.241075 0.368581 0.170050 -0.529904
C71   C     C_3   0.533513 0.586187 0.846806 -0.189432
C72   C     C_3   0.507346 0.666116 0.878589 -0.385509
H65   H     H_    0.484296 0.696743 0.835607 0.163378
H66   H     H_    0.404668 0.672382 0.912384 0.150162
H67   H     H_    0.616369 0.690908 0.911784 0.144880
H68   H     H_    0.596288 0.560376 0.887385 0.122380
H69   H     H_    0.620483 0.584252 0.805923 0.136122
C73   C     C_2   0.154190 0.468955 0.636965 0.539650
H70   H     H_    0.102887 0.506783 0.607016 0.009996
O33   O     O_2   0.169931 0.406633 0.607214 -0.621668
C74   C     C_3   0.966132 0.829217 0.280905 -0.194916
C75   C     C_3   0.061520 0.876607 0.345634 -0.383533
H71   H     H_    0.989083 0.922166 0.370183 0.120232
H72   H     H_    0.096756 0.844661 0.386490 0.159954
H73   H     H_    0.171251 0.899791 0.328163 0.145371
H74   H     H_    0.045706 0.790537 0.250226 0.159838
H75   H     H_    0.921387 0.865174 0.245124 0.124398
C76   C     C_2   0.638809 0.318830 0.260884 0.434706
H76   H     H_    0.582374 0.274775 0.279976 0.041567
O34   O     O_2   0.576008 0.339721 0.209680 -0.604500

loop_
_geom_bond_atom_site_label_1
_geom_bond_atom_site_label_2
_ccdc_geom_bond_type
C66   H61   S    
C55   O2    S    
C53   C54   S    
C8    H27   S    
C43   P2    S    
C66   C67   S    
O10   P5    D    
C20   P4    S    
O6    P8    S    
C32   C35   A    
C39   C40   S    
Ba2   O4    S    
C1    H10   S    
Ba1   P1    S    
C12   H26   S    
C55   H8    S    
C17   C29   A    
C31   H36   S    
C27   H31   S    
C60   H45   S    
C71   H69   S    
C5    C6    S    
C69   O31   D    
C71   C72   S    
C42   C43   D    
C13   C17   A    
Ba2   O9    S    
C24   C25   A    
C48   C52   A    
O21   P6    S    
C10   C26   A    
C62   H51   S    
C5    O11   S    
C35   C36   A    
Ba1   O22   S    
C16   C17   A    
Ba1   P2    S    
C39   P3    S    
C45   C57   S    
O23   P3    S    
C54   H7    S    
C53   H4    S    
C9    C22   A    
C15   C18   A    
C2    O21   S    
C34   C45   S    
C73   O33   D    
C32   C33   A    
C3    H16   S    
C74   H74   S    
O5    P4    S    
C45   H2    S    
C72   H65   S    
Ba2   O13   S    
C24   C32   A    
O13   P2    S    
C69   H63   S    
C25   C37   A    
C14   C15   A    
C53   H5    S    
C26   H30   S    
C14   H29   S    
C62   C63   S    
C65   H53   S    
C76   H76   S    
Ba1   O13   S    
C7    C8    S    
C12   H35   S    
O15   P7    S    
C64   H56   S    
C7    H24   S    
C18   P8    S    
C52   C73   S    
C19   C20   A    
C11   H33   S    
C67   H58   S    
C9    C13   A    
C55   H9    S    
O14   P7    D    
C60   O28   D    
Ba2   O14   S    
C68   O30   D    
C70   H64   S    
C72   H66   S    
C38   C43   D    
C53   O20   S    
Ba2   O8    S    
Ba2   P4    S    
C40   H37   S    
C75   H73   S    
C4    H17   S    
C6    C62   S    
C36   C37   A    
Ba1   O23   S    
C57   O25   D    
C23   C74   S    
C42   C70   S    
C38   H39   S    
C54   C58   S    
C56   H12   S    
O2    P2    S    
C23   H20   S    
O16   P8    D    
O12   P1    S    
C16   C21   A    
C73   H70   S    
C72   H67   S    
C75   H72   S    
C64   C65   S    
C41   C42   S    
C22   C30   A    
O19   P6    D    
C27   C28   A    
C2    H1    S    
Ba2   O12   S    
C56   C59   S    
C65   H52   S    
O1    P1    D    
C63   H49   S    
C28   C29   A    
C49   P5    S    
C46   N3    A    
C71   H68   S    
C54   H6    S    
C15   C16   A    
C65   H54   S    
O7    P4    S    
C56   H11   S    
C62   H50   S    
O9    P5    S    
C4    H18   S    
Ba1   O1    S    
Ba2   O6    S    
C64   H55   S    
C47   C71   S    
C61   O29   D    
O4    P4    D    
C38   C39   S    
C63   H48   S    
C11   C13   A    
C48   P7    S    
C67   H57   S    
C35   P6    S    
C8    H25   S    
C40   C41   D    
C1    C2    S    
C1    H19   S    
C21   C27   A    
C28   C69   S    
C68   H62   S    
C5    H21   S    
C5    C61   S    
C41   C46   S    
C66   H60   S    
O3    P3    S    
C44   N1    A    
C19   H28   S    
C37   P1    S    
C20   C21   A    
O11   P5    S    
C10   H34   S    
C29   C30   A    
C74   H75   S    
C34   C76   S    
C57   H42   S    
C45   H3    S    
C70   O32   D    
C58   H43   S    
O8    P7    S    
C36   C68   S    
C6    H23   S    
C44   N4    A    
C3    O15   S    
C49   C52   A    
C30   C31   A    
O17   P8    S    
C1    H14   S    
O24   P3    D    
C49   C50   A    
C75   H71   S    
C34   O7    S    
C58   O26   D    
C22   C24   A    
C55   C56   S    
C3    C4    S    
C7    C64   S    
C8    C66   S    
C47   C51   A    
C46   N2    A    
Ba1   Ba2   S    
C44   C51   S    
Ba2   O5    S    
N1    N2    A    
C31   C33   A    
C50   H38   S    
C34   H41   S    
C59   O27   D    
C61   H46   S    
C12   C23   S    
C3    H15   S    
N3    N4    A    
C74   C75   S    
Ba1   O18   S    
Ba1   O5    S    
C33   H32   S    
O22   P2    D    
C23   H40   S    
C12   O3    S    
C18   C19   A    
C67   H59   S    
C47   C48   A    
C4    C60   S    
C11   C14   A    
O20   P1    S    
C25   C26   A    
C6    H22   S    
C7    O17   S    
C59   H44   S    
C76   O34   D    
C63   H47   S    
Ba1   O12   S    
O18   P6    S    
C2    H13   S    
Ba1   O8    S    
C9    C10   A    
C50   C51   A    
