data_mof_unit_32103.cif
_audit_creation_date              2013-03-05T15:47:01-0500
_audit_creation_method            fapswitch 2.2
_symmetry_space_group_name_H-M    P1
_symmetry_Int_Tables_number       1
_space_group_crystal_system       triclinic
_cell_length_a                    8.244362
_cell_length_b                    17.367003
_cell_length_c                    18.996871
_cell_angle_alpha                 98.194445
_cell_angle_beta                  94.656428
_cell_angle_gamma                 97.243926
_cell_volume                      2657.05835821

loop_
_atom_site_label
_atom_site_type_symbol
_atom_site_description
_atom_site_fract_x
_atom_site_fract_y
_atom_site_fract_z
_atom_type_partial_charge
P1    P     P_3+3 0.992230 0.679190 0.566750 0.454324
O1    O     O_2   0.166667 0.691630 0.546720 -0.365592
O2    O     O_3   0.893830 0.593690 0.541700 -0.423789
O3    O     O_3   0.390350 0.644650 0.417800 -0.392397
O4    O     O_2   0.369348 0.783370 0.495640 -0.353591
O5    O     O_3   0.008645 0.703886 0.660093 -0.612292
O6    O     O_3   0.345312 0.779837 0.356146 -0.441686
H1    H     H_    0.309818 0.678024 0.282106 0.139444
C1    C     C_3   0.351804 0.780986 0.230679 -0.838282
H2    H     H_    0.221941 0.791508 0.225714 0.306571
H3    H     H_    0.431870 0.838611 0.239536 0.249624
P2    P     P_3+3 0.339610 0.439630 0.337240 0.515017
P3    P     P_3+3 0.932135 0.601520 0.287376 0.502178
O7    O     O_2   0.171750 0.463380 0.328050 -0.388710
O8    O     O_3   0.965290 0.605410 0.380210 -0.352009
O9    O     O_2   0.052812 0.550341 0.252310 -0.365639
O10   O     O_3   0.307804 0.337132 0.313440 -0.515929
O11   O     O_3   0.996722 0.694856 0.266327 -0.549547
C2    C     C_3   0.881929 0.746739 0.283195 0.880376
H4    H     H_    0.787005 0.722417 0.315227 -0.273491
C3    C     C_3   0.792867 0.763418 0.213600 -0.086745
H5    H     H_    0.720238 0.812866 0.224814 0.120116
C4    C     C_3   0.809822 0.350562 0.299208 0.040254
H6    H     H_    0.692624 0.372186 0.284392 0.121139
H7    H     H_    0.898001 0.400777 0.327212 0.121395
C5    C     C_3   0.878055 0.313112 0.231205 0.361515
H8    H     H_    0.994935 0.292495 0.248206 0.099587
Ba1   Ba    Ba6+2 0.162080 0.538580 0.468810 1.595746
C6    C     C_3   0.084929 0.649689 0.693996 0.966983
H9    H     H_    0.177785 0.624613 0.662151 -0.005591
C7    C     C_3   0.171663 0.692625 0.765273 -0.839386
H10   H     H_    0.266141 0.740715 0.756191 0.226629
H11   H     H_    0.232014 0.651564 0.794777 0.206914
H12   H     H_    0.081563 0.718414 0.798679 0.252064
C8    C     C_3   0.255917 0.300982 0.370797 0.221071
H13   H     H_    0.126393 0.308465 0.376900 0.043143
H14   H     H_    0.332548 0.325445 0.421742 0.118047
C9    C     C_3   0.271186 0.213457 0.355769 -0.099549
H15   H     H_    0.240861 0.185984 0.403146 0.090010
H16   H     H_    0.400052 0.205594 0.346759 0.174444
P4    P     P_3+3 0.818060 0.320800 0.433200 0.500934
O12   O     O_2   0.643630 0.308330 0.453260 -0.349590
O13   O     O_3   0.916470 0.406310 0.458240 -0.410641
O14   O     O_3   0.419940 0.355340 0.582140 -0.363140
O15   O     O_3   0.777391 0.291081 0.340693 -0.527556
P5    P     P_3+3 0.871080 0.394358 0.712172 0.485067
O16   O     O_3   0.383960 0.539280 0.585630 -0.409307
O17   O     O_3   0.845010 0.394580 0.619730 -0.404697
O18   O     O_2   0.741216 0.440572 0.746368 -0.336004
O19   O     O_3   0.815501 0.298582 0.728930 -0.510490
Ba2   Ba    Ba6+2 0.648090 0.461410 0.531130 1.582990
P6    P     P_3+3 0.442702 0.746143 0.428626 0.500758
C10   C     C_3   0.385239 0.736894 0.292815 0.458033
H17   H     H_    0.516657 0.728900 0.295440 -0.041924
H18   H     H_    0.377788 0.746150 0.180154 0.202513
O20   O     O_3   0.426330 0.460710 0.414310 -0.394717
C11   C     C_3   0.561081 0.698783 0.640445 0.426345
H19   H     H_    0.675144 0.675871 0.625483 0.110996
H20   H     H_    0.466706 0.685634 0.593703 0.130140
C12   C     C_3   0.598599 0.787508 0.660918 -0.959903
H21   H     H_    0.697484 0.802871 0.705911 0.272558
H22   H     H_    0.639579 0.814299 0.614586 0.219225
H23   H     H_    0.486533 0.811743 0.677190 0.263296
P7    P     P_3+3 0.465181 0.563916 0.675140 0.451927
O21   O     O_2   0.638540 0.536570 0.671920 -0.308941
O22   O     O_3   0.503681 0.666147 0.698820 -0.575815
H24   H     H_    0.703325 0.711432 0.189887 0.098617
C13   C     C_3   0.857458 0.245942 0.672332 0.521647
H25   H     H_    0.774730 0.245694 0.623130 0.149060
H26   H     H_    0.986849 0.261666 0.661643 -0.039518
C14   C     C_3   0.837438 0.163576 0.691793 -0.959428
H27   H     H_    0.708172 0.145808 0.701774 0.288812
H28   H     H_    0.869559 0.121283 0.647341 0.215834
H29   H     H_    0.919861 0.161946 0.740635 0.258146
P8    P     P_3+3 0.382569 0.253842 0.577930 0.449364
C15   C     C_3   0.327536 0.255010 0.709040 0.362840
H30   H     H_    0.218536 0.208875 0.699924 0.055261
O23   O     O_2   0.502600 0.217886 0.528496 -0.401546
O24   O     O_3   0.443994 0.233223 0.662711 -0.488991
H31   H     H_    0.289528 0.312938 0.701956 0.070077
H32   H     H_    0.308598 0.276520 0.822853 0.202916
C16   C     C_3   0.401702 0.261687 0.785944 -0.813857
H33   H     H_    0.509013 0.308771 0.796950 0.281805
H34   H     H_    0.442008 0.205098 0.795574 0.260859
C17   C     C_2   0.754687 0.721939 0.480029 -0.395977
C18   C     C_3   0.669094 0.773040 0.435798 0.155911
C19   C     C_2   0.720270 0.859636 0.459431 -0.177679
C20   C     C_2   0.856580 0.886711 0.505066 0.153055
C21   C     C_2   0.944753 0.827578 0.538047 -0.202019
C22   C     C_1   0.888314 0.750958 0.523629 0.328435
C23   C     C_R   0.103406 0.139761 0.533152 -0.267794
C24   C     C_R   0.168068 0.219296 0.541844 0.190492
C25   C     C_R   0.920740 0.248789 0.478453 0.304277
C26   C     C_R   0.856342 0.168505 0.468778 -0.198951
C27   C     C_R   0.945231 0.113406 0.497522 0.099561
C28   C     C_2   0.923319 0.972808 0.521725 -0.154603
C29   C     C_2   0.875137 0.028316 0.483835 -0.078386
C30   C     C_R   0.074399 0.273569 0.516951 -0.521350
H35   H     H_    0.780228 0.011932 0.439564 0.147446
H36   H     H_    0.055987 0.847934 0.573968 0.142282
H37   H     H_    0.179785 0.098912 0.551490 0.150791
H38   H     H_    0.018215 0.990038 0.566130 0.122267
H39   H     H_    0.648429 0.898479 0.434868 0.138489
H40   H     H_    0.738271 0.148850 0.437985 0.163642
H41   H     H_    0.715839 0.659071 0.467518 0.160157
H42   H     H_    0.126114 0.334846 0.523313 0.173938
C31   C     C_R   0.617423 0.530197 0.301243 -0.487143
C32   C     C_R   0.459832 0.491983 0.276840 0.316494
C33   C     C_R   0.401537 0.486806 0.204754 -0.177299
C34   C     C_R   0.503615 0.515666 0.155770 0.065347
C35   C     C_R   0.663161 0.553454 0.181188 -0.193605
C36   C     C_R   0.719850 0.560003 0.253641 0.220235
C37   C     C_R   0.466404 0.570307 0.042251 -0.189837
C38   C     C_R   0.414021 0.564016 0.969598 -0.124465
C39   C     C_R   0.337888 0.492048 0.930743 0.104170
C40   C     C_R   0.315708 0.426376 0.965897 -0.259407
C41   C     C_R   0.371615 0.430915 0.038641 0.371080
C42   C     C_R   0.446439 0.504662 0.077992 0.000789
C43   C     C_R   0.129159 0.444851 0.824191 -0.250542
C44   C     C_R   0.080754 0.437836 0.750846 0.268925
C45   C     C_R   0.342709 0.510365 0.734108 0.285268
C46   C     C_R   0.391258 0.517999 0.807366 -0.257420
C47   C     C_R   0.285670 0.484515 0.853038 0.051396
C48   C     C_R   0.190549 0.467882 0.705939 -0.458724
H43   H     H_    0.510000 0.550576 0.828664 0.159398
H44   H     H_    0.431222 0.615834 0.943878 0.137192
H45   H     H_    0.521950 0.627153 0.070971 0.145889
H46   H     H_    0.278964 0.458072 0.186391 0.199954
H47   H     H_    0.260718 0.370313 0.935507 0.168497
H48   H     H_    0.043972 0.421209 0.858788 0.161069
H49   H     H_    0.745493 0.574668 0.144362 0.168354
H50   H     H_    0.153197 0.462505 0.649305 0.150357
H51   H     H_    0.663522 0.533194 0.356687 0.171028
N1    N     N_R   0.764672 0.244711 0.193784 0.278809
O25   O     O_R   0.706326 0.241962 0.127581 -0.235738
O26   O     O_R   0.738676 0.181747 0.223370 -0.281071
N2    N     N_R   0.913653 0.369949 0.182924 0.228356
O27   O     O_R   0.800706 0.410194 0.162838 -0.371852
O28   O     O_R   0.036134 0.363355 0.144639 -0.340128
O29   O     O_3   0.965710 0.590536 0.707559 -0.732303
H52   H     H_    0.941461 0.552525 0.662711 0.330293
N3    N     N_R   0.161061 0.174165 0.293536 0.272502
O30   O     O_R   0.195652 0.184161 0.229553 -0.261229
O31   O     O_R   0.036610 0.123149 0.301316 -0.319384
N4    N     N_R   0.969204 0.818821 0.326654 0.214587
O32   O     O_R   0.048000 0.814376 0.387659 -0.341013
O33   O     O_R   0.963162 0.887699 0.307828 -0.408935
N5    N     N_R   0.357659 0.359605 0.069705 0.256055
O34   O     O_R   0.247196 0.300456 0.041936 -0.299184
O35   O     O_R   0.469096 0.348708 0.118326 -0.299992
O36   O     O_3   0.904081 0.778412 0.163434 -0.673685
H53   H     H_    0.944884 0.835531 0.173012 0.376608

loop_
_geom_bond_atom_site_label_1
_geom_bond_atom_site_label_2
_geom_bond_distance
_ccdc_geom_bond_type
C19   C20   1.352003 D    
C20   C28   1.505992 S    
Ba1   O16   2.756600 S    
P1    C22   1.845238 S    
C4    O15   1.398677 S    
C28   H38   1.083996 S    
P4    O13   1.588085 S    
P4    O12   1.514632 D    
C35   C36   1.401181 A    
C15   O24   1.404814 S    
C11   O22   1.404167 S    
C5    N2    1.459606 S    
C34   C42   1.491829 S    
C38   C39   1.401752 A    
Ba1   O20   2.890859 S    
C24   C30   1.399894 A    
C10   H17   1.107598 S    
C32   C33   1.400540 A    
N2    O28   1.298615 A    
P5    O18   1.547070 D    
C5    H8    1.109271 S    
C2    N4    1.465677 S    
P3    O11   1.752878 S    
P2    Ba1   3.368419 S    
C12   H23   1.110697 S    
O2    Ba1   2.894396 S    
C2    C3    1.541474 S    
N5    O35   1.299585 A    
O6    P6    1.746890 S    
Ba2   O20   2.756009 S    
P3    C36   1.833460 S    
C9    H15   1.108631 S    
C38   H44   1.083084 S    
Ba1   Ba2   4.504321 S    
C11   H20   1.109605 S    
P7    C45   1.839338 S    
C43   H48   1.083028 S    
C40   C41   1.408777 A    
C48   H50   1.082277 S    
C12   H22   1.109371 S    
P1    O1    1.514457 D    
Ba2   O21   2.815716 S    
C4    C5    1.542410 S    
C34   C35   1.408131 A    
C45   C48   1.396229 A    
N4    O33   1.302059 A    
O17   Ba2   2.721043 S    
P4    C25   1.864134 S    
C40   H47   1.082941 S    
C2    H4    1.108311 S    
C13   H25   1.110606 S    
P2    O10   1.753714 S    
P1    Ba1   3.372824 S    
C4    H6    1.109659 S    
C7    H11   1.108319 S    
O4    P6    1.547064 D    
C1    H18   1.110726 S    
C1    H2    1.107438 S    
O12   Ba2   2.846562 S    
C4    H7    1.103232 S    
C26   H40   1.083086 S    
C3    H5    1.113383 S    
C3    H24   1.106794 S    
C9    N3    1.458462 S    
C23   H37   1.081046 S    
C17   H41   1.084731 S    
C29   H35   1.081346 S    
N4    O32   1.298819 A    
C11   H19   1.108572 S    
O29   H52   0.990119 S    
C17   C22   1.321556 D    
P5    O17   1.752433 S    
C39   C47   1.486275 S    
C21   H36   1.086043 S    
P1    O5    1.753901 S    
C8    C9    1.529136 S    
C15   H30   1.110453 S    
C15   C16   1.520002 S    
C23   C24   1.397995 A    
P2    C32   1.838576 S    
O2    Ba2   2.837461 S    
C18   C19   1.502696 S    
O11   C2    1.411469 S    
C11   C12   1.520106 S    
O16   Ba2   2.890027 S    
C17   C18   1.505267 S    
H32   C16   1.110370 S    
C12   H21   1.110570 S    
P1    O2    1.587936 S    
C8    H13   1.105181 S    
P7    O22   1.749946 S    
O14   P8    1.739928 S    
C6    H9    1.107175 S    
C5    N1    1.470252 S    
C33   H46   1.076042 S    
C7    H10   1.110320 S    
O36   H53   0.992356 S    
C28   C29   1.361302 D    
C7    H12   1.111088 S    
P5    C44   1.845144 S    
C31   C36   1.394979 A    
N5    O34   1.301715 A    
C1    H3    1.110375 S    
C45   C46   1.399320 A    
P2    O20   1.549188 S    
P8    C24   1.837271 S    
C19   H39   1.081307 S    
O14   Ba2   2.793097 S    
C35   H49   1.083225 S    
O3    P6    1.739487 S    
C16   H34   1.110626 S    
C41   N5    1.441756 S    
N3    O31   1.300870 A    
C1    C10   1.521092 S    
O6    C10   1.407990 S    
C31   C32   1.392990 A    
O16   P7    1.748801 S    
C14   H28   1.109619 S    
C37   C38   1.397034 A    
C6    O29   1.396329 S    
C8    H14   1.110004 S    
C15   H31   1.113390 S    
P2    O7    1.497008 D    
H1    C10   1.110470 S    
C14   H29   1.110598 S    
N1    O26   1.301240 A    
C43   C44   1.401615 A    
C27   C29   1.495341 S    
N1    O25   1.301620 A    
C37   H45   1.083472 S    
C43   C47   1.411811 A    
N2    O27   1.297567 A    
P5    O19   1.749408 S    
Ba1   O13   2.836691 S    
C30   H42   1.081413 S    
P7    O21   1.564958 D    
C25   C26   1.408593 A    
P3    O8    1.752856 S    
C46   C47   1.409788 A    
C14   H27   1.110624 S    
C6    C7    1.523583 S    
C41   C42   1.425716 A    
C9    H16   1.111810 S    
O13   Ba2   2.895240 S    
O8    Ba1   2.720401 S    
P8    O24   1.748242 S    
C46   H43   1.083005 S    
C13   C14   1.520258 S    
P6    C18   1.855027 S    
C3    O36   1.403254 S    
C26   C27   1.418346 A    
P8    O23   1.546168 D    
C23   C27   1.409267 A    
C37   C42   1.406864 A    
C44   C48   1.397355 A    
O5    C6    1.397347 S    
C20   C21   1.507767 S    
C31   H51   1.082081 S    
C16   H33   1.110802 S    
O3    Ba1   2.793706 S    
P3    O9    1.544484 D    
C13   H26   1.109624 S    
P4    O15   1.751906 S    
N3    O30   1.301074 A    
O1    Ba1   2.846253 S    
O10   C8    1.402621 S    
O7    Ba1   2.815600 S    
C21   C22   1.334708 D    
C33   C34   1.406806 A    
O19   C13   1.404059 S    
C25   C30   1.395450 A    
P4    Ba2   3.373277 S    
C39   C40   1.401648 A    
