data_mof_unit_52517.cif
_audit_creation_date              2012-10-26T18:52:45-0400
_audit_creation_method            fapswitch 2.2
_symmetry_space_group_name_H-M    P1
_symmetry_Int_Tables_number       1
_space_group_crystal_system       triclinic
_cell_length_a                    10.714379
_cell_length_b                    14.693679
_cell_length_c                    14.724747
_cell_angle_alpha                 65.011819
_cell_angle_beta                  103.306088
_cell_angle_gamma                 103.101732
_cell_volume                      2022.62840764

loop_
_atom_site_label
_atom_site_type_symbol
_atom_type_description
_atom_site_fract_x
_atom_site_fract_y
_atom_site_fract_z
_atom_type_partial_charge
C1    C     C_R   0.475865 0.119785 0.312298 0.560601
C2    C     C_R   0.442065 0.359899 0.077852 0.025923
C3    C     C_R   0.408873 0.320169 0.001426 0.049355
C4    C     C_R   0.259923 0.000162 0.499870 0.583866
C5    C     C_R   0.454709 0.466384 0.050498 0.030435
C6    C     C_R   0.450708 0.532488 0.946566 0.032082
C7    C     C_R   0.414506 0.489824 0.872480 -0.140646
C8    C     C_R   0.392456 0.385552 0.899777 -0.134278
C9    C     C_R   0.469450 0.508835 0.123311 -0.142228
C10   C     C_R   0.489690 0.613152 0.095904 -0.129403
C11   C     C_R   0.498512 0.678792 0.995670 0.051368
C12   C     C_3   0.877638 0.999976 0.498463 0.014145
C13   C     C_R   0.480772 0.639147 0.920187 0.031411
C14   C     C_R   0.524832 0.784010 0.969971 -0.130596
C15   C     C_R   0.534346 0.850588 0.869991 -0.139162
C16   C     C_R   0.519983 0.880201 0.687758 0.540690
C17   C     C_R   0.496827 0.707655 0.821049 -0.136736
C18   C     C_R   0.720244 0.287804 0.664409 -0.160535
C19   C     C_R   0.684841 0.204871 0.636686 0.037244
C20   C     C_R   0.517833 0.284629 0.509588 0.033081
C21   C     C_R   0.549195 0.371902 0.533890 0.002802
C22   C     C_R   0.652689 0.371277 0.613652 0.038183
C23   C     C_3   0.956161 0.983582 0.605340 -0.256480
C24   C     C_R   0.481849 0.458551 0.483112 0.023518
C25   C     C_R   0.518896 0.542533 0.514190 0.025200
C26   C     C_R   0.622461 0.537146 0.594632 -0.142122
C27   C     C_R   0.687841 0.453494 0.642781 -0.131776
C28   C     C_R   0.739908 0.000121 0.499205 0.545202
C29   C     C_R   0.378913 0.464072 0.402432 -0.166355
C30   C     C_R   0.312824 0.547299 0.354760 -0.120455
C31   C     C_R   0.346404 0.629414 0.384550 0.045306
C32   C     C_R   0.450763 0.628837 0.464003 -0.042255
C33   C     C_R   0.276163 0.712242 0.335929 0.238673
C34   C     C_3   0.934661 0.102727 0.420504 -0.191217
C35   C     C_R   0.314257 0.795515 0.363885 0.054652
C36   C     C_R   0.482224 0.715550 0.489177 0.005556
C37   C     C_3   0.034614 0.914261 0.468314 -0.217427
C38   C     C_3   0.891850 0.913611 0.468861 -0.238228
C39   C     C_3   0.099875 0.982416 0.605865 -0.286534
C40   C     C_3   0.080475 0.104712 0.422109 0.165407
C41   C     C_3   0.121597 0.000598 0.498623 0.072457
C42   C     C_3   0.057380 0.697272 0.291456 -0.138895
C43   C     C_3   0.145806 0.227730 0.271613 -0.132366
C44   C     C_R   0.452998 0.187367 0.204896 -0.001161
C45   C     C_R   0.519977 0.812514 0.794989 -0.007137
C46   C     C_R   0.393636 0.215185 0.027482 -0.133745
C47   C     C_R   0.414752 0.149052 0.128722 -0.130725
C48   C     C_R   0.466768 0.291921 0.179042 -0.150179
Cu1   Cu    Cu3+1 0.465900 0.918260 0.475680 0.921620
Cu2   Cu    Cu3+1 0.534100 0.081740 0.524320 0.919509
H1    H     H_    0.062729 0.839172 0.522453 0.113605
H2    H     H_    0.402549 0.068278 0.147197 0.133942
H3    H     H_    0.500834 0.319043 0.239130 0.118897
H4    H     H_    0.047534 0.924404 0.391537 0.163047
H5    H     H_    0.398415 0.534967 0.792266 0.105553
H6    H     H_    0.461758 0.463320 0.202035 0.099016
H7    H     H_    0.537172 0.814785 0.027172 0.110790
H8    H     H_    0.766760 0.453031 0.704074 0.108739
H9    H     H_    0.560790 0.722380 0.547380 0.127567
H10   H     H_    0.263993 0.860980 0.324973 0.137056
H11   H     H_    0.234088 0.546784 0.293688 0.159157
H12   H     H_    0.923723 0.166622 0.438462 0.093045
H13   H     H_    0.799690 0.286524 0.725501 0.091256
H14   H     H_    0.736468 0.140198 0.676065 0.121237
H15   H     H_    0.439693 0.277676 0.451131 0.111581
H16   H     H_    0.836071 0.923396 0.392313 0.136338
H17   H     H_    0.655802 0.596504 0.622883 0.089526
H18   H     H_    0.346364 0.404862 0.373893 0.076556
H19   H     H_    0.852241 0.838578 0.523677 0.123315
H20   H     H_    0.128312 0.908029 0.661648 0.122991
H21   H     H_    0.915738 0.910543 0.662331 0.121768
H22   H     H_    0.137773 0.163616 0.450872 0.097595
H23   H     H_    0.161498 0.042137 0.630821 0.121760
H24   H     H_    0.879563 0.114648 0.343354 0.145673
H25   H     H_    0.046980 0.760732 0.310256 0.104353
H26   H     H_    0.046195 0.623806 0.357980 0.114197
H27   H     H_    0.977223 0.692764 0.229882 0.149560
H28   H     H_    0.243621 0.250971 0.308105 0.112757
H29   H     H_    0.075666 0.275500 0.267087 0.105322
H30   H     H_    0.153782 0.240854 0.193099 0.155891
H31   H     H_    0.948900 0.045322 0.627963 0.128014
H32   H     H_    0.364994 0.356000 0.840682 0.109648
H33   H     H_    0.493876 0.681072 0.762666 0.118317
H34   H     H_    0.551917 0.931567 0.851357 0.128687
H35   H     H_    0.500310 0.642569 0.153974 0.119069
H36   H     H_    0.366553 0.184333 0.969401 0.107180
N1    N     N_R   0.585360 0.204570 0.560800 -0.233294
N2    N     N_R   0.414550 0.795430 0.439160 -0.268891
O1    O     O_R   0.455060 0.022100 0.338110 -0.499071
O2    O     O_3   0.103141 0.123660 0.323862 -0.575040
O3    O     O_R   0.512640 0.160150 0.379180 -0.512509
O4    O     O_R   0.288900 0.930980 0.479450 -0.508261
O5    O     O_R   0.346480 0.069030 0.520520 -0.514652
O6    O     O_R   0.487360 0.839850 0.620820 -0.511343
O7    O     O_R   0.544940 0.977900 0.661890 -0.506504
O8    O     O_R   0.653520 0.930970 0.479480 -0.508217
O9    O     O_R   0.711100 0.069020 0.520550 -0.507305
O10   O     O_3   0.176220 0.714731 0.256737 -0.585564

loop_
_geom_bond_atom_site_label_1
_geom_bond_atom_site_label_2
_ccdc_geom_bond_type
C28   O9    A    
C10   H35   S    
C7    H5    S    
C36   H9    S    
C7    C8    A    
C39   C41   S    
C36   N2    A    
C43   H28   S    
C12   C23   S    
C26   C27   A    
C29   C30   A    
C12   C28   S    
C8    H32   S    
C26   H17   S    
C32   C36   A    
C17   C45   A    
C18   C19   A    
C19   N1    A    
C42   O10   S    
C30   C31   A    
C37   H1    S    
C11   C14   A    
Cu2   O7    S    
C4    C41   S    
C43   H29   S    
C20   N1    A    
C34   H12   S    
C33   O10   S    
C24   C29   A    
C38   H16   S    
Cu2   O9    S    
C31   C33   A    
Cu1   O6    S    
C40   H22   S    
C9    C10   A    
C44   C47   A    
C4    O4    A    
C25   C32   A    
C38   H19   S    
C1    O3    A    
C21   C22   A    
C12   C38   S    
Cu1   N2    S    
C48   H3    S    
C43   O2    S    
C23   H21   S    
C20   H15   S    
C24   C25   A    
C3    C8    A    
C2    C48   A    
C43   H30   S    
C35   H10   S    
C17   H33   S    
C47   H2    S    
C5    C9    A    
C37   C38   S    
C29   H18   S    
C35   N2    A    
C1    C44   S    
C31   C32   A    
C19   H14   S    
C42   H25   S    
C9    H6    S    
C6    C7    A    
Cu2   N1    S    
C34   H24   S    
C37   H4    S    
C40   C41   S    
C22   C27   A    
C34   C40   S    
C21   C24   A    
C2    C5    A    
C15   C45   A    
Cu1   O4    S    
C12   C34   S    
C14   H7    S    
C46   C47   A    
C16   O7    A    
C1    O1    A    
C23   H31   S    
C18   C22   A    
C16   O6    A    
Cu1   O1    S    
C27   H8    S    
C16   C45   S    
Cu2   O5    S    
C15   H34   S    
C3    C46   A    
C42   H26   S    
C13   C17   A    
C28   O8    A    
C2    C3    A    
C25   C26   A    
C6    C13   A    
C11   C13   A    
C5    C6    A    
C23   C39   S    
C33   C35   A    
C39   H20   S    
C39   H23   S    
Cu1   O8    S    
C37   C41   S    
C18   H13   S    
C10   C11   A    
C4    O5    A    
Cu2   O3    S    
C20   C21   A    
C42   H27   S    
Cu1   Cu2   S    
C30   H11   S    
C14   C15   A    
C40   O2    S    
C44   C48   A    
C46   H36   S    
