data_mof_unit_53308.cif
_audit_creation_date              2012-12-11T15:15:13-0500
_audit_creation_method            fapswitch 2.2
_symmetry_space_group_name_H-M    P1
_symmetry_Int_Tables_number       1
_space_group_crystal_system       triclinic
_cell_length_a                    18.834065
_cell_length_b                    18.814381
_cell_length_c                    20.383465
_cell_angle_alpha                 107.226209
_cell_angle_beta                  106.394196
_cell_angle_gamma                 111.007506
_cell_volume                      5797.21888845

loop_
_atom_site_label
_atom_site_type_symbol
_atom_type_description
_atom_site_fract_x
_atom_site_fract_y
_atom_site_fract_z
_atom_type_partial_charge
C1    C     C_R   0.090459 0.087516 0.356169 -0.147674
C2    C     C_R   0.757287 0.994874 0.549214 0.084415
C3    C     C_R   0.757161 0.792553 0.273392 0.038823
C4    C     C_R   0.961811 0.217311 0.463407 0.072210
C5    C     C_R   0.229429 0.229422 0.645161 -0.147453
C6    C     C_R   0.921700 0.756714 0.495737 -0.146072
C7    C     C_R   0.175608 0.928615 0.480051 -0.133217
C8    C     C_R   0.025965 0.052708 0.718834 -0.133487
C9    C     C_R   0.957849 0.910862 0.654126 -0.134653
C10   C     C_R   0.245278 0.070057 0.544755 -0.128984
C11   C     C_R   0.151957 0.222531 0.709427 -0.129503
C12   C     C_R   0.761387 0.925908 0.504965 -0.144505
C13   C     C_R   0.998886 0.763199 0.431104 -0.147077
C14   C     C_R   0.227497 0.274289 0.711534 0.044910
C15   C     C_R   0.947736 0.709406 0.451862 0.082674
C16   C     C_R   0.253404 0.997449 0.534957 0.075105
C17   C     C_R   0.007941 0.978227 0.726722 0.054072
C18   C     C_R   0.948437 0.578455 0.377254 -0.265204
C19   C     C_R   0.916972 0.617332 0.422949 0.112106
C20   C     C_R   0.861109 0.568998 0.445376 -0.246387
C21   C     C_R   0.845919 0.486469 0.431292 0.119302
C22   C     C_R   0.886079 0.451750 0.393459 0.025982
C23   C     C_R   0.839461 0.816679 0.281556 -0.126355
C24   C     C_R   0.934165 0.496379 0.363063 0.152420
C25   C     C_R   0.796552 0.440975 0.459678 -0.278252
C26   C     C_R   0.793833 0.365076 0.458348 0.129166
C27   C     C_R   0.843731 0.336076 0.429454 0.079874
C28   C     C_R   0.885330 0.376786 0.392694 0.001549
C29   C     C_R   0.933548 0.347603 0.361876 0.158656
C30   C     C_R   0.973355 0.387251 0.324382 -0.209905
C31   C     C_R   0.973666 0.461489 0.324980 -0.211625
C32   C     C_R   0.860630 0.273767 0.443114 -0.266524
C33   C     C_R   0.920613 0.256072 0.424448 0.118039
C34   C     C_R   0.947344 0.194125 0.519065 -0.136497
C35   C     C_R   0.949515 0.286052 0.376807 -0.254303
C36   C     C_R   0.330118 0.915893 0.552523 -0.258860
C37   C     C_R   0.330338 0.994168 0.572868 0.116043
C38   C     C_R   0.406789 0.069851 0.621593 -0.258001
C39   C     C_R   0.483230 0.068874 0.637268 0.140878
C40   C     C_R   0.482542 0.990821 0.606226 0.025818
C41   C     C_R   0.405943 0.913729 0.567440 0.141441
C42   C     C_R   0.559678 0.145244 0.675952 -0.203604
C43   C     C_R   0.633703 0.144871 0.676569 -0.209899
C44   C     C_R   0.631548 0.068170 0.638364 0.145060
C45   C     C_R   0.760821 0.810114 0.346039 -0.127763
C46   C     C_R   0.556878 0.990478 0.606623 0.027616
C47   C     C_R   0.554222 0.913070 0.568146 0.143477
C48   C     C_R   0.479712 0.836075 0.536911 -0.209760
C49   C     C_R   0.405752 0.836394 0.536669 -0.206695
C50   C     C_R   0.700072 0.068487 0.624937 -0.271352
C51   C     C_R   0.693969 0.992360 0.578588 0.116330
C52   C     C_R   0.623316 0.914496 0.555105 -0.264128
C53   C     C_R   0.282351 0.366145 0.761562 0.143865
C54   C     C_R   0.253835 0.413671 0.803778 -0.189429
C55   C     C_R   0.307305 0.499671 0.853221 -0.161964
C56   C     C_R   0.025334 0.200277 0.454220 -0.128302
C57   C     C_R   0.390310 0.539361 0.861533 0.231267
C58   C     C_R   0.416857 0.493581 0.815649 -0.183499
C59   C     C_R   0.363562 0.407521 0.766406 -0.178475
C60   C     C_R   0.614381 0.700960 0.064241 -0.151992
C61   C     C_R   0.685568 0.734215 0.131785 -0.188491
C62   C     C_R   0.606710 0.756818 0.203877 -0.170999
C63   C     C_R   0.535137 0.723102 0.136030 -0.190213
C64   C     C_R   0.537932 0.693896 0.065583 0.227992
C65   C     C_2   0.454825 0.622900 0.925369 -0.233415
C66   C     C_2   0.457699 0.642221 0.995341 -0.220143
C67   C     C_R   0.830913 0.066278 0.569394 -0.149939
C68   C     C_R   0.682232 0.761015 0.202302 0.144231
C69   C     C_R   0.120181 0.025347 0.244597 0.142273
C70   C     C_R   0.127486 0.954737 0.205843 -0.190672
C71   C     C_R   0.164254 0.956467 0.155546 -0.160315
C72   C     C_R   0.193830 0.028665 0.142992 0.220816
C73   C     C_R   0.195564 0.102376 0.188096 -0.193203
C74   C     C_R   0.158150 0.100524 0.238053 -0.174819
C75   C     C_R   0.084187 0.029725 0.935344 0.150894
C76   C     C_R   0.051952 0.032506 0.865608 -0.224034
C77   C     C_R   0.064868 0.910769 0.799856 -0.184115
C78   C     C_R   0.020662 0.947369 0.292008 -0.133194
C79   C     C_R   0.100024 0.908800 0.868724 -0.194199
C80   C     C_R   0.111608 0.968506 0.936664 0.150429
C81   C     C_2   0.202615 0.022595 0.072354 -0.232538
C82   C     C_2   0.140514 0.957259 0.005975 -0.235617
C83   C     C_R   0.041590 0.973173 0.798266 0.111084
C84   C     C_R   0.072932 0.020561 0.291230 0.044264
H1    H     H_    0.140783 0.152022 0.380609 0.091274
H2    H     H_    0.871686 0.732695 0.512159 0.086680
H3    H     H_    0.158215 0.862237 0.458318 0.095611
H4    H     H_    0.064855 0.116986 0.763670 0.097654
H5    H     H_    0.932832 0.843952 0.639258 0.097332
H6    H     H_    0.292656 0.135028 0.583254 0.094810
H7    H     H_    0.123345 0.241526 0.745568 0.082918
H8    H     H_    0.019665 0.745373 0.387612 0.086356
H9    H     H_    0.989458 0.613437 0.357274 0.115649
H10   H     H_    0.833785 0.596789 0.478315 0.115598
H11   H     H_    0.763363 0.466738 0.486445 0.133940
H12   H     H_    0.721637 0.859830 0.488849 0.086320
H13   H     H_    0.833820 0.245106 0.474817 0.131206
H14   H     H_    0.991667 0.268814 0.357796 0.115459
H15   H     H_    0.009206 0.364332 0.299367 0.129265
H16   H     H_    0.009448 0.494487 0.300147 0.127780
H17   H     H_    0.407913 0.130470 0.641331 0.117523
H18   H     H_    0.561208 0.205539 0.701118 0.129034
H19   H     H_    0.691234 0.204860 0.702536 0.136107
H20   H     H_    0.754986 0.129006 0.645762 0.119361
H21   H     H_    0.861059 0.814569 0.237669 0.094295
H22   H     H_    0.618560 0.855020 0.521507 0.116382
H23   H     H_    0.477297 0.776073 0.508351 0.128334
H24   H     H_    0.347427 0.776647 0.507751 0.129507
H25   H     H_    0.190675 0.384771 0.799525 0.110826
H26   H     H_    0.742066 0.735520 0.127945 0.111411
H27   H     H_    0.602012 0.778036 0.257146 0.113535
H28   H     H_    0.402222 0.607274 0.001873 0.132368
H29   H     H_    0.480830 0.523059 0.821488 0.110681
H30   H     H_    0.618750 0.676092 0.011315 0.109874
H31   H     H_    0.387212 0.372839 0.734332 0.110774
H32   H     H_    0.509956 0.658319 0.918703 0.131268
H33   H     H_    0.284599 0.534293 0.886619 0.112687
H34   H     H_    0.476618 0.717084 0.138418 0.115463
H35   H     H_    0.102605 0.896997 0.212154 0.111413
H36   H     H_    0.032395 0.079243 0.862299 0.112888
H37   H     H_    0.057250 0.864493 0.748082 0.125664
H38   H     H_    0.098243 0.899033 0.004648 0.140941
H39   H     H_    0.709150 0.800511 0.361667 0.093140
H40   H     H_    0.242690 0.080702 0.071989 0.137954
H41   H     H_    0.164267 0.899521 0.122584 0.115307
H42   H     H_    0.117735 0.860046 0.869043 0.131819
H43   H     H_    0.052109 0.209173 0.415152 0.095620
H44   H     H_    0.855698 0.129646 0.612828 0.088732
H45   H     H_    0.004915 0.883299 0.256814 0.083838
H46   H     H_    0.271090 0.255943 0.621585 0.090763
N1    N     N_R   0.052580 0.056040 0.395500 -0.036827
N2    N     N_R   0.954640 0.834860 0.500130 -0.037973
N3    N     N_R   0.122510 0.958490 0.460420 -0.041045
N4    N     N_R   0.990180 0.030970 0.644220 -0.038808
N5    N     N_R   0.947420 0.943960 0.604500 -0.038446
N6    N     N_R   0.165270 0.045500 0.500140 -0.040402
N7    N     N_R   0.109790 0.150600 0.644220 -0.037281
N8    N     N_R   0.002890 0.838860 0.460420 -0.038339
N9    N     N_R   0.834730 0.954500 0.499860 -0.037901
N10   N     N_R   0.890210 0.849400 0.355780 -0.039193
N11   N     N_R   0.997110 0.161140 0.539580 -0.040656
N12   N     N_R   0.841950 0.845400 0.395490 -0.038684
N13   N     N_R   0.045360 0.165140 0.499870 -0.040568
N14   N     N_R   0.877490 0.041510 0.539580 -0.037885
N15   N     N_R   0.009820 0.969030 0.355780 -0.037362
N16   N     N_R   0.158050 0.154600 0.604510 -0.036887
Ni1   Ni    Ni4+2 0.104370 0.104380 0.500010 0.211908
Ni2   Ni    Ni4+2 0.895630 0.895620 0.499990 0.211260
Ni3   Ni    Ni4+2 0.006300 0.904810 0.408930 0.209555
Ni4   Ni    Ni4+2 0.993700 0.095190 0.591070 0.209480
C85   C     C_3   0.741043 0.320024 0.491855 -0.421162
C86   C     C_3   0.792980 0.351622 0.577351 -0.236448
C87   C     C_3   0.742712 0.299829 0.609225 -0.950674
H47   H     H_    0.683871 0.304334 0.600938 0.267977
H48   H     H_    0.726155 0.232099 0.580346 0.264938
H49   H     H_    0.781401 0.324768 0.671244 0.244119
H50   H     H_    0.851956 0.346989 0.587643 0.193448
H51   H     H_    0.810973 0.419465 0.608578 0.196512
H52   H     H_    0.685970 0.331612 0.483900 0.185440
H53   H     H_    0.713806 0.250150 0.460357 0.189618
H54   H     H_    0.271547 0.856635 0.518644 0.118619
H55   H     H_    0.902191 0.197950 0.540735 0.097552
H56   H     H_    0.218538 0.158917 0.179479 0.113688
C88   C     C_3   0.086639 0.088461 0.007163 -0.427640
C89   C     C_3   0.033393 0.133207 0.994926 -0.266900
C90   C     C_3   0.032131 0.180706 0.069342 -0.921675
H57   H     H_    0.003146 0.135682 0.090938 0.263877
H58   H     H_    0.097388 0.229077 0.113235 0.257923
H59   H     H_    0.994295 0.213332 0.059212 0.250098
H60   H     H_    0.060695 0.180129 0.974346 0.194163
H61   H     H_    0.967346 0.085622 0.952123 0.204727
H62   H     H_    0.062898 0.050027 0.035977 0.213267
H63   H     H_    0.153189 0.138025 0.045870 0.181408
H64   H     H_    0.154793 0.156372 0.268132 0.112049

loop_
_geom_bond_atom_site_label_1
_geom_bond_atom_site_label_2
_ccdc_geom_bond_type
C89   H61   S    
C34   N11   A    
C50   H20   S    
C89   C90   S    
C73   C74   A    
C54   C55   A    
C60   H30   S    
C19   C20   A    
C43   C44   A    
C2    C12   A    
C81   C82   D    
C53   C59   A    
C12   H12   S    
C53   C54   A    
C45   H39   S    
C1    C84   A    
C40   C46   A    
C26   C27   A    
C76   H36   S    
C60   C61   A    
C18   C24   A    
C26   C85   S    
C78   H45   S    
N10   N12   A    
C36   H54   S    
C7    N3    A    
C38   H17   S    
N11   N13   A    
C38   C39   A    
C11   C14   A    
C48   H23   S    
C67   N14   A    
N2    N8    A    
N4    Ni4   S    
C32   H13   S    
C18   C19   A    
C46   C47   A    
C56   H43   S    
C20   H10   S    
C59   H31   S    
N14   Ni4   S    
C78   N15   A    
C6    C15   A    
C86   H50   S    
C56   N13   A    
C3    C23   A    
C7    H3    S    
C62   H27   S    
C3    C68   S    
C58   H29   S    
C85   C86   S    
N1    Ni1   S    
C70   C71   A    
C87   H48   S    
C35   H14   S    
C75   C80   A    
C72   C81   S    
C16   C37   S    
C52   H22   S    
C22   C28   A    
C21   C22   A    
C4    C56   A    
C90   H58   S    
C88   C89   S    
C36   C41   A    
C69   C70   A    
C61   H26   S    
C42   H18   S    
C76   C83   A    
C41   C49   A    
C44   C46   A    
N11   Ni4   S    
C39   C42   A    
C4    C34   A    
C77   C79   A    
N8    Ni3   S    
C1    H1    S    
C86   H51   S    
N9    Ni2   S    
C81   H40   S    
C8    N4    A    
C51   C52   A    
N2    Ni2   S    
N12   Ni2   S    
C23   N10   A    
C69   C74   A    
N3    Ni3   S    
C6    N2    A    
C2    C67   A    
C9    H5    S    
C39   C40   A    
C63   H34   S    
C34   H55   S    
C25   C26   A    
C30   H15   S    
C3    C45   A    
C63   C64   A    
C54   H25   S    
C75   C88   S    
C8    H4    S    
C85   H52   S    
C15   C19   S    
C75   C76   A    
C37   C38   A    
C11   H7    S    
N3    N6    A    
N9    N14   A    
N7    N16   A    
C47   C48   A    
C70   H35   S    
C10   N6    A    
C62   C63   A    
C50   C51   A    
C12   N9    A    
C88   H63   S    
C31   H16   S    
C20   C21   A    
C87   H49   S    
C5    C14   A    
C47   C52   A    
C9    N5    A    
C9    C17   A    
C40   C41   A    
C79   H42   S    
C25   H11   S    
C13   C15   A    
C13   H8    S    
C45   N12   A    
C65   H32   S    
C22   C24   A    
N7    Ni4   S    
C88   H62   S    
C42   C43   A    
N13   Ni1   S    
N16   Ni1   S    
C55   H33   S    
C44   C50   A    
C89   H60   S    
C21   C25   A    
C4    C33   S    
C28   C29   A    
C5    H46   S    
C5    N16   A    
C27   C32   A    
C7    C16   A    
C57   C65   S    
C72   C73   A    
C1    N1    A    
C43   H19   S    
C74   H64   S    
N4    N5    A    
C29   C35   A    
C8    C17   A    
C6    H2    S    
C62   C68   A    
C60   C64   A    
C66   H28   S    
C85   H53   S    
C55   C57   A    
C58   C59   A    
C24   C31   A    
C71   C72   A    
C73   H56   S    
C69   C84   S    
C10   C16   A    
C67   H44   S    
C13   N8    A    
C61   C68   A    
C57   C58   A    
C30   C31   A    
C90   H57   S    
C48   C49   A    
C33   C35   A    
C80   C82   S    
N1    N15   A    
C65   C66   D    
C11   N7    A    
C32   C33   A    
C49   H24   S    
N6    Ni1   S    
C77   H37   S    
C2    C51   S    
C29   C30   A    
C79   C80   A    
C78   C84   A    
C14   C53   S    
C86   C87   S    
C10   H6    S    
C90   H59   S    
C36   C37   A    
N5    Ni2   S    
C27   C28   A    
C18   H9    S    
C77   C83   A    
C71   H41   S    
C17   C83   S    
C87   H47   S    
N10   Ni3   S    
C82   H38   S    
N15   Ni3   S    
C64   C66   S    
C23   H21   S    
