data_mof_unit_25459.cif
_audit_creation_date              2012-12-10T18:23:01-0500
_audit_creation_method            fapswitch 2.2
_symmetry_space_group_name_H-M    P1
_symmetry_Int_Tables_number       1
_space_group_crystal_system       triclinic
_cell_length_a                    14.908309
_cell_length_b                    14.03985
_cell_length_c                    10.478492
_cell_angle_alpha                 90.619317
_cell_angle_beta                  90.400256
_cell_angle_gamma                 89.988424
_cell_volume                      2193.07592696

loop_
_atom_site_label
_atom_site_type_symbol
_atom_type_description
_atom_site_fract_x
_atom_site_fract_y
_atom_site_fract_z
_atom_type_partial_charge
Br1   Br    Br    0.401930 0.885613 0.868043 -0.421524
Br2   Br    Br    0.599145 0.114693 0.132500 -0.463356
Br3   Br    Br    0.599319 0.879541 0.132647 -0.431980
Br4   Br    Br    0.402064 0.120804 0.868018 -0.457954
C1    C     C_R   0.326974 0.499864 0.498341 0.956353
C2    C     C_R   0.949878 0.572603 0.292707 -0.191532
C3    C     C_R   0.529533 0.797150 0.395453 0.024106
C4    C     C_R   0.470304 0.202919 0.604439 -0.007148
C5    C     C_R   0.470761 0.798818 0.604732 0.017404
C6    C     C_R   0.529492 0.201271 0.395407 -0.013657
C7    C     C_R   0.470396 0.899689 0.608542 -0.081646
C8    C     C_R   0.529964 0.100449 0.391637 -0.072417
C9    C     C_R   0.530028 0.897935 0.391710 -0.082154
C10   C     C_R   0.470009 0.102189 0.608285 -0.091585
C11   C     C_R   0.500159 0.949511 0.500087 -0.002577
C12   C     C_R   0.673008 0.499860 0.502530 0.962839
C13   C     C_R   0.500044 0.050621 0.500001 -0.001860
C14   C     C_R   0.441320 0.951495 0.717321 0.251233
C15   C     C_R   0.559310 0.048704 0.282995 0.246941
C16   C     C_R   0.559343 0.947943 0.283037 0.252480
C17   C     C_R   0.441163 0.052251 0.717213 0.244726
C18   C     C_R   0.500327 0.499525 0.257198 0.876713
C19   C     C_R   0.500951 0.500534 0.742795 0.892059
C20   C     C_3   0.428828 0.547951 0.042112 -0.161708
C21   C     C_3   0.573525 0.452466 0.957840 -0.155501
C22   C     C_3   0.504491 0.591259 0.961602 -0.098385
C23   C     C_R   0.953235 0.504257 0.506015 0.028931
C24   C     C_3   0.497814 0.409068 0.038292 -0.122056
C25   C     C_3   0.425945 0.458409 0.955450 -0.197937
C26   C     C_3   0.576343 0.542015 0.044572 -0.167324
C27   C     C_3   0.501599 0.501583 0.877686 0.004500
C28   C     C_3   0.500673 0.498723 0.122284 -0.006729
C29   C     C_R   0.812511 0.538985 0.402334 -0.337880
C30   C     C_R   0.188031 0.475521 0.609478 -0.339889
C31   C     C_R   0.768341 0.499497 0.505374 -0.144170
C32   C     C_R   0.231630 0.499401 0.497404 -0.157060
C33   C     C_R   0.814204 0.459783 0.609221 0.418031
C34   C     C_R   0.046769 0.504343 0.503470 0.024180
C35   C     C_R   0.184923 0.521293 0.385180 0.439688
C36   C     C_R   0.907993 0.468886 0.614111 -0.003433
C37   C     C_R   0.091718 0.531894 0.391216 -0.002899
C38   C     C_3   0.783671 0.321837 0.721268 0.040646
C39   C     C_3   0.698557 0.263431 0.695945 -0.322855
C40   C     C_3   0.710271 0.160368 0.737914 -0.868877
C41   C     C_3   0.215064 0.455667 0.187495 0.010885
C42   C     C_3   0.271868 0.368374 0.221760 -0.378885
C43   C     C_3   0.258016 0.287129 0.125751 -0.855536
C44   C     C_R   0.905034 0.538679 0.399723 0.136021
C45   C     C_R   0.095293 0.475251 0.612350 0.141783
C46   C     C_R   0.957398 0.444212 0.723559 -0.204092
C47   C     C_R   0.042770 0.568686 0.288028 -0.199438
C48   C     C_R   0.050504 0.447633 0.722667 -0.191066
H1    H     H_    0.364985 0.425189 0.912985 0.138169
H2    H     H_    0.076073 0.594171 0.203444 0.184142
H3    H     H_    0.087507 0.427325 0.807551 0.141952
H4    H     H_    0.913027 0.600334 0.211669 0.156275
H5    H     H_    0.552666 0.755114 0.315444 0.176623
H6    H     H_    0.447188 0.244996 0.684408 0.182493
H7    H     H_    0.447811 0.758002 0.684802 0.171374
H8    H     H_    0.552554 0.242143 0.315460 0.176809
H9    H     H_    0.805810 0.309837 0.821304 0.167834
H10   H     H_    0.837790 0.294094 0.657676 0.134542
H11   H     H_    0.641159 0.295359 0.748124 0.248866
H12   H     H_    0.637420 0.575828 0.086012 0.149709
H13   H     H_    0.683041 0.263531 0.592249 0.239694
H14   H     H_    0.767072 0.126577 0.686471 0.259463
H15   H     H_    0.648304 0.119454 0.715978 0.278292
H16   H     H_    0.723054 0.157438 0.842348 0.292660
H17   H     H_    0.233372 0.478694 0.090022 0.168428
H18   H     H_    0.143077 0.434903 0.182184 0.144443
H19   H     H_    0.343571 0.388411 0.223104 0.247528
H20   H     H_    0.253342 0.342598 0.317859 0.232005
H21   H     H_    0.186930 0.263445 0.125828 0.262021
H22   H     H_    0.301360 0.225997 0.152199 0.294758
H23   H     H_    0.370309 0.587008 0.081483 0.186329
H24   H     H_    0.276095 0.310072 0.028246 0.263216
H25   H     H_    0.632813 0.414284 0.919439 0.172419
H26   H     H_    0.507274 0.665453 0.926169 0.191414
H27   H     H_    0.494811 0.334858 0.073648 0.192291
H28   H     H_    0.774367 0.567321 0.322626 0.160035
H29   H     H_    0.226632 0.456379 0.693652 0.153003
H30   H     H_    0.924659 0.422673 0.810350 0.167102
N1    N     N_R   0.500000 0.750030 0.500000 -0.125351
N2    N     N_R   0.500000 0.249970 0.500000 -0.131355
O1    O     O_R   0.367850 0.580280 0.500030 -0.592725
O2    O     O_3   0.231684 0.533564 0.272276 -0.651435
O3    O     O_R   0.632150 0.419720 0.499970 -0.624634
O4    O     O_R   0.632150 0.580280 0.499970 -0.618041
O5    O     O_R   0.367850 0.419720 0.500030 -0.634662
O6    O     O_R   0.499970 0.580260 0.313950 -0.618087
O7    O     O_R   0.500030 0.419740 0.686050 -0.637879
O8    O     O_R   0.500030 0.580260 0.686050 -0.637698
O9    O     O_R   0.499970 0.419740 0.313950 -0.650737
O10   O     O_3   0.765398 0.420655 0.708488 -0.660250
Zn1   Zn    Zn3+2 0.500000 0.607200 0.500000 0.980372
Zn2   Zn    Zn3+2 0.500000 0.392800 0.500000 0.934186

loop_
_geom_bond_atom_site_label_1
_geom_bond_atom_site_label_2
_ccdc_geom_bond_type
C23   C44   A    
C21   C27   S    
C3    N1    A    
C7    C14   A    
C26   H12   S    
C14   C17   A    
C40   H14   S    
C15   C16   A    
C39   H11   S    
O6    Zn1   S    
C35   C37   A    
C34   C45   A    
C41   C42   S    
C21   C24   S    
Br1   C14   S    
C22   H26   S    
C2    C44   A    
C21   H25   S    
C10   C17   A    
C24   C25   S    
C31   C33   A    
C20   C22   S    
C43   H24   S    
C33   C36   A    
C12   C31   S    
C23   C34   A    
C1    C32   S    
N2    Zn2   S    
C24   H27   S    
C20   C25   S    
C4    H6    S    
O7    Zn2   S    
C7    C11   A    
C8    C13   A    
C12   O3    A    
C46   C48   A    
C30   H29   S    
C2    C47   A    
C38   H10   S    
C42   H20   S    
C48   H3    S    
C1    O1    A    
Br2   C15   S    
O4    Zn1   S    
C22   C27   S    
C4    N2    A    
C10   C13   A    
C41   H17   S    
C24   C28   S    
C43   H21   S    
C34   C37   A    
O8    Zn1   S    
C5    H7    S    
C19   C27   S    
C6    H8    S    
C39   C40   S    
C20   C28   S    
C23   C36   A    
C39   H13   S    
C45   C48   A    
N1    Zn1   S    
O3    Zn2   S    
C18   O6    A    
Br3   C16   S    
C20   H23   S    
C5    C7    A    
C38   H9    S    
C42   H19   S    
C6    C8    A    
C5    N1    A    
C22   C26   S    
O9    Zn2   S    
C9    C11   A    
C18   O9    A    
C19   O7    A    
C40   H16   S    
C38   C39   S    
C18   C28   S    
C46   H30   S    
C21   C26   S    
C11   C13   A    
C42   C43   S    
C30   C45   A    
C4    C10   A    
C9    C16   A    
C41   H18   S    
C38   O10   S    
C32   C35   A    
C43   H22   S    
C2    H4    S    
C29   H28   S    
C47   H2    S    
O5    Zn2   S    
C41   O2    S    
C25   C27   S    
C26   C28   S    
Br4   C17   S    
O1    Zn1   S    
C25   H1    S    
C36   C46   A    
C8    C15   A    
C6    N2    A    
C29   C31   A    
C37   C47   A    
C33   O10   S    
C30   C32   A    
C3    C9    A    
C12   O4    A    
C29   C44   A    
C19   O8    A    
C40   H15   S    
C35   O2    S    
C3    H5    S    
C1    O5    A    
