data_mof_unit_19208.cif
_audit_creation_date              2012-12-10T17:28:31-0500
_audit_creation_method            fapswitch 2.2
_symmetry_space_group_name_H-M    P1
_symmetry_Int_Tables_number       1
_space_group_crystal_system       triclinic
_cell_length_a                    10.853063
_cell_length_b                    12.150608
_cell_length_c                    13.038517
_cell_angle_alpha                 92.968696
_cell_angle_beta                  94.248279
_cell_angle_gamma                 86.824264
_cell_volume                      1710.08444105

loop_
_atom_site_label
_atom_site_type_symbol
_atom_type_description
_atom_site_fract_x
_atom_site_fract_y
_atom_site_fract_z
_atom_type_partial_charge
C1    C     C_R   0.493964 0.522663 0.699912 0.855247
C2    C     C_R   0.494928 0.565192 0.131156 0.420339
C3    C     C_R   0.477302 0.455751 0.972966 -0.003526
C4    C     C_R   0.503099 0.557452 0.025052 -0.092309
C5    C     C_R   0.393460 0.953382 0.388958 0.394321
C6    C     C_R   0.613373 0.043185 0.601145 0.415521
C7    C     C_R   0.389463 0.840142 0.411896 -0.047663
C8    C     C_R   0.588451 0.158468 0.600974 -0.082266
C9    C     C_R   0.561523 0.857485 0.533779 0.553882
C10   C     C_R   0.470552 0.141639 0.441704 0.573300
C11   C     C_R   0.552538 0.974258 0.526640 -0.150945
C12   C     C_R   0.505653 0.478920 0.299675 0.989733
C13   C     C_R   0.472747 0.023232 0.449907 -0.230324
C14   C     C_R   0.739714 0.501475 0.500182 0.937141
C15   C     C_R   0.260341 0.500020 0.501085 0.917756
C16   C     C_R   0.922952 0.338911 0.602575 0.456210
C17   C     C_R   0.100482 0.700616 0.572595 0.449226
C18   C     C_R   0.998248 0.240510 0.612662 0.365791
C19   C     C_R   0.029992 0.800097 0.561249 0.487962
C20   C     C_R   0.087890 0.214490 0.539305 -0.229721
C21   C     C_R   0.927092 0.804633 0.487011 -0.229497
C22   C     C_R   0.114418 0.297028 0.472370 -0.171180
C23   C     C_R   0.511596 0.468676 0.187320 -0.183540
C24   C     C_R   0.878436 0.703438 0.447353 -0.154452
C25   C     C_R   0.062914 0.403465 0.492138 -0.047058
C26   C     C_R   0.933392 0.603968 0.485898 -0.010657
C27   C     C_R   0.946063 0.410992 0.526418 -0.080549
C28   C     C_R   0.057861 0.603311 0.519793 -0.172002
C29   C     C_R   0.127335 0.501864 0.503672 -0.092957
C30   C     C_R   0.872692 0.505774 0.501543 -0.030633
C31   C     C_2   0.883315 0.911530 0.442935 1.069592
C32   C     C_2   0.159908 0.108211 0.538862 1.001046
C33   C     C_2   0.160673 0.271660 0.368702 1.077649
C34   C     C_R   0.484205 0.541707 0.810944 -0.254472
C35   C     C_2   0.788605 0.697156 0.355521 1.050324
C36   C     C_2   0.594901 0.269912 0.185970 1.009075
C37   C     C_2   0.550087 0.739517 0.807860 1.003283
C38   C     C_2   0.577127 0.751966 0.024391 1.002342
C39   C     C_2   0.479320 0.247314 0.974712 1.130791
C40   C     C_2   0.609691 0.216974 0.700426 1.000389
C41   C     C_2   0.281946 0.779569 0.365885 0.963167
C42   C     C_R   0.528721 0.650116 0.970410 -0.127401
C43   C     C_R   0.489752 0.357315 0.028076 -0.124131
C44   C     C_R   0.521805 0.641369 0.862864 -0.125299
C45   C     C_R   0.527734 0.364917 0.134139 -0.215648
C46   C     C_R   0.444439 0.456369 0.867437 0.439080
H1    H     H_    0.852881 0.000010 0.315915 0.358547
H2    H     H_    0.727500 0.605881 0.230163 0.378528
H3    H     H_    0.403194 0.706112 0.135614 0.346445
H4    H     H_    0.320537 0.410217 0.760255 0.337066
H5    H     H_    0.733605 0.219242 0.287427 0.346128
H6    H     H_    0.481488 0.874351 0.734599 0.341465
H7    H     H_    0.707730 0.818835 0.122680 0.386735
H8    H     H_    0.567446 0.108288 0.920502 0.368894
H9    H     H_    0.429260 0.145389 0.296454 0.391469
H10   H     H_    0.635316 0.736455 0.609630 0.377744
H11   H     H_    0.729300 0.254687 0.820801 0.366044
H12   H     H_    0.296874 0.013508 0.607973 0.353355
H13   H     H_    0.098321 0.783671 0.329146 0.353309
H14   H     H_    0.297979 0.940345 0.257164 0.361031
H15   H     H_    0.650722 0.020700 0.746039 0.340498
H16   H     H_    0.884939 0.354108 0.744399 0.385210
H17   H     H_    0.215367 0.623852 0.668895 0.310687
H18   H     H_    0.047780 0.117155 0.699126 0.374813
H19   H     H_    0.995275 0.940015 0.632492 0.380806
H20   H     H_    0.227568 0.329159 0.242256 0.361352
N1    N     N_R   0.523130 0.207800 0.519340 -0.175128
N2    N     N_R   0.476870 0.792200 0.480660 -0.202186
O1    O     O_R   0.506170 0.421700 0.658830 -0.583052
O2    O     O_R   0.884028 0.923641 0.336921 -0.746610
O3    O     O_2   0.132737 0.035245 0.474738 -0.498549
O4    O     O_R   0.257193 0.090887 0.613600 -0.779898
O5    O     O_3   0.313369 0.997587 0.312862 -0.650255
O6    O     O_3   0.686875 0.996815 0.680411 -0.612426
O7    O     O_3   0.845997 0.377315 0.677231 -0.738403
O8    O     O_3   0.200214 0.699790 0.644840 -0.656101
O9    O     O_3   0.977894 0.172274 0.690548 -0.669998
O10   O     O_3   0.068719 0.890976 0.619768 -0.680553
O11   O     O_2   0.154115 0.179053 0.328388 -0.511036
O12   O     O_R   0.493830 0.578300 0.341170 -0.515708
O13   O     O_R   0.201068 0.356221 0.312551 -0.774517
O14   O     O_2   0.708160 0.770108 0.340238 -0.590592
O15   O     O_R   0.794751 0.604043 0.288045 -0.781879
O16   O     O_3   0.467344 0.666170 0.179880 -0.697500
O17   O     O_3   0.362261 0.381213 0.824271 -0.672610
O18   O     O_2   0.566865 0.175103 0.164025 -0.610608
O19   O     O_R   0.695013 0.289476 0.257340 -0.768487
O20   O     O_2   0.656734 0.767461 0.809248 -0.571417
O21   O     O_R   0.452876 0.804250 0.761853 -0.711372
O22   O     O_2   0.523585 0.841756 0.010234 -0.579944
O23   O     O_R   0.491330 0.609310 0.646410 -0.633855
O24   O     O_R   0.684079 0.744453 0.090645 -0.747452
O25   O     O_2   0.377316 0.210813 0.953621 -0.506406
O26   O     O_R   0.586342 0.183293 0.953842 -0.776499
O27   O     O_3   0.414245 0.193000 0.358275 -0.706277
O28   O     O_3   0.656583 0.811185 0.595475 -0.682231
O29   O     O_2   0.520576 0.242353 0.749326 -0.575786
O30   O     O_R   0.728335 0.218982 0.748758 -0.708539
O31   O     O_2   0.295590 0.690369 0.320340 -0.559369
O32   O     O_R   0.163382 0.830003 0.367499 -0.746245
O33   O     O_R   0.508670 0.390690 0.353590 -0.574250
O34   O     O_R   0.690650 0.406190 0.506220 -0.581293
O35   O     O_R   0.309350 0.593810 0.493780 -0.589543
O36   O     O_R   0.675800 0.593810 0.493800 -0.673344
O37   O     O_R   0.324200 0.406190 0.506200 -0.602999
O38   O     O_2   0.848730 0.989340 0.498556 -0.601408
Zn1   Zn    Zn3+2 0.509910 0.374730 0.508290 1.066362
Zn2   Zn    Zn3+2 0.490090 0.625270 0.491710 1.050899

loop_
_geom_bond_atom_site_label_1
_geom_bond_atom_site_label_2
_ccdc_geom_bond_type
O33   Zn1   S    
C23   C45   A    
C16   O7    S    
H18   O9    S    
C37   O20   D    
C2    O16   S    
N1    Zn1   S    
O1    Zn1   S    
C32   O4    S    
C10   N1    A    
C21   C31   S    
C12   C23   S    
C3    C43   A    
H3    O16   S    
C28   C29   A    
C19   C21   A    
C24   C26   A    
C38   C42   S    
C40   O30   S    
C14   O34   A    
H17   O8    S    
C38   O24   S    
H14   O5    S    
C39   O25   D    
H4    O17   S    
C7    N2    A    
C31   O2    S    
C22   C25   A    
C17   O8    S    
C41   O31   D    
C15   C29   S    
O35   Zn2   S    
C34   C46   A    
C5    C13   A    
C46   O17   S    
C16   C27   A    
C1    O23   A    
C27   C30   A    
H13   O32   S    
H6    O21   S    
C42   C44   A    
C14   C30   S    
C35   O14   D    
C1    C34   S    
C6    O6    S    
C32   O3    D    
C36   O19   S    
C25   C29   A    
C24   C35   S    
C36   C45   S    
C34   C44   A    
H9    O27   S    
H5    O19   S    
C6    C11   A    
C5    C7    A    
C35   O15   S    
C33   O11   D    
C6    C8    A    
C36   O18   D    
C1    O1    A    
C19   O10   S    
C2    C4    A    
H1    O2    S    
O37   Zn1   S    
C14   O36   A    
H7    O24   S    
C41   O32   S    
O34   Zn1   S    
C43   C45   A    
C9    C11   A    
C9    O28   S    
C20   C22   A    
C26   C30   A    
C39   O26   S    
C31   O38   D    
H16   O7    S    
C3    C4    A    
O36   Zn2   S    
C20   C32   S    
H10   O28   S    
C22   C33   S    
O12   Zn2   S    
H19   O10   S    
C17   C28   A    
O23   Zn2   S    
C10   C13   A    
C39   C43   S    
H15   O6    S    
C25   C27   A    
C8    C40   S    
C38   O22   D    
C3    C46   A    
C26   C28   A    
H2    O15   S    
C37   O21   S    
C15   O37   A    
C37   C44   S    
C9    N2    A    
C12   O33   A    
C40   O29   D    
H20   O13   S    
C11   C13   A    
H12   O4    S    
C4    C42   A    
C10   O27   S    
C18   O9    S    
H11   O30   S    
C12   O12   A    
C17   C19   A    
C18   C20   A    
C7    C41   S    
C5    O5    S    
H8    O26   S    
C8    N1    A    
C16   C18   A    
C21   C24   A    
C2    C23   A    
N2    Zn2   S    
C15   O35   A    
C33   O13   S    
