data_mof_unit_6296.cif
_audit_creation_date              2012-12-11T15:20:17-0500
_audit_creation_method            fapswitch 2.2
_symmetry_space_group_name_H-M    P1
_symmetry_Int_Tables_number       1
_space_group_crystal_system       triclinic
_cell_length_a                    12.966842
_cell_length_b                    13.037224
_cell_length_c                    15.227148
_cell_angle_alpha                 117.073616
_cell_angle_beta                  63.55714
_cell_angle_gamma                 97.516459
_cell_volume                      2043.94611424

loop_
_atom_site_label
_atom_site_type_symbol
_atom_type_description
_atom_site_fract_x
_atom_site_fract_y
_atom_site_fract_z
_atom_type_partial_charge
C1    C     C_R   0.070445 0.818839 0.988180 -0.206081
C2    C     C_R   0.672135 0.542509 0.327181 0.054924
C3    C     C_R   0.637673 0.560749 0.020132 0.123811
C4    C     C_R   0.073294 0.797444 0.305225 0.045879
C5    C     C_R   0.324099 0.577657 0.008596 -0.108087
C6    C     C_R   0.980527 0.178615 0.780447 -0.121443
C7    C     C_R   0.197549 0.514118 0.696590 -0.103689
C8    C     C_R   0.046937 0.259170 0.094053 -0.114747
C9    C     C_R   0.942378 0.175647 0.002955 -0.123382
C10   C     C_R   0.296702 0.599654 0.794112 -0.122371
C11   C     C_R   0.244636 0.479220 0.106458 -0.152418
C12   C     C_R   0.679079 0.466168 0.224409 -0.129277
C13   C     C_R   0.063222 0.279355 0.684790 -0.101235
C14   C     C_R   0.337542 0.540551 0.074270 0.150909
C15   C     C_R   0.056889 0.168887 0.677131 0.030060
C16   C     C_R   0.290981 0.578713 0.699020 0.046172
C17   C     C_R   0.994791 0.158510 0.058091 0.056231
C18   C     C_R   0.166110 0.972981 0.381180 -0.163375
C19   C     C_R   0.164420 0.066134 0.474951 -0.161015
C20   C     C_R   0.106723 0.061732 0.575839 0.133279
C21   C     C_R   0.076447 0.955210 0.577309 -0.148218
C22   C     C_R   0.078616 0.861799 0.483455 -0.157384
C23   C     C_R   0.741364 0.584572 0.953031 -0.120292
C24   C     C_R   0.111809 0.874979 0.388173 0.129131
C25   C     C_R   0.574711 0.637478 0.528671 -0.161683
C26   C     C_R   0.477499 0.650846 0.622444 -0.179242
C27   C     C_R   0.372206 0.616625 0.617497 0.088148
C28   C     C_R   0.359940 0.597519 0.523566 0.040808
C29   C     C_R   0.459070 0.582266 0.428479 -0.230329
C30   C     C_R   0.567456 0.590940 0.429164 0.130786
C31   C     C_2   0.431270 0.564018 0.105258 -0.199247
C32   C     C_2   0.524689 0.605521 0.051131 -0.185108
C33   C     C_2   0.077814 0.901560 0.861688 -0.131250
C34   C     C_R   0.014759 0.700974 0.304339 -0.139645
C35   C     C_2   0.176667 0.951352 0.851513 -0.143530
C36   C     C_R   0.660517 0.474025 0.038461 -0.113062
C37   C     C_R   0.094501 0.801595 0.209425 -0.113357
C38   C     C_R   0.783450 0.558418 0.316791 -0.126040
C39   C     C_R   0.971679 0.733765 0.890551 0.414764
C40   C     C_R   0.032585 0.829031 0.920215 0.029764
H1    H     H_    0.135461 0.867105 0.012336 0.115675
H2    H     H_    0.952877 0.109773 0.804128 0.094682
H3    H     H_    0.160283 0.490489 0.640112 0.135591
H4    H     H_    0.086542 0.281226 0.148906 0.094398
H5    H     H_    0.882881 0.119944 0.975023 0.095974
H6    H     H_    0.347814 0.659719 0.831131 0.084929
H7    H     H_    0.221959 0.449599 0.168074 0.095294
H8    H     H_    0.112704 0.305232 0.620812 0.091809
H9    H     H_    0.199458 0.983264 0.307023 0.106956
H10   H     H_    0.196895 0.144662 0.469363 0.109203
H11   H     H_    0.039370 0.946488 0.652487 0.121536
H12   H     H_    0.608243 0.425491 0.207168 0.087222
H13   H     H_    0.043264 0.784451 0.489990 0.128168
H14   H     H_    0.656248 0.652458 0.533718 0.118970
H15   H     H_    0.490130 0.674710 0.694531 0.119950
H16   H     H_    0.451964 0.558257 0.353363 0.115958
H17   H     H_    0.433343 0.523285 0.152771 0.122864
H18   H     H_    0.521866 0.652194 0.008728 0.127122
H19   H     H_    0.032048 0.910600 0.820478 0.161167
H20   H     H_    0.229321 0.943693 0.887441 0.124213
H21   H     H_    0.752974 0.645159 0.920134 0.159989
H22   H     H_    0.998862 0.661360 0.357399 0.093565
H23   H     H_    0.599988 0.422307 0.072361 0.086033
H24   H     H_    0.150751 0.856319 0.175804 0.082538
H25   H     H_    0.811439 0.610321 0.379614 0.098696
H26   H     H_    0.371069 0.639629 0.980177 0.082236
N1    N     N_R   0.037310 0.720000 0.995790 -0.062853
N2    N     N_R   0.946240 0.290860 0.848040 -0.044881
N3    N     N_R   0.146140 0.501160 0.788590 -0.043351
N4    N     N_R   0.025760 0.332690 0.063610 -0.041351
N5    N     N_R   0.962690 0.280000 0.004210 -0.043291
N6    N     N_R   0.209210 0.553840 0.847990 -0.042962
N7    N     N_R   0.175110 0.482040 0.063580 -0.041230
N8    N     N_R   0.996790 0.351810 0.788620 -0.035549
N9    N     N_R   0.790790 0.446160 0.152010 -0.040873
N10   N     N_R   0.824890 0.517960 0.936420 -0.036612
N11   N     N_R   0.003210 0.648190 0.211380 -0.038969
N12   N     N_R   0.774330 0.457010 0.995840 -0.050067
N13   N     N_R   0.053760 0.709140 0.151960 -0.037395
N14   N     N_R   0.853860 0.498840 0.211410 -0.041082
N15   N     N_R   0.974240 0.667310 0.936390 -0.079977
N16   N     N_R   0.225670 0.542990 0.004160 -0.045766
Ni1   Ni    Ni4+2 0.130310 0.630310 0.999970 0.200655
Ni2   Ni    Ni4+2 0.869690 0.369690 0.000030 0.213927
Ni3   Ni    Ni4+2 0.985640 0.509470 0.863740 0.270711
Ni4   Ni    Ni4+2 0.014360 0.490530 0.136260 0.211134
C41   C     C_1   0.249576 0.592915 0.520886 0.053512
N17   N     N_1   0.161599 0.589617 0.517726 -0.049990
Cl1   Cl    Cl    0.946894 0.679949 0.773393 -0.747634

loop_
_geom_bond_atom_site_label_1
_geom_bond_atom_site_label_2
_ccdc_geom_bond_type
C41   N17   T    
N1    Ni1   S    
C11   H7    S    
C19   C20   A    
C32   H18   S    
C23   N10   A    
C2    C12   A    
C26   H15   S    
C9    H5    S    
C37   N13   A    
C26   C27   A    
C18   C24   A    
C28   C29   A    
N10   N12   A    
C34   N11   A    
C4    C24   S    
C11   C14   A    
N9    Ni2   S    
N2    N8    A    
C34   H22   S    
C18   C19   A    
N14   Ni4   S    
C1    C40   A    
C33   C35   D    
C6    C15   A    
C3    C23   A    
C4    C37   A    
C10   H6    S    
N4    N5    A    
C7    H3    S    
C36   H23   S    
N9    N14   A    
C14   C31   S    
C16   C27   S    
C6    N2    A    
C33   H19   S    
C21   C22   A    
C12   H12   S    
C22   H13   S    
N11   N13   A    
C15   C20   S    
C4    C34   A    
C33   C40   S    
N2    Ni2   S    
C9    N5    A    
C25   H14   S    
C39   N15   A    
C11   N7    A    
C39   C40   A    
C25   C26   A    
C35   H20   S    
N3    N6    A    
C29   C30   A    
C2    C38   A    
C31   C32   D    
C38   H25   S    
C28   C41   S    
C13   N8    A    
C5    C14   A    
C9    C17   A    
C7    C16   A    
N11   Ni4   S    
N1    N15   A    
C13   C15   A    
C22   C24   A    
N4    Ni4   S    
N7    N16   A    
C21   H11   S    
C37   H24   S    
N3    Ni3   S    
N5    Ni2   S    
C1    H1    S    
C25   C30   A    
C8    H4    S    
C5    H26   S    
C7    N3    A    
C13   H8    S    
C29   H16   S    
C8    N4    A    
C8    C17   A    
C2    C30   S    
C31   H17   S    
C36   N12   A    
N13   Ni1   S    
C5    N16   A    
C19   H10   S    
C38   N14   A    
C3    C36   A    
C1    N1    A    
N8    Ni3   S    
C3    C32   S    
N7    Ni4   S    
N6    Ni1   S    
N12   Ni2   S    
C23   H21   S    
C20   C21   A    
N16   Ni1   S    
C6    H2    S    
C12   N9    A    
C27   C28   A    
C10   C16   A    
N10   Ni3   S    
C39   Cl1   S    
N15   Ni3   S    
C18   H9    S    
C10   N6    A    
