data_mof_unit_46725.cif
_audit_creation_date              2012-12-11T17:35:15-0500
_audit_creation_method            fapswitch 2.2
_symmetry_space_group_name_H-M    P1
_symmetry_Int_Tables_number       1
_space_group_crystal_system       triclinic
_cell_length_a                    24.009403
_cell_length_b                    7.192121
_cell_length_c                    22.498408
_cell_angle_alpha                 89.672801
_cell_angle_beta                  99.540704
_cell_angle_gamma                 91.20851
_cell_volume                      3830.39334998

loop_
_atom_site_label
_atom_site_type_symbol
_atom_type_description
_atom_site_fract_x
_atom_site_fract_y
_atom_site_fract_z
_atom_type_partial_charge
O1    O     O_R   0.801940 0.607920 0.199180 -0.497473
O2    O     O_R   0.198060 0.392080 0.800820 -0.500854
O3    O     O_R   0.698060 0.107920 0.300820 -0.515136
O4    O     O_R   0.301940 0.892080 0.699180 -0.507787
O5    O     O_R   0.687840 0.274940 0.181980 -0.524825
O6    O     O_R   0.312160 0.725060 0.818020 -0.526921
O7    O     O_R   0.812160 0.774940 0.318020 -0.501517
O8    O     O_R   0.187840 0.225060 0.681980 -0.512631
C1    C     C_R   0.666916 0.446497 0.167682 0.704367
C2    C     C_R   0.332912 0.553768 0.832534 0.713055
C3    C     C_R   0.832231 0.948385 0.333211 0.712193
C4    C     C_R   0.167033 0.051817 0.667521 0.749969
O9    O     O_R   0.800890 0.278000 0.191820 -0.530923
O10   O     O_R   0.199110 0.722000 0.808180 -0.513085
O11   O     O_R   0.699110 0.778000 0.308180 -0.542502
O12   O     O_R   0.300890 0.222000 0.691820 -0.520286
O13   O     O_R   0.811910 0.110860 0.310720 -0.544140
O14   O     O_R   0.188090 0.889140 0.689280 -0.567136
O15   O     O_R   0.688090 0.610860 0.189280 -0.563960
O16   O     O_R   0.311910 0.389140 0.810720 -0.555760
C5    C     C_R   0.818072 0.448713 0.178560 0.797458
C6    C     C_R   0.180939 0.551158 0.820586 0.792812
C7    C     C_R   0.680542 0.945094 0.320619 0.747563
C8    C     C_R   0.318766 0.054899 0.678935 0.833191
O17   O     O_3   0.753490 0.442410 0.289000 -0.373123
O18   O     O_3   0.246510 0.557590 0.711000 -0.376058
O19   O     O_3   0.746510 0.942410 0.211000 -0.376160
O20   O     O_3   0.253490 0.057590 0.789000 -0.368291
V1    V     V_3+5 0.749350 0.166330 0.242770 1.601627
V2    V     V_3+5 0.250650 0.833670 0.757230 1.580280
V3    V     V_3+5 0.750650 0.666330 0.257230 1.615459
V4    V     V_3+5 0.249350 0.333670 0.742770 1.600458
C9    C     C_R   0.389825 0.179054 0.542712 0.386806
C10   C     C_R   0.562358 0.836301 0.416233 0.362616
C11   C     C_R   0.103237 0.656851 0.951837 0.401073
C12   C     C_R   0.892086 0.364217 0.042813 0.390979
C13   C     C_R   0.351477 0.172066 0.584623 0.052716
C14   C     C_R   0.611896 0.806605 0.390091 0.111367
C15   C     C_R   0.143064 0.662336 0.911677 0.064094
C16   C     C_R   0.849582 0.366864 0.079864 0.073985
C17   C     C_R   0.360329 0.052229 0.635503 -0.236357
C18   C     C_R   0.634374 0.957471 0.358936 -0.332873
C19   C     C_R   0.138535 0.535814 0.862862 -0.237987
C20   C     C_R   0.859775 0.463422 0.135941 -0.309828
C21   C     C_R   0.408266 0.935203 0.644114 0.378670
C22   C     C_R   0.608853 0.130696 0.362772 0.395519
C23   C     C_R   0.094582 0.395976 0.855921 0.287038
C24   C     C_R   0.910101 0.574292 0.150685 0.454325
C25   C     C_R   0.445151 0.937300 0.600557 0.081652
C26   C     C_R   0.582971 0.162072 0.413500 0.222531
C27   C     C_R   0.058097 0.382238 0.899466 0.087195
C28   C     C_R   0.950029 0.580694 0.111284 0.048571
C29   C     C_R   0.437004 0.061354 0.551318 -0.128083
C30   C     C_R   0.551497 0.016475 0.433831 -0.181758
C31   C     C_R   0.061354 0.513929 0.945779 -0.108304
C32   C     C_R   0.941781 0.474298 0.058171 -0.190260
C33   C     C_1   0.477859 0.059967 0.509756 0.257685
C34   C     C_1   0.511857 0.047411 0.475529 0.215684
C35   C     C_1   0.019758 0.500096 0.986249 0.257168
C36   C     C_1   0.984259 0.486476 0.018714 0.160628
C37   C     C_R   0.926332 0.099457 0.380014 0.228307
C38   C     C_R   0.071354 0.900879 0.622960 0.239622
C39   C     C_R   0.573285 0.597253 0.122662 0.207799
C40   C     C_R   0.427773 0.410955 0.876674 0.207352
C41   C     C_R   0.882038 0.966791 0.382559 -0.079611
C42   C     C_R   0.114344 0.039292 0.621266 -0.095914
C43   C     C_R   0.614745 0.458971 0.120904 -0.089066
C44   C     C_R   0.384939 0.543048 0.879536 -0.148729
C45   C     C_R   0.883371 0.858350 0.434381 -0.138364
C46   C     C_R   0.106712 0.171833 0.575349 -0.175225
C47   C     C_R   0.607814 0.336437 0.072217 -0.181239
C48   C     C_R   0.391023 0.663816 0.928673 -0.202606
C49   C     C_R   0.927699 0.876506 0.483804 0.072281
C50   C     C_R   0.059343 0.165624 0.529245 0.023778
C51   C     C_R   0.564299 0.358905 0.022456 0.036383
C52   C     C_R   0.435223 0.644737 0.978004 0.026864
C53   C     C_R   0.969913 0.016331 0.482941 -0.046569
C54   C     C_R   0.016094 0.029979 0.531336 -0.028639
C55   C     C_R   0.522083 0.491868 0.025083 -0.056782
C56   C     C_R   0.477852 0.513568 0.975193 -0.052182
C57   C     C_R   0.967079 0.138020 0.432670 -0.125677
C58   C     C_R   0.019730 0.905561 0.581066 -0.017817
C59   C     C_R   0.523707 0.600800 0.077887 -0.061546
C60   C     C_R   0.476959 0.407472 0.921920 -0.036270
C61   C     C_R   0.929447 0.760781 0.534967 0.072624
C62   C     C_R   0.053878 0.296852 0.481876 0.092445
C63   C     C_R   0.564150 0.257429 0.968828 0.043873
C64   C     C_R   0.436022 0.749402 0.031131 0.074880
C65   C     C_R   0.972252 0.785887 0.585438 0.416323
C66   C     C_R   0.006149 0.291428 0.436286 0.460399
C67   C     C_R   0.524443 0.295902 0.917049 0.411960
C68   C     C_R   0.476816 0.715902 0.082542 0.478903
H1    H     H_    0.849211 0.758448 0.435301 0.114066
H2    H     H_    0.139681 0.276351 0.574884 0.123155
H3    H     H_    0.639776 0.233119 0.071478 0.119845
H4    H     H_    0.358292 0.764172 0.929758 0.131897
S1    S     S_3+6 0.378090 0.339907 0.481142 0.089790
O21   O     O_2   0.418152 0.317057 0.437197 -0.236926
O22   O     O_2   0.318884 0.314310 0.447577 -0.319092
O23   O     O_3   0.386117 0.556654 0.509477 -0.483729
H5    H     H_    0.363567 0.636357 0.478869 0.390410
S2    S     S_3+6 0.514417 0.654818 0.427635 0.127804
O24   O     O_2   0.529726 0.578167 0.490282 -0.302451
O25   O     O_2   0.455346 0.727024 0.420176 -0.285061
O26   O     O_3   0.515080 0.488316 0.376439 -0.394264
H6    H     H_    0.499936 0.548952 0.337641 0.402232
S3    S     S_3+6 0.105339 0.823031 0.010951 -0.014600
O27   O     O_2   0.048078 0.907571 0.005429 -0.347254
O28   O     O_2   0.118038 0.722564 0.070224 -0.322571
O29   O     O_3   0.153261 0.996741 0.010493 -0.507944
H7    H     H_    0.145168 0.086063 0.041162 0.387656
S4    S     S_3+6 0.883867 0.223711 0.976688 0.096596
O30   O     O_2   0.832051 0.099544 0.969406 -0.276201
O31   O     O_2   0.880715 0.348239 0.922429 -0.266122
O32   O     O_3   0.940633 0.089273 0.980137 -0.447120
H8    H     H_    0.939567 0.008202 0.015685 0.350727
N1    N     N_3   0.301886 0.283988 0.575522 -0.627779
H9    H     H_    0.275387 0.242115 0.536115 0.265935
H10   H     H_    0.313518 0.424079 0.572643 0.294068
N2    N     N_3   0.641578 0.636952 0.403700 -0.517817
H11   H     H_    0.647736 0.626012 0.450662 0.226929
H12   H     H_    0.682976 0.648712 0.395950 0.218706
N3    N     N_3   0.190063 0.791184 0.920879 -0.613305
H13   H     H_    0.212493 0.775353 0.964503 0.277703
H14   H     H_    0.175252 0.926228 0.913571 0.311010
N4    N     N_3   0.795310 0.280720 0.057743 -0.552485
H15   H     H_    0.778782 0.349335 0.017792 0.265347
H16   H     H_    0.765569 0.302346 0.085676 0.195578
S5    S     S_3+6 0.421986 0.787131 0.708962 0.044580
O33   O     O_2   0.385331 0.614828 0.697565 -0.345325
O34   O     O_2   0.482650 0.730861 0.723203 -0.278656
O35   O     O_3   0.406406 0.897606 0.769510 -0.500127
H17   H     H_    0.423660 0.822578 0.804526 0.376464
S6    S     S_3+6 0.578888 0.241368 0.294427 0.093325
O36   O     O_2   0.598583 0.440860 0.295061 -0.330606
O37   O     O_2   0.594318 0.145944 0.240357 -0.321256
O38   O     O_3   0.508131 0.230440 0.288173 -0.436460
H18   H     H_    0.493881 0.293913 0.249632 0.409526
S7    S     S_3+6 0.084176 0.240521 0.792751 0.046546
O39   O     O_2   0.125521 0.085570 0.805093 -0.334462
O40   O     O_2   0.025588 0.157044 0.779809 -0.269651
O41   O     O_3   0.095306 0.354996 0.730608 -0.481575
H19   H     H_    0.075593 0.473105 0.732893 0.362250
S8    S     S_3+6 0.922423 0.716220 0.216482 0.060331
O42   O     O_2   0.888528 0.889357 0.203216 -0.381441
O43   O     O_2   0.902928 0.615015 0.267867 -0.268479
O44   O     O_3   0.990994 0.775736 0.238080 -0.434009
H20   H     H_    0.993773 0.910909 0.230091 0.362369
N5    N     N_3   0.491451 0.812166 0.604627 -0.563825
H21   H     H_    0.477029 0.675902 0.609960 0.321196
H22   H     H_    0.522682 0.851555 0.640596 0.299324
N6    N     N_3   0.603314 0.312881 0.452855 -0.531260
H23   H     H_    0.647220 0.301197 0.463225 0.183026
H24   H     H_    0.589644 0.297531 0.494353 0.258343
N7    N     N_3   0.016963 0.233924 0.898107 -0.498327
H25   H     H_    0.035998 0.106297 0.893968 0.312238
H26   H     H_    0.983837 0.255735 0.862558 0.327957
N8    N     N_3   0.999475 0.697618 0.125620 -0.542907
H27   H     H_    0.999505 0.796040 0.091380 0.280753
H28   H     H_    0.035200 0.615494 0.128265 0.298462
N9    N     N_3   0.935046 0.177323 0.323037 -0.503080
H29   H     H_    0.973695 0.128602 0.314567 0.246943
H30   H     H_    0.905502 0.129547 0.286998 0.259757
N10   N     N_3   0.081836 0.745775 0.662986 -0.586813
H31   H     H_    0.093705 0.793879 0.707136 0.280301
H32   H     H_    0.113882 0.666503 0.650255 0.224353
N11   N     N_3   0.583620 0.745952 0.165579 -0.526393
H33   H     H_    0.593858 0.692308 0.209168 0.300751
H34   H     H_    0.616243 0.832337 0.155229 0.235005
N12   N     N_3   0.419418 0.268753 0.831503 -0.535220
H35   H     H_    0.408748 0.328906 0.788825 0.295508
H36   H     H_    0.387362 0.177289 0.840263 0.236563
N13   N     N_3   0.888151 0.613948 0.536362 -0.570698
H37   H     H_    0.889581 0.523254 0.500506 0.255287
H38   H     H_    0.848035 0.671335 0.532081 0.229705
N14   N     N_3   0.096759 0.437609 0.479150 -0.556654
H39   H     H_    0.135023 0.373673 0.476741 0.241362
H40   H     H_    0.100996 0.519894 0.517885 0.242787
N15   N     N_3   0.605177 0.116924 0.965441 -0.560064
H41   H     H_    0.601638 0.015395 0.998139 0.232896
H42   H     H_    0.645654 0.177731 0.973568 0.252558
N16   N     N_3   0.395141 0.890745 0.033977 -0.555840
H43   H     H_    0.354686 0.829701 0.027320 0.261682
H44   H     H_    0.397996 0.989158 0.000158 0.225157
S9    S     S_3+6 0.959540 0.684925 0.654855 0.126214
O45   O     O_2   0.982671 0.492047 0.660010 -0.260826
O46   O     O_2   0.986506 0.798941 0.708121 -0.270998
O47   O     O_3   0.889830 0.669528 0.656701 -0.432760
H45   H     H_    0.877025 0.799811 0.654419 0.354346
S10   S     S_3+6 0.991029 0.495308 0.392002 0.086477
O48   O     O_2   0.011757 0.473862 0.332984 -0.253702
O49   O     O_2   0.928296 0.521436 0.381411 -0.309248
O50   O     O_3   0.022340 0.685447 0.426939 -0.494406
H46   H     H_    0.018939 0.783177 0.395416 0.372908
S11   S     S_3+6 0.542082 0.230307 0.846034 0.139762
O51   O     O_2   0.517725 0.039956 0.829536 -0.245967
O52   O     O_2   0.519504 0.366317 0.797421 -0.267160
O53   O     O_3   0.612562 0.223548 0.849650 -0.429359
H47   H     H_    0.626151 0.352952 0.858717 0.355575
S12   S     S_3+6 0.462300 0.797690 0.153253 0.102476
O54   O     O_2   0.483853 0.664267 0.203057 -0.310254
O55   O     O_2   0.490327 0.985240 0.166147 -0.274273
O56   O     O_3   0.392373 0.818057 0.151589 -0.457829
H48   H     H_    0.388781 0.874416 0.190814 0.397844

loop_
_geom_bond_atom_site_label_1
_geom_bond_atom_site_label_2
_ccdc_geom_bond_type
O17   V3    S    
C55   C59   A    
O56   H48   S    
C21   S5    S    
S10   O48   D    
C31   C35   S    
O19   V1    S    
O13   V1    S    
O1    C5    A    
O3    C7    A    
O44   H20   S    
C48   C52   A    
O15   V3    S    
S6    O38   S    
S4    O31   D    
S1    O21   D    
S9    O45   D    
N3    H13   S    
N11   H34   S    
C53   C54   A    
O7    C3    A    
C59   C68   A    
C27   N7    S    
C12   S4    S    
N4    H15   S    
C7    C18   S    
C13   C17   A    
C37   N9    S    
C40   C44   A    
O9    V1    S    
N10   H31   S    
C46   H2    S    
C14   C18   A    
C45   H1    S    
N1    H10   S    
C66   S10   S    
O4    C8    A    
S7    O41   S    
C25   C29   A    
N3    H14   S    
C47   H3    S    
N12   H35   S    
O32   H8    S    
O1    V3    S    
C15   N3    S    
C24   S8    S    
S2    O26   S    
O2    V4    S    
C18   C22   A    
O3    V1    S    
C49   C53   A    
N16   H43   S    
C40   C60   A    
N10   H32   S    
S10   O50   S    
N9    H30   S    
O29   H7    S    
C28   C32   A    
C1    O15   A    
C38   N10   S    
C64   C68   A    
C2    O16   A    
O35   H17   S    
C46   C50   A    
C61   N13   S    
S3    O27   D    
C45   C49   A    
O53   H47   S    
O14   V2    S    
C60   C67   A    
C21   C25   A    
O8    C4    A    
C52   C64   A    
C16   C20   A    
C62   N14   S    
C56   C60   A    
S5    O35   S    
C14   N2    S    
O11   C7    A    
C38   C58   A    
O38   H18   S    
C35   C36   T    
O12   C8    A    
N8    H28   S    
C8    C17   S    
S3    O28   D    
O10   V2    S    
S8    O44   S    
S4    O30   D    
S1    O22   D    
N2    H12   S    
N9    H29   S    
O5    V1    S    
N13   H38   S    
C9    C29   A    
C39   C43   A    
O7    V3    S    
C63   C67   A    
C38   C42   A    
C11   C31   A    
O8    V4    S    
C12   C16   A    
C11   S3    S    
C68   S12   S    
C28   N8    S    
S8    O43   D    
C62   C66   A    
N11   H33   S    
C61   C65   A    
O18   V4    S    
S12   O54   D    
S9    O47   S    
C23   C27   A    
C27   C31   A    
N13   H37   S    
C4    C42   S    
C9    C13   A    
C55   C56   A    
C39   C59   A    
O47   H45   S    
C3    C41   S    
C11   C15   A    
C1    C43   S    
O5    C1    A    
C12   C32   A    
C37   C41   A    
C22   S6    S    
C5    C20   S    
C67   S11   S    
C54   C58   A    
C64   N16   S    
C6    C19   S    
C53   C57   A    
C44   C48   A    
C16   N4    S    
C30   C34   S    
O9    C5    A    
C10   S2    S    
C50   C62   A    
S2    O25   D    
N7    H26   S    
C58   C65   A    
C49   C61   A    
C57   C66   A    
C51   C63   A    
N14   H39   S    
O6    V2    S    
N6    H24   S    
C10   C30   A    
N8    H27   S    
S3    O29   S    
C51   C55   A    
C4    O14   A    
S1    O23   S    
N2    H11   S    
S5    O33   D    
O16   V4    S    
C3    O13   A    
N4    H16   S    
C10   C14   A    
C65   S9    S    
S10   O49   D    
C52   C56   A    
S8    O42   D    
C29   C33   S    
O6    C2    A    
S6    O37   D    
S7    O39   D    
O11   V3    S    
S6    O36   D    
C2    C44   S    
N15   H41   S    
O12   V4    S    
O26   H6    S    
C22   C26   A    
C25   N5    S    
O2    C6    A    
N5    H22   S    
O20   V2    S    
C26   C30   A    
C37   C57   A    
N5    H21   S    
C47   C51   A    
S7    O40   D    
O10   C6    A    
C33   C34   T    
C42   C46   A    
N12   H36   S    
S12   O56   S    
C41   C45   A    
C39   N11   S    
O23   H5    S    
C13   N1    S    
C43   C47   A    
C40   N12   S    
S2    O24   D    
N16   H44   S    
S9    O46   D    
C63   N15   S    
S11   O51   D    
C48   H4    S    
S11   O53   S    
C26   N6    S    
S5    O34   D    
C24   C28   A    
C32   C36   S    
N6    H23   S    
C15   C19   A    
S12   O55   D    
O50   H46   S    
C50   C54   A    
C23   S7    S    
N7    H25   S    
C17   C21   A    
O41   H19   S    
C9    S1    S    
S11   O52   D    
N1    H9    S    
C19   C23   A    
S4    O32   S    
O4    V2    S    
C20   C24   A    
N14   H40   S    
N15   H42   S    
