data_mof_unit_23326.cif
_audit_creation_date              2012-12-10T20:39:52-0500
_audit_creation_method            fapswitch 2.2
_symmetry_space_group_name_H-M    P1
_symmetry_Int_Tables_number       1
_space_group_crystal_system       triclinic
_cell_length_a                    23.385467
_cell_length_b                    10.674058
_cell_length_c                    9.842759
_cell_angle_alpha                 90.153856
_cell_angle_beta                  89.882316
_cell_angle_gamma                 90.247906
_cell_volume                      2456.89117337

loop_
_atom_site_label
_atom_site_type_symbol
_atom_type_description
_atom_site_fract_x
_atom_site_fract_y
_atom_site_fract_z
_atom_type_partial_charge
C1    C     C_R   0.498810 0.260165 0.500125 0.864696
C2    C     C_R   0.971953 0.235605 0.536256 -0.132918
C3    C     C_R   0.031476 0.239155 0.540040 -0.142752
C4    C     C_R   0.061046 0.349273 0.505209 -0.021974
C5    C     C_R   0.030422 0.455980 0.464003 -0.012257
C6    C     C_R   0.059653 0.566955 0.428693 -0.022452
C7    C     C_R   0.028818 0.672714 0.387486 -0.144417
C8    C     C_R   0.969370 0.669143 0.383591 -0.134468
C9    C     C_R   0.120653 0.356436 0.512074 0.518549
C10   C     C_R   0.119216 0.569404 0.436876 0.519933
C11   C     C_R   0.242117 0.410575 0.391466 -0.079765
C12   C     C_R   0.389339 0.500471 0.500213 0.904056
C13   C     C_R   0.301133 0.421099 0.396720 -0.253208
C14   C     C_R   0.327245 0.492607 0.499317 -0.106256
C15   C     C_R   0.293481 0.553738 0.597994 0.234819
C16   C     C_R   0.234238 0.542575 0.591654 -0.117155
C17   C     C_R   0.208747 0.471610 0.488503 0.254586
C18   C     C_R   0.757241 0.436343 0.357266 0.507478
C19   C     C_R   0.698709 0.454618 0.370596 -0.308298
C20   C     C_R   0.673726 0.483433 0.497386 -0.246111
C21   C     C_R   0.709177 0.492000 0.614576 0.414159
C22   C     C_R   0.767996 0.476270 0.598823 -0.232735
C23   C     C_R   0.499528 0.739898 0.500078 0.930639
C24   C     C_R   0.791880 0.450435 0.472029 0.109312
C25   C     C_R   0.512842 0.064672 0.616665 0.042987
C26   C     C_R   0.493518 0.128511 0.502823 -0.049844
C27   C     C_R   0.467700 0.064083 0.394979 -0.191170
C28   C     C_R   0.468295 0.934451 0.394657 -0.186212
C29   C     C_R   0.495248 0.871683 0.501526 -0.044571
C30   C     C_R   0.515042 0.937055 0.614406 0.044248
C31   C     C_3   0.572599 0.935189 0.681279 0.100518
C32   C     C_3   0.568969 0.076968 0.687770 -0.442656
C33   C     C_R   0.481601 0.396982 0.071000 0.237141
C34   C     C_R   0.611068 0.497875 0.500142 0.976550
C35   C     C_R   0.522437 0.597610 0.072217 -0.102849
C36   C     C_R   0.522145 0.597897 0.928210 0.001307
C37   C     C_R   0.481797 0.396865 0.928217 0.228118
C38   C     C_3   0.423642 0.339747 0.921674 -0.486512
C39   C     C_3   0.423158 0.340664 0.075865 -0.519923
C40   C     C_R   0.880204 0.555490 0.422608 0.588736
C41   C     C_R   0.881290 0.342401 0.497474 0.593302
C42   C     C_R   0.941043 0.342078 0.497473 -0.035858
C43   C     C_R   0.970390 0.452318 0.459906 -0.018114
C44   C     C_R   0.939822 0.559722 0.420709 -0.041158
H1    H     H_    0.950285 0.149761 0.565008 0.200182
H2    H     H_    0.672490 0.445257 0.280598 0.233795
H3    H     H_    0.796341 0.485755 0.685097 0.200913
H4    H     H_    0.449292 0.113330 0.309768 0.152956
H5    H     H_    0.449917 0.883983 0.309520 0.166814
H6    H     H_    0.571704 0.889904 0.782773 0.142115
H7    H     H_    0.563778 0.113537 0.792930 0.198053
H8    H     H_    0.601647 0.127141 0.625932 0.237851
H9    H     H_    0.539709 0.677295 0.126678 0.164757
H10   H     H_    0.054160 0.155902 0.571504 0.198061
H11   H     H_    0.538749 0.678178 0.874177 0.167254
H12   H     H_    0.391471 0.403484 0.876224 0.247020
H13   H     H_    0.424537 0.243824 0.877465 0.209731
H14   H     H_    0.390917 0.405552 0.119655 0.226764
H15   H     H_    0.423178 0.245184 0.120308 0.199120
H16   H     H_    0.050444 0.758812 0.359444 0.198077
H17   H     H_    0.946693 0.752610 0.352752 0.203805
H18   H     H_    0.222190 0.356120 0.311394 0.158038
H19   H     H_    0.326464 0.372455 0.321108 0.164826
H20   H     H_    0.207744 0.590454 0.665565 0.174374
N1    N     N_R   0.852519 0.448093 0.460579 -0.336733
N2    N     N_R   0.148115 0.465540 0.479065 -0.354507
N3    N     N_R   0.499610 0.499140 0.142800 -0.117560
N4    N     N_R   0.499610 0.499180 0.857150 -0.106956
O1    O     O_R   0.500010 0.316790 0.614690 -0.623045
O2    O     O_2   0.852015 0.238768 0.534744 -0.499233
O3    O     O_2   0.151006 0.256040 0.552649 -0.537144
O4    O     O_2   0.148218 0.674415 0.402905 -0.533183
O5    O     O_R   0.500000 0.316760 0.385350 -0.624318
O6    O     O_R   0.416160 0.499980 0.614700 -0.592568
O7    O     O_R   0.416150 0.499940 0.385360 -0.629665
O8    O     O_R   0.500000 0.683240 0.614650 -0.614492
O9    O     O_R   0.499990 0.683210 0.385310 -0.629910
O10   O     O_R   0.583850 0.500060 0.614640 -0.527992
O11   O     O_R   0.583840 0.500020 0.385300 -0.618054
O12   O     O_2   0.849920 0.658244 0.389107 -0.486608
Zn1   Zn    Zn3+2 0.500000 0.500020 0.653130 1.032558
Zn2   Zn    Zn3+2 0.500000 0.499980 0.346870 0.976514
S1    S     S_3+6 0.683778 0.522226 0.781749 0.078098
O13   O     O_2   0.646660 0.415144 0.827959 -0.246209
O14   O     O_2   0.732770 0.535714 0.879453 -0.251917
O15   O     O_3   0.645386 0.654899 0.784446 -0.548552
H21   H     H_    0.673472 0.722537 0.802741 0.389158
Br1   Br    Br    0.633603 0.878917 0.560615 -0.435052
Br2   Br    Br    0.325020 0.659691 0.737368 -0.495279
S2    S     S_3+6 0.786265 0.397751 0.196379 0.089868
O16   O     O_2   0.831457 0.299135 0.211783 -0.283508
O17   O     O_2   0.740128 0.349299 0.103733 -0.220552
O18   O     O_3   0.815786 0.526970 0.128082 -0.485677
H22   H     H_    0.836135 0.497084 0.045880 0.390513

loop_
_geom_bond_atom_site_label_1
_geom_bond_atom_site_label_2
_ccdc_geom_bond_type
C27   H4    S    
O18   H22   S    
C12   O6    A    
C35   H9    S    
C41   C42   A    
O5    Zn2   S    
C19   C20   A    
C23   O8    A    
C11   H18   S    
C19   H2    S    
C7    C8    A    
C26   C27   A    
C33   C39   S    
S1    O13   D    
C18   C24   A    
N4    Zn1   S    
C23   C29   S    
C28   C29   A    
C37   C38   S    
C5    C6    A    
C3    H10   S    
C15   C16   A    
C37   N4    A    
C18   C19   A    
C9    N2    A    
C32   H8    S    
C21   S1    S    
C16   C17   A    
C40   O12   S    
C8    H17   S    
C20   C34   S    
C25   C32   S    
C22   H3    S    
C5    C43   A    
C21   C22   A    
C10   N2    A    
C2    H1    S    
C38   C39   S    
C18   S2    S    
C9    O3    S    
O15   H21   S    
C41   N1    A    
C25   C26   A    
C39   H14   S    
C1    O1    A    
C35   C36   A    
C43   C44   A    
C32   H7    S    
C29   C30   A    
C34   O11   A    
C15   Br2   S    
C38   H13   S    
C28   H5    S    
S2    O17   D    
C31   C32   S    
C13   H19   S    
C35   N3    A    
C39   H15   S    
C17   N2    S    
C23   O9    A    
C24   N1    S    
S1    O14   D    
C12   C14   S    
C40   N1    A    
C1    C26   S    
C22   C24   A    
C42   C43   A    
C31   H6    S    
C3    C4    A    
C7    H16   S    
C33   N3    A    
S2    O18   S    
C25   C30   A    
C11   C17   A    
C31   Br1   S    
C8    C44   A    
C4    C5    A    
O8    Zn1   S    
C6    C10   A    
O11   Zn2   S    
C36   N4    A    
O7    Zn2   S    
C6    C7    A    
C16   H20   S    
C1    O5    A    
C2    C3    A    
C36   H11   S    
C34   O10   A    
C11   C13   A    
O10   Zn1   S    
S2    O16   D    
C30   C31   S    
O9    Zn2   S    
C2    C42   A    
C33   C37   A    
O1    Zn1   S    
C40   C44   A    
S1    O15   S    
C38   H12   S    
C20   C21   A    
N3    Zn2   S    
C12   O7    A    
C27   C28   A    
C14   C15   A    
O6    Zn1   S    
C4    C9    A    
C13   C14   A    
C41   O2    S    
C10   O4    S    
