data_mof_unit_23263.cif
_audit_creation_date              2012-10-26T19:22:16-0400
_audit_creation_method            fapswitch 2.2
_symmetry_space_group_name_H-M    P1
_symmetry_Int_Tables_number       1
_space_group_crystal_system       triclinic
_cell_length_a                    11.78451
_cell_length_b                    12.96101
_cell_length_c                    13.858698
_cell_angle_alpha                 88.600094
_cell_angle_beta                  91.02332
_cell_angle_gamma                 99.136874
_cell_volume                      2089.07451064

loop_
_atom_site_label
_atom_site_type_symbol
_atom_type_description
_atom_site_fract_x
_atom_site_fract_y
_atom_site_fract_z
_atom_type_partial_charge
C1    C     C_R   0.479698 0.300173 0.504016 0.591397
C2    C     C_R   0.848090 0.458652 0.541657 0.401868
C3    C     C_R   0.030032 0.533262 0.465422 -0.062820
C4    C     C_R   0.970835 0.468361 0.536707 -0.061195
C5    C     C_R   0.518495 0.500324 0.681650 0.536625
C6    C     C_R   0.481506 0.499473 0.318329 0.563788
C7    C     C_1   0.470070 0.499122 0.215883 -0.034230
C8    C     C_1   0.529801 0.499864 0.784099 -0.058135
C9    C     C_2   0.451189 0.498152 0.024980 0.297730
C10   C     C_2   0.548197 0.498276 0.975000 0.297044
C11   C     C_1   0.539099 0.499185 0.870434 -0.028087
C12   C     C_R   0.520060 0.700218 0.497578 0.614056
C13   C     C_1   0.460522 0.498656 0.129552 -0.021948
C14   C     C_R   0.525247 0.812363 0.484405 -0.009233
C15   C     C_R   0.469252 0.187832 0.513668 -0.017966
C16   C     C_R   0.437632 0.033755 0.617465 0.274920
C17   C     C_R   0.509583 0.955655 0.372029 0.261124
C18   C     C_R   0.438769 0.140980 0.603339 0.220915
C19   C     C_R   0.534716 0.854470 0.390251 0.221778
C20   C     C_R   0.495312 0.129264 0.435747 0.076080
C21   C     C_R   0.498240 0.871437 0.561901 0.069504
C22   C     C_3   0.746763 0.498657 0.964714 -0.141508
C23   C     C_R   0.495386 0.020597 0.449856 -0.067094
C24   C     C_3   0.251847 0.492685 0.035191 -0.140616
C25   C     C_3   0.411783 0.760699 0.697066 -0.239603
C26   C     C_3   0.449527 0.218578 0.285794 -0.262438
C27   C     C_3   0.654282 0.837218 0.264914 -0.090815
C28   C     C_3   0.497968 0.225208 0.741747 -0.104777
C29   C     C_3   0.274136 0.966769 0.695623 -0.109108
C30   C     C_3   0.381058 0.940201 0.246710 -0.127140
C31   C     C_3   0.783438 0.284654 0.567421 -0.108447
C32   C     C_3   0.217948 0.714342 0.422845 -0.100155
C33   C     C_3   0.785264 0.584872 0.243225 -0.267434
C34   C     C_R   0.478421 0.975159 0.544349 -0.073257
C35   C     C_3   0.215435 0.380694 0.752074 -0.256847
C36   C     C_R   0.035383 0.413694 0.600143 -0.181185
C37   C     C_R   0.965489 0.585422 0.400406 -0.180222
C38   C     C_R   0.154829 0.418764 0.588766 0.218009
C39   C     C_R   0.845756 0.578248 0.409557 0.226571
C40   C     C_R   0.152289 0.542071 0.459252 0.400352
Cu1   Cu    Cu3+1 0.615220 0.507680 0.492970 1.037403
Cu2   Cu    Cu3+1 0.384780 0.492320 0.507030 1.022960
H1    H     H_    0.993920 0.366615 0.658839 0.135258
H2    H     H_    0.338390 0.747887 0.645179 0.144604
H3    H     H_    0.382559 0.792683 0.764197 0.158884
H4    H     H_    0.438664 0.684863 0.716199 0.152427
H5    H     H_    0.600512 0.154971 0.313753 0.284117
H6    H     H_    0.388716 0.151437 0.258286 0.165169
H7    H     H_    0.492041 0.263431 0.223503 0.136813
H8    H     H_    0.399909 0.270231 0.324234 0.142257
H9    H     H_    0.727058 0.866202 0.314685 0.086581
H10   H     H_    0.636211 0.900819 0.214946 0.171029
H11   H     H_    0.681834 0.777785 0.218723 0.124607
H12   H     H_    0.006349 0.629384 0.339727 0.133426
H13   H     H_    0.568813 0.279557 0.707136 0.132547
H14   H     H_    0.530385 0.154602 0.771319 0.142765
H15   H     H_    0.468139 0.265860 0.803663 0.132345
H16   H     H_    0.244936 0.915715 0.633559 0.089465
H17   H     H_    0.236778 0.040296 0.689548 0.151125
H18   H     H_    0.240131 0.924793 0.762308 0.121291
H19   H     H_    0.312811 0.954843 0.296905 0.089461
H20   H     H_    0.377718 0.854882 0.237284 0.164698
H21   H     H_    0.362214 0.974406 0.175191 0.127261
H22   H     H_    0.711095 0.231819 0.601194 0.123115
H23   H     H_    0.760493 0.571179 0.918982 0.126727
H24   H     H_    0.862304 0.251659 0.586113 0.083563
H25   H     H_    0.769089 0.281858 0.487696 0.133046
H26   H     H_    0.224587 0.722402 0.502661 0.099585
H27   H     H_    0.143557 0.749263 0.395235 0.075039
H28   H     H_    0.295385 0.761973 0.391469 0.146086
H29   H     H_    0.810093 0.708219 0.337191 0.219219
H30   H     H_    0.718703 0.613086 0.196671 0.178449
H31   H     H_    0.765584 0.498077 0.247077 0.178458
H32   H     H_    0.870222 0.608924 0.209081 0.095877
H33   H     H_    0.194018 0.278238 0.638415 0.250395
H34   H     H_    0.736131 0.427822 0.919619 0.128496
H35   H     H_    0.279204 0.340363 0.791402 0.180260
H36   H     H_    0.129464 0.353030 0.783143 0.095185
H37   H     H_    0.239152 0.466138 0.762960 0.176694
H38   H     H_    0.825055 0.498160 0.010265 0.129152
H39   H     H_    0.259279 0.562380 0.081545 0.136943
H40   H     H_    0.240970 0.419232 0.079660 0.119300
H41   H     H_    0.173296 0.491346 0.989614 0.128827
H42   H     H_    0.553904 0.881296 0.706625 0.277896
N1    N     N_R   0.788370 0.519230 0.482390 -0.199631
N2    N     N_R   0.211630 0.480770 0.517610 -0.203424
N3    N     N_2   0.508955 0.830836 0.657868 -0.501442
N4    N     N_2   0.535842 0.183342 0.348736 -0.489826
N5    N     N_2   0.784328 0.628472 0.338687 -0.445925
N6    N     N_2   0.216065 0.357142 0.650412 -0.430798
O1    O     O_R   0.581500 0.354430 0.495010 -0.486081
O2    O     O_3   0.347390 0.498993 0.974196 -0.608702
O3    O     O_3   0.555046 0.791014 0.315185 -0.558628
O4    O     O_3   0.404923 0.199616 0.676693 -0.562476
O5    O     O_3   0.395262 0.987234 0.703049 -0.557283
O6    O     O_3   0.491164 0.988172 0.277990 -0.578068
O7    O     O_3   0.787475 0.386279 0.604439 -0.551818
O8    O     O_3   0.212442 0.610005 0.392536 -0.536460
O9    O     O_R   0.418500 0.645570 0.504990 -0.497394
O10   O     O_R   0.386890 0.341450 0.506880 -0.479849
O11   O     O_R   0.613110 0.658550 0.493120 -0.474469
O12   O     O_R   0.611060 0.507430 0.631070 -0.467039
O13   O     O_R   0.388940 0.492570 0.368930 -0.466023
O14   O     O_R   0.416450 0.494450 0.642940 -0.482604
O15   O     O_R   0.583550 0.505550 0.357060 -0.466887
O16   O     O_3   0.651953 0.497145 0.025755 -0.611478

loop_
_geom_bond_atom_site_label_1
_geom_bond_atom_site_label_2
_ccdc_geom_bond_type
C15   C18   A    
C21   N3    S    
C31   H24   S    
Cu1   Cu2   S    
H42   N3    S    
C22   H34   S    
C31   H22   S    
Cu2   O13   S    
C4    C36   A    
C28   H14   S    
C28   H15   S    
C31   H25   S    
C17   C23   A    
Cu1   O15   S    
C38   N2    A    
C14   C21   A    
C24   H41   S    
C33   N5    S    
C26   H8    S    
C40   O8    S    
C25   N3    S    
Cu1   O12   S    
C9    O2    S    
C2    N1    A    
C28   O4    S    
C40   N2    A    
C9    C13   S    
C12   O9    A    
C30   O6    S    
H33   N6    S    
C33   H30   S    
C16   C34   A    
C29   H17   S    
C2    O7    S    
C32   O8    S    
C20   C23   A    
Cu2   N2    S    
C24   H40   S    
C9    C10   D    
C19   O3    S    
C26   H6    S    
C32   H26   S    
C5    O14   A    
C1    O1    A    
C30   H21   S    
C24   O2    S    
C1    O10   A    
C28   H13   S    
C27   H9    S    
C15   C20   A    
C26   H7    S    
C29   O5    S    
C32   H28   S    
C21   C34   A    
C22   O16   S    
C35   H35   S    
C2    C4    A    
C24   H39   S    
C22   H23   S    
Cu2   O10   S    
H29   N5    S    
C29   H18   S    
C23   C34   A    
C17   O6    S    
C6    O13   A    
C6    C7    S    
C1    C15   S    
C37   H12   S    
C33   H31   S    
Cu1   O1    S    
C12   C14   S    
C3    C40   A    
C30   H20   S    
C18   O4    S    
C10   O16   S    
C39   N1    A    
C3    C4    A    
C25   H3    S    
C27   H10   S    
C5    O12   A    
C16   O5    S    
C14   C19   A    
C16   C18   A    
Cu2   O14   S    
C5    C8    S    
C27   H11   S    
C32   H27   S    
Cu1   N1    S    
C38   N6    S    
C35   H36   S    
H5    N4    S    
C36   C38   A    
C22   H38   S    
C12   O11   A    
C37   C39   A    
Cu2   O9    S    
C8    C11   T    
C20   N4    S    
C35   H37   S    
C17   C19   A    
C6    O15   A    
Cu1   O11   S    
C31   O7    S    
C25   H2    S    
C27   O3    S    
C10   C11   S    
C35   N6    S    
C33   H32   S    
C7    C13   T    
C29   H16   S    
C3    C37   A    
C26   N4    S    
C30   H19   S    
C36   H1    S    
C25   H4    S    
C39   N5    S    
