data_mof_unit_47885.cif
_audit_creation_date              2012-12-11T15:20:03-0500
_audit_creation_method            fapswitch 2.2
_symmetry_space_group_name_H-M    P1
_symmetry_Int_Tables_number       1
_space_group_crystal_system       triclinic
_cell_length_a                    16.647288
_cell_length_b                    16.679253
_cell_length_c                    43.154107
_cell_angle_alpha                 90.046493
_cell_angle_beta                  89.926889
_cell_angle_gamma                 120.063082
_cell_volume                      10370.4136545

loop_
_atom_site_label
_atom_site_type_symbol
_atom_type_description
_atom_site_fract_x
_atom_site_fract_y
_atom_site_fract_z
_atom_type_partial_charge
C1    C     C_R   0.583619 0.425982 0.794422 0.542478
C2    C     C_R   0.841708 0.415424 0.705320 0.546834
C3    C     C_R   0.574128 0.157970 0.794597 0.539451
C4    C     C_R   0.584542 0.426133 0.705320 0.546021
C5    C     C_R   0.841368 0.415871 0.794812 0.541876
C6    C     C_R   0.573791 0.158317 0.705315 0.546436
C7    C     C_R   0.425323 0.584604 0.294877 0.544649
C8    C     C_R   0.416202 0.842090 0.205479 0.542823
C9    C     C_R   0.158922 0.574572 0.294847 0.544703
C10   C     C_R   0.425845 0.583835 0.205469 0.540471
C11   C     C_R   0.415672 0.841161 0.294851 0.545898
C12   C     C_R   0.158545 0.574224 0.205237 0.542929
C13   C     C_R   0.065435 0.479143 0.125726 -0.118170
C14   C     C_R   0.420360 0.947949 0.372512 -0.112210
C15   C     C_R   0.536046 0.545962 0.134739 -0.088690
C16   C     C_R   0.050045 0.472580 0.372291 -0.104621
C17   C     C_R   0.466328 0.998120 0.136014 -0.092506
C18   C     C_R   0.363393 0.496484 0.376450 -0.083970
C19   C     C_R   0.481173 0.078176 0.625033 -0.093908
C20   C     C_R   0.919920 0.413178 0.876616 -0.121675
C21   C     C_R   0.598307 0.517283 0.624815 -0.093156
C22   C     C_R   0.463048 0.011813 0.865853 -0.088243
C23   C     C_R   0.922098 0.402866 0.625004 -0.093704
C24   C     C_R   0.544028 0.533524 0.865544 -0.094129
C25   C     C_R   0.092618 0.483447 0.156512 -0.164813
C26   C     C_R   0.402152 0.924306 0.341231 -0.161343
C27   C     C_R   0.525151 0.568851 0.164968 -0.159911
C28   C     C_R   0.073322 0.477987 0.340964 -0.161244
C29   C     C_R   0.444998 0.964665 0.166393 -0.163790
C30   C     C_R   0.355339 0.510061 0.345078 -0.152508
C31   C     C_R   0.492723 0.114021 0.654783 -0.150221
C32   C     C_R   0.898338 0.389874 0.845437 -0.164943
C33   C     C_R   0.622402 0.505229 0.654502 -0.149237
C34   C     C_R   0.473778 0.045728 0.835616 -0.162084
C35   C     C_R   0.885355 0.378466 0.654664 -0.149591
C36   C     C_R   0.563788 0.522410 0.834868 -0.166932
C37   C     C_R   0.102484 0.632765 0.161970 -0.136429
C38   C     C_R   0.513748 0.871468 0.341744 -0.135611
C39   C     C_R   0.361195 0.506160 0.155447 -0.145411
C40   C     C_R   0.132830 0.643570 0.342196 -0.136257
C41   C     C_R   0.470157 0.838235 0.152564 -0.132107
C42   C     C_R   0.522248 0.582978 0.339075 -0.142653
C43   C     C_R   0.606202 0.067406 0.665765 -0.143123
C44   C     C_R   0.898345 0.533529 0.837171 -0.134855
C45   C     C_R   0.461190 0.395479 0.665956 -0.143220
C46   C     C_R   0.639003 0.140272 0.844068 -0.146810
C47   C     C_R   0.934954 0.538946 0.666035 -0.142792
C48   C     C_R   0.520021 0.363385 0.845921 -0.133192
C49   C     C_R   0.077394 0.629830 0.130808 0.178345
C50   C     C_R   0.532245 0.894934 0.373125 0.188958
C51   C     C_R   0.371858 0.486653 0.124714 0.172283
C52   C     C_R   0.109822 0.638683 0.373615 0.187054
C53   C     C_R   0.486635 0.868112 0.121717 0.178233
C54   C     C_R   0.530630 0.568238 0.370702 0.171645
C55   C     C_R   0.592159 0.027828 0.636047 0.187348
C56   C     C_R   0.918237 0.556344 0.868563 0.182078
C57   C     C_R   0.435906 0.410133 0.636288 0.187890
C58   C     C_R   0.628763 0.110043 0.874818 0.166694
C59   C     C_R   0.975463 0.564560 0.636414 0.188289
C60   C     C_R   0.505166 0.375297 0.876989 0.172418
C61   C     C_R   0.059385 0.552672 0.112582 0.269995
C62   C     C_R   0.483366 0.931167 0.388833 0.270680
C63   C     C_R   0.461017 0.508743 0.113800 0.247920
C64   C     C_R   0.070424 0.552871 0.388980 0.271261
C65   C     C_R   0.485642 0.949595 0.113255 0.251806
C66   C     C_R   0.450681 0.526941 0.389561 0.270016
C67   C     C_R   0.531202 0.035942 0.615182 0.257386
C68   C     C_R   0.927241 0.494826 0.888524 0.271709
C69   C     C_R   0.505586 0.469602 0.615252 0.257230
C70   C     C_R   0.539069 0.046725 0.886405 0.246237
C71   C     C_R   0.966261 0.495367 0.615385 0.256737
C72   C     C_R   0.517451 0.461359 0.887191 0.249693
C73   C     C_R   0.884675 0.448637 0.825584 -0.013066
C74   C     C_R   0.556599 0.110738 0.675230 -0.013960
C75   C     C_R   0.552350 0.437325 0.825022 -0.010649
C76   C     C_R   0.889694 0.445790 0.675260 -0.013741
C77   C     C_R   0.561665 0.111646 0.824741 -0.017882
C78   C     C_R   0.554515 0.443140 0.675178 -0.013375
C79   C     C_R   0.447165 0.883839 0.325726 -0.014196
C80   C     C_R   0.113371 0.561262 0.174761 -0.015826
C81   C     C_R   0.434827 0.555737 0.326271 -0.014622
C82   C     C_R   0.447068 0.884660 0.174790 -0.009593
C83   C     C_R   0.116887 0.563930 0.325805 -0.017290
C84   C     C_R   0.437904 0.550466 0.175296 -0.016789
C85   C     C_R   0.087522 0.595547 0.027612 0.040115
C86   C     C_R   0.580731 0.018811 0.467494 0.034801
C87   C     C_R   0.422469 0.417911 0.032992 0.033411
C88   C     C_R   0.984596 0.563687 0.467840 0.034045
C89   C     C_R   0.579787 0.998391 0.032964 0.027051
C90   C     C_R   0.437581 0.426196 0.467601 0.035165
C91   C     C_R   0.595743 0.041934 0.532262 0.035021
C92   C     C_R   0.049236 0.582718 0.963714 0.033841
C93   C     C_R   0.445127 0.408537 0.532270 0.034428
C94   C     C_R   0.580663 0.000008 0.967702 0.033222
C95   C     C_R   0.961797 0.555510 0.532620 0.034705
C96   C     C_R   0.425745 0.415701 0.967866 0.034280
C97   C     C_R   0.107281 0.599327 0.059307 0.421613
C98   C     C_R   0.572406 0.009479 0.435164 0.445934
C99   C     C_R   0.420972 0.419572 0.065427 0.454606
C100  C     C_R   0.993678 0.564844 0.435507 0.443136
C101  C     C_R   0.576504 0.992598 0.065405 0.440889
C102  C     C_R   0.435763 0.435440 0.435330 0.427882
C103  C     C_R   0.602527 0.056839 0.564362 0.448816
C104  C     C_R   0.031177 0.572198 0.931781 0.443754
C105  C     C_R   0.452770 0.400271 0.564317 0.448408
C106  C     C_R   0.579698 0.999274 0.935204 0.455297
C107  C     C_R   0.946863 0.547275 0.564722 0.448696
C108  C     C_R   0.428560 0.413810 0.935470 0.454909
C109  C     C_R   0.946733 0.493324 0.070568 0.437773
C110  C     C_R   0.415156 0.885429 0.440298 0.449470
C111  C     C_R   0.545462 0.577376 0.065491 0.413434
C112  C     C_R   0.114751 0.527300 0.440192 0.450258
C113  C     C_R   0.427763 0.983233 0.065751 0.414869
C114  C     C_R   0.479255 0.595274 0.441023 0.462324
C115  C     C_R   0.440409 0.945969 0.570533 0.409945
C116  C     C_R   0.869175 0.468819 0.941584 0.410765
C117  C     C_R   0.508463 0.562742 0.571145 0.408863
C118  C     C_R   0.456915 0.034914 0.935099 0.411273
C119  C     C_R   0.055807 0.493794 0.570621 0.409218
C120  C     C_R   0.579829 0.549838 0.935330 0.417727
C121  C     C_R   0.924160 0.483996 0.038563 0.020785
C122  C     C_R   0.417233 0.899522 0.472763 0.025014
C123  C     C_R   0.557929 0.573942 0.033063 0.024149
C124  C     C_R   0.101490 0.516326 0.472745 0.023671
C125  C     C_R   0.430913 0.994660 0.033078 0.023649
C126  C     C_R   0.489237 0.591140 0.473515 0.027030
C127  C     C_R   0.430547 0.927552 0.538159 0.018657
C128  C     C_R   0.884395 0.474804 0.974048 0.025408
C129  C     C_R   0.500744 0.574175 0.538851 0.018339
C130  C     C_R   0.445269 0.020401 0.967610 0.024740
C131  C     C_R   0.074253 0.502452 0.538228 0.018236
C132  C     C_R   0.575074 0.560307 0.967832 0.021894
C133  C     C_R   0.995552 0.537433 0.017101 -0.075644
C134  C     C_R   0.502256 0.964897 0.486429 -0.084368
C135  C     C_R   0.493262 0.494195 0.016766 -0.083679
C136  C     C_R   0.037506 0.537684 0.486602 -0.084674
C137  C     C_R   0.507274 0.000606 0.016742 -0.082721
C138  C     C_R   0.465822 0.504716 0.486822 -0.082730
C139  C     C_R   0.509375 0.977527 0.519011 -0.083269
C140  C     C_R   0.976083 0.531648 0.984953 -0.078531
C141  C     C_R   0.470327 0.496003 0.519365 -0.083379
C142  C     C_R   0.510993 0.007233 0.983994 -0.081925
C143  C     C_R   0.025111 0.532311 0.519208 -0.083278
C144  C     C_R   0.498270 0.490307 0.984111 -0.084135
C145  C     C_R   0.158409 0.647673 0.006224 -0.140459
C146  C     C_R   0.665737 0.081898 0.481169 -0.129174
C147  C     C_R   0.353023 0.342574 0.016484 -0.131537
C148  C     C_R   0.922761 0.587019 0.481683 -0.128947
C149  C     C_R   0.652388 0.998344 0.016372 -0.147380
C150  C     C_R   0.411988 0.340005 0.480958 -0.127984
C151  C     C_R   0.673352 0.092644 0.513093 -0.123270
C152  C     C_R   0.139563 0.641242 0.974732 -0.125611
C153  C     C_R   0.415232 0.331204 0.512822 -0.123200
C154  C     C_R   0.650787 0.995253 0.984182 -0.134037
C155  C     C_R   0.912129 0.583771 0.513608 -0.122867
C156  C     C_R   0.352518 0.343463 0.984324 -0.138831
C157  C     C_R   0.832822 0.423541 0.027530 0.136410
C158  C     C_R   0.337406 0.850048 0.491768 0.137562
C159  C     C_R   0.631989 0.647720 0.016506 0.136277
C160  C     C_R   0.150513 0.485488 0.491668 0.137856
C161  C     C_R   0.359310 0.998055 0.016240 0.140155
C162  C     C_R   0.520344 0.670074 0.492936 0.136787
C163  C     C_R   0.344238 0.863151 0.524335 0.131640
C164  C     C_R   0.811950 0.422799 0.995676 0.138390
C165  C     C_R   0.524525 0.661310 0.525471 0.133084
C166  C     C_R   0.370203 0.018259 0.984094 0.135204
C167  C     C_R   0.137971 0.479843 0.524270 0.132940
C168  C     C_R   0.644448 0.637738 0.984507 0.137813
Cr1   Cr    Cr6+3 0.530290 0.262330 0.750000 1.022050
Cr2   Cr    Cr6+3 0.732040 0.469710 0.750000 1.015240
Cr3   Cr    Cr6+3 0.737670 0.267960 0.750000 1.019130
Cr4   Cr    Cr6+3 0.262330 0.530290 0.250000 1.021330
Cr5   Cr    Cr6+3 0.469710 0.732040 0.250000 1.021118
Cr6   Cr    Cr6+3 0.267960 0.737670 0.250000 1.012955
H1    H     H_    0.888327 0.580125 0.822312 0.128771
H2    H     H_    0.654921 0.063562 0.681453 0.114842
H3    H     H_    0.513177 0.297932 0.838721 0.134481
H4    H     H_    0.939654 0.591598 0.681856 0.113480
H5    H     H_    0.707537 0.191185 0.835940 0.128817
H6    H     H_    0.408167 0.348089 0.681835 0.114207
H7    H     H_    0.547459 0.838016 0.330525 0.137560
H8    H     H_    0.117075 0.692831 0.175768 0.132099
H9    H     H_    0.583872 0.617130 0.324728 0.124214
H10   H     H_    0.469356 0.774828 0.158754 0.126222
H11   H     H_    0.168615 0.711011 0.331220 0.137828
H12   H     H_    0.293245 0.491681 0.163198 0.129180
H13   H     H_    0.196472 0.681596 0.958961 0.165791
H14   H     H_    0.740221 0.142318 0.522698 0.162358
H15   H     H_    0.295842 0.285884 0.972357 0.148269
H16   H     H_    0.863357 0.601993 0.523338 0.162682
H17   H     H_    0.706264 0.991912 0.972195 0.156206
H18   H     H_    0.395387 0.263490 0.522166 0.162279
H19   H     H_    0.726954 0.123342 0.467183 0.157729
H20   H     H_    0.229218 0.693043 0.013756 0.147144
H21   H     H_    0.389476 0.278812 0.466762 0.159705
H22   H     H_    0.709104 0.997331 0.028256 0.146926
H23   H     H_    0.882140 0.607921 0.467825 0.158354
H24   H     H_    0.296836 0.284210 0.028394 0.157399
H25   H     H_    0.100925 0.427533 0.165597 0.139601
H26   H     H_    0.349881 0.933777 0.329609 0.136628
H27   H     H_    0.584957 0.602096 0.180100 0.138409
H28   H     H_    0.060968 0.415721 0.329004 0.139032
H29   H     H_    0.426582 0.000849 0.183273 0.132207
H30   H     H_    0.287044 0.489257 0.335950 0.149980
H31   H     H_    0.454442 0.148228 0.661276 0.150223
H32   H     H_    0.887875 0.323880 0.837307 0.135642
H33   H     H_    0.695170 0.541847 0.660811 0.150385
H34   H     H_    0.413297 0.021666 0.820928 0.139281
H35   H     H_    0.849693 0.305835 0.660979 0.149955
H36   H     H_    0.588843 0.580239 0.818958 0.133611
H37   H     H_    0.051944 0.419828 0.111691 0.119822
H38   H     H_    0.382274 0.975524 0.384515 0.120726
H39   H     H_    0.604236 0.560996 0.127168 0.160887
H40   H     H_    0.019833 0.406383 0.384033 0.123929
H41   H     H_    0.465265 0.060547 0.129939 0.156761
H42   H     H_    0.301831 0.464707 0.390879 0.160701
H43   H     H_    0.435097 0.085860 0.609174 0.155336
H44   H     H_    0.927789 0.366056 0.891869 0.117664
H45   H     H_    0.652455 0.562169 0.608811 0.155552
H46   H     H_    0.394271 0.961031 0.873741 0.164240
H47   H     H_    0.913549 0.349043 0.609022 0.155733
H48   H     H_    0.552482 0.599523 0.872725 0.161788
N1    N     N_R   0.037146 0.549284 0.080221 -0.369391
N2    N     N_R   0.490631 0.942699 0.422038 -0.370618
N3    N     N_R   0.477289 0.500830 0.081185 -0.383765
N4    N     N_R   0.058977 0.548002 0.422180 -0.370880
N5    N     N_R   0.498593 0.979361 0.081200 -0.383431
N6    N     N_R   0.457498 0.519488 0.422554 -0.368212
N7    N     N_R   0.525411 0.009491 0.583009 -0.378634
N8    N     N_R   0.942595 0.513807 0.921224 -0.371087
N9    N     N_R   0.484807 0.476908 0.583237 -0.379863
N10   N     N_R   0.523656 0.024308 0.919260 -0.384385
N11   N     N_R   0.993146 0.516242 0.583235 -0.379350
N12   N     N_R   0.507562 0.476569 0.919727 -0.378273
O1    O     O_R   0.509640 0.171340 0.784000 -0.509873
O2    O     O_R   0.661700 0.490360 0.716000 -0.511915
O3    O     O_R   0.828660 0.338300 0.784000 -0.512222
O4    O     O_R   0.509640 0.171340 0.716000 -0.511189
O5    O     O_R   0.661700 0.490360 0.784000 -0.508847
O6    O     O_R   0.828660 0.338300 0.716000 -0.509463
O7    O     O_R   0.171340 0.509640 0.284000 -0.512551
O8    O     O_R   0.490360 0.661700 0.216000 -0.508235
O9    O     O_R   0.338300 0.828660 0.284000 -0.515814
O10   O     O_R   0.171340 0.509640 0.216000 -0.513049
O11   O     O_R   0.490360 0.661700 0.284000 -0.515807
O12   O     O_R   0.338300 0.828660 0.216000 -0.508602
O13   O     O_R   0.539230 0.345420 0.781810 -0.496948
O14   O     O_R   0.806190 0.460770 0.718190 -0.496763
O15   O     O_R   0.654580 0.193810 0.781810 -0.498826
O16   O     O_R   0.539230 0.345420 0.718190 -0.496081
O17   O     O_R   0.806190 0.460770 0.781810 -0.500472
O18   O     O_R   0.654580 0.193810 0.718190 -0.496069
O19   O     O_R   0.345420 0.539230 0.281810 -0.495437
O20   O     O_R   0.460770 0.806190 0.218190 -0.492424
O21   O     O_R   0.193810 0.654580 0.281810 -0.500398
O22   O     O_R   0.345420 0.539230 0.218190 -0.497349
O23   O     O_R   0.460770 0.806190 0.281810 -0.499899
O24   O     O_R   0.193810 0.654580 0.218190 -0.499183
O25   O     O_3   0.666667 0.333333 0.750000 -0.236326
O26   O     O_3   0.333333 0.666667 0.250000 -0.236905
O27   O     O_2   0.187174 0.646451 0.068380 -0.586388
O28   O     O_2   0.637700 0.061013 0.418607 -0.527568
O29   O     O_2   0.368914 0.349005 0.079724 -0.489571
O30   O     O_2   0.943160 0.580320 0.419110 -0.530532
O31   O     O_2   0.642025 0.997077 0.079693 -0.506052
O32   O     O_2   0.414306 0.368681 0.418507 -0.521874
O33   O     O_2   0.676660 0.114170 0.575720 -0.507204
O34   O     O_2   0.094412 0.613802 0.913256 -0.503188
O35   O     O_2   0.433483 0.325214 0.575375 -0.505324
O36   O     O_2   0.629260 0.977136 0.921040 -0.486096
O37   O     O_2   0.890386 0.565099 0.576197 -0.506438
O38   O     O_2   0.361074 0.355529 0.921147 -0.500944
O39   O     O_2   0.886195 0.452739 0.090000 -0.476067
O40   O     O_2   0.346946 0.821309 0.428177 -0.478919
O41   O     O_2   0.594497 0.648673 0.079815 -0.506266
O42   O     O_2   0.176634 0.519794 0.427752 -0.478136
O43   O     O_2   0.361566 0.975395 0.080508 -0.506894
O44   O     O_2   0.487892 0.665476 0.429072 -0.486532
O45   O     O_2   0.373485 0.906406 0.587754 -0.511008
O46   O     O_2   0.790843 0.423088 0.931235 -0.556367
O47   O     O_2   0.537258 0.629076 0.588630 -0.509071
O48   O     O_2   0.408592 0.058219 0.920880 -0.511715
O49   O     O_2   0.094487 0.465384 0.587719 -0.510466
O50   O     O_2   0.648423 0.605249 0.920871 -0.520904
N13   N     N_2   0.718492 0.366385 0.985356 -0.479572
H49   H     H_    0.684104 0.300374 0.994414 0.243718
C169  C     C_3   0.663631 0.411650 0.986146 -0.286307
H50   H     H_    0.591110 0.361909 0.979198 0.134191
H51   H     H_    0.692427 0.470537 0.969715 0.175953
H52   H     H_    0.662544 0.437522 0.009774 0.134933
N14   N     N_2   0.263103 0.813528 0.542973 -0.459136
H53   H     H_    0.203882 0.809450 0.533975 0.252443
C170  C     C_3   0.247922 0.725608 0.554450 -0.286641
H54   H     H_    0.179886 0.688928 0.566358 0.152683
H55   H     H_    0.302607 0.736300 0.571304 0.171973
H56   H     H_    0.247874 0.681610 0.535145 0.121053
N15   N     N_2   0.725047 0.707403 0.968959 -0.457913
H57   H     H_    0.742800 0.774577 0.974130 0.250552
C171  C     C_3   0.803787 0.692809 0.969538 -0.279642
H58   H     H_    0.862529 0.749276 0.956585 0.145605
H59   H     H_    0.785952 0.626174 0.958319 0.172092
H60   H     H_    0.826379 0.692348 0.993700 0.121883
N16   N     N_2   0.187881 0.448799 0.542845 -0.458598
H61   H     H_    0.191971 0.393713 0.533870 0.252845
C172  C     C_3   0.276008 0.521951 0.554214 -0.286814
H62   H     H_    0.312661 0.491026 0.566279 0.152798
H63   H     H_    0.265329 0.566314 0.570909 0.170513
H64   H     H_    0.320154 0.565422 0.534825 0.120971
N17   N     N_2   0.302900 0.031454 0.968040 -0.461688
H65   H     H_    0.234746 0.984016 0.973106 0.246247
C173  C     C_3   0.321777 0.126105 0.968015 -0.257062
H66   H     H_    0.271050 0.131574 0.952784 0.165876
H67   H     H_    0.392660 0.173825 0.959067 0.190756
H68   H     H_    0.315800 0.147946 0.991804 0.109492
N18   N     N_2   0.554242 0.740981 0.544618 -0.459082
H69   H     H_    0.609700 0.800992 0.536194 0.252768
C174  C     C_3   0.479899 0.754315 0.555807 -0.287222
H70   H     H_    0.509701 0.821341 0.568186 0.154207
H71   H     H_    0.435035 0.698303 0.572156 0.170419
H72   H     H_    0.437060 0.755152 0.536269 0.121328
N19   N     N_2   0.249584 0.787998 0.478077 -0.450874
H73   H     H_    0.208661 0.727771 0.490164 0.253298
C175  C     C_3   0.198457 0.831326 0.466924 -0.271809
H74   H     H_    0.133868 0.778552 0.455352 0.171631
H75   H     H_    0.240355 0.886532 0.449852 0.168105
H76   H     H_    0.179389 0.861950 0.486443 0.114727
N20   N     N_2   0.762212 0.361660 0.048382 -0.462664
H77   H     H_    0.697545 0.354220 0.045150 0.253597
C176  C     C_3   0.759067 0.274060 0.052817 -0.254939
H78   H     H_    0.706412 0.232900 0.070726 0.169121
H79   H     H_    0.827505 0.285601 0.060778 0.178444
H80   H     H_    0.739893 0.233717 0.030897 0.118977
N21   N     N_2   0.547641 0.758634 0.479721 -0.451240
H81   H     H_    0.526576 0.798443 0.491623 0.253277
C177  C     C_3   0.643527 0.810665 0.469800 -0.271911
H82   H     H_    0.655009 0.872872 0.456736 0.170989
H83   H     H_    0.660797 0.768023 0.454456 0.159821
H84   H     H_    0.690805 0.833417 0.490076 0.115129
N22   N     N_2   0.275417 0.979069 0.031443 -0.460942
H85   H     H_    0.249269 0.021206 0.025331 0.249537
C178  C     C_3   0.205309 0.881797 0.032075 -0.273190
H86   H     H_    0.144113 0.872423 0.045396 0.147121
H87   H     H_    0.232676 0.840629 0.043449 0.189160
H88   H     H_    0.182681 0.855220 0.008187 0.123460
N23   N     N_2   0.212041 0.459244 0.477874 -0.458472
H89   H     H_    0.272707 0.478924 0.489765 0.252013
C179  C     C_3   0.168028 0.364498 0.466942 -0.272469
H90   H     H_    0.219816 0.353203 0.454396 0.157236
H91   H     H_    0.110452 0.349891 0.450752 0.170939
H92   H     H_    0.140136 0.315369 0.486688 0.118243
N24   N     N_2   0.695237 0.731177 0.032178 -0.463389
H93   H     H_    0.764273 0.757464 0.026871 0.245843
C180  C     C_3   0.668168 0.801217 0.032289 -0.250306
H94   H     H_    0.716150 0.859613 0.047385 0.169542
H95   H     H_    0.596649 0.772647 0.041475 0.194084
H96   H     H_    0.671048 0.827749 0.008494 0.112112
N25   N     N_2   0.925789 0.639521 0.880209 -0.504214
H97   H     H_    0.963259 0.695510 0.865797 0.251869
C181  C     C_3   0.837746 0.630745 0.888812 -0.268723
H98   H     H_    0.849643 0.696911 0.899021 0.168500
H99   H     H_    0.801898 0.575042 0.906256 0.205022
H100  H     H_    0.792500 0.614699 0.868108 0.153768
N26   N     N_2   0.639517 0.980482 0.627059 -0.484250
H101  H     H_    0.705439 0.008766 0.636193 0.253761
C182  C     C_3   0.585987 0.881420 0.631797 -0.294207
H102  H     H_    0.622068 0.848026 0.620739 0.182120
H103  H     H_    0.515894 0.852203 0.621347 0.168119
H104  H     H_    0.578399 0.865436 0.656991 0.133591
N27   N     N_2   0.484032 0.302408 0.898297 -0.488704
H105  H     H_    0.438284 0.237555 0.889625 0.282168
C183  C     C_3   0.565326 0.305976 0.911498 -0.280102
H106  H     H_    0.544243 0.252713 0.929895 0.159230
H107  H     H_    0.611306 0.375116 0.921848 0.197250
H108  H     H_    0.603804 0.292250 0.893199 0.146034
N28   N     N_2   0.024597 0.659438 0.627661 -0.483469
H109  H     H_    0.998908 0.698411 0.637528 0.252758
C184  C     C_3   0.124080 0.702584 0.631260 -0.293297
H110  H     H_    0.158254 0.772501 0.620547 0.182239
H111  H     H_    0.150540 0.660764 0.619763 0.168450
H112  H     H_    0.142420 0.709654 0.656258 0.133774
N29   N     N_2   0.709112 0.145016 0.893878 -0.481421
H113  H     H_    0.768355 0.158202 0.882005 0.247880
C185  C     C_3   0.724718 0.221659 0.913427 -0.275995
H114  H     H_    0.786197 0.241627 0.928350 0.160838
H115  H     H_    0.664029 0.202390 0.928695 0.167539
H116  H     H_    0.738044 0.281556 0.898728 0.173918
N30   N     N_2   0.340878 0.365004 0.627556 -0.482984
H117  H     H_    0.301288 0.300434 0.637420 0.252831
C186  C     C_3   0.298604 0.421943 0.631212 -0.292568
H118  H     H_    0.228512 0.386583 0.620542 0.182822
H119  H     H_    0.341031 0.490102 0.619704 0.168709
H120  H     H_    0.291777 0.433428 0.656220 0.134117
N31   N     N_2   0.591261 0.871706 0.389820 -0.480253
H121  H     H_    0.565475 0.801261 0.390347 0.286056
C187  C     C_3   0.687719 0.921469 0.380486 -0.305151
H122  H     H_    0.729441 0.906750 0.397154 0.129974
H123  H     H_    0.714614 0.997294 0.380364 0.207185
H124  H     H_    0.696160 0.899060 0.357046 0.115877
N32   N     N_2   0.069210 0.703688 0.117805 -0.505984
H125  H     H_    0.017938 0.711475 0.128373 0.251839
C188  C     C_3   0.155596 0.790885 0.115497 -0.267588
H126  H     H_    0.143558 0.841656 0.102746 0.163911
H127  H     H_    0.208499 0.781932 0.102738 0.214945
H128  H     H_    0.182650 0.819361 0.138898 0.137299
N33   N     N_2   0.618584 0.592093 0.383360 -0.491735
H129  H     H_    0.650006 0.561284 0.371597 0.259788
C189  C     C_3   0.680933 0.690400 0.387275 -0.312735
H130  H     H_    0.745138 0.702009 0.399068 0.146973
H131  H     H_    0.648197 0.720920 0.401792 0.180492
H132  H     H_    0.700005 0.725871 0.364422 0.125288
N34   N     N_2   0.500981 0.814053 0.099173 -0.484308
H133  H     H_    0.528361 0.775474 0.108108 0.274867
C190  C     C_3   0.421750 0.759247 0.079481 -0.283491
H134  H     H_    0.438043 0.717835 0.063192 0.135997
H135  H     H_    0.404032 0.803984 0.065539 0.174100
H136  H     H_    0.360940 0.712045 0.093829 0.166257
N35   N     N_2   0.135840 0.721214 0.390579 -0.481636
H137  H     H_    0.206720 0.764815 0.390926 0.290472
C191  C     C_3   0.087935 0.769938 0.381708 -0.303792
H138  H     H_    0.109617 0.799989 0.358140 0.118567
H139  H     H_    0.105390 0.827191 0.398332 0.134633
H140  H     H_    0.011624 0.722625 0.382090 0.203391
N36   N     N_2   0.292578 0.445434 0.105044 -0.476177
H141  H     H_    0.232132 0.399351 0.116332 0.248896
C192  C     C_3   0.280259 0.509986 0.086237 -0.287374
H142  H     H_    0.220777 0.471179 0.070274 0.160085
H143  H     H_    0.343142 0.552882 0.072057 0.159459
H144  H     H_    0.264975 0.554708 0.101291 0.156846

loop_
_geom_bond_atom_site_label_1
_geom_bond_atom_site_label_2
_ccdc_geom_bond_type
C132  C144  A    
C154  H17   S    
N25   H97   S    
N34   C190  S    
C176  H79   S    
C192  H142  S    
N14   H53   S    
C44   H1    S    
C93   C141  A    
N16   C172  S    
N21   H81   S    
C6    O4    A    
C45   C57   A    
C38   H7    S    
C12   O24   A    
C164  N13   S    
C47   C76   A    
C118  O48   D    
C149  H22   S    
C33   C78   A    
C21   C33   A    
C60   C72   A    
Cr5   O11   S    
C189  H132  S    
C184  H112  S    
C59   N28   S    
C3    O1    A    
C110  O40   D    
C86   C134  A    
C100  O30   D    
C157  N20   S    
C169  H51   S    
C45   C78   A    
C19   H43   S    
C103  O33   D    
C97   O27   D    
C116  N8    Am   
N17   C173  S    
C96   C108  A    
C19   C31   A    
C190  H135  S    
C28   C83   A    
C40   C83   A    
Cr2   O14   S    
C107  N11   Am   
C152  H13   S    
C180  H95   S    
C151  H14   S    
C175  H74   S    
C111  N3    Am   
C191  H140  S    
C177  H83   S    
C58   C70   A    
C119  O49   D    
Cr3   O3    S    
C132  C168  A    
C97   N1    Am   
C174  H72   S    
C4    C78   S    
C25   H25   S    
C96   C144  A    
C162  C165  A    
C15   C27   A    
N16   H61   S    
C122  C158  A    
C50   N31   S    
C14   C26   A    
C166  N17   S    
C145  H20   S    
C11   C79   S    
C9    C83   S    
C101  O31   D    
Cr1   O4    S    
C186  H118  S    
C192  H144  S    
C8    C82   S    
C32   H32   S    
C185  H114  S    
C3    C77   S    
C32   C73   A    
C131  C143  A    
Cr6   O12   S    
N32   C188  S    
Cr4   O22   S    
C89   C101  A    
C46   H5    S    
C20   C68   A    
C18   H42   S    
C26   C79   A    
C91   C103  A    
C138  C141  A    
C46   C77   A    
N28   H109  S    
C112  C124  A    
C14   H38   S    
C47   H4    S    
N31   H121  S    
Cr3   O15   S    
C101  N5    Am   
C93   C153  A    
C29   C82   A    
N13   C169  S    
N33   H129  S    
C161  N22   S    
C109  C121  A    
C60   N27   S    
C165  N18   S    
C123  C159  A    
C41   C82   A    
C124  C160  A    
C85   C97   A    
C92   C104  A    
C47   C59   A    
C177  H82   S    
C67   N7    S    
C167  N16   S    
N19   H73   S    
C38   C79   A    
C21   C69   A    
C181  H98   S    
C147  H24   S    
C182  H102  S    
C110  C122  A    
C39   C51   A    
C137  C142  A    
C11   O9    A    
C191  H138  S    
C90   C150  A    
C9    O7    A    
C61   N1    S    
C188  H126  S    
C63   N3    S    
C96   C156  A    
C24   C36   A    
C11   O23   A    
C27   C84   A    
N14   C170  S    
C85   C145  A    
C39   C84   A    
C31   H31   S    
C136  C143  A    
Cr6   O26   S    
C114  C126  A    
C26   H26   S    
C113  N5    Am   
C158  N19   S    
N32   H125  S    
C14   C62   A    
C128  C164  A    
C65   N5    S    
C90   C102  A    
C130  C166  A    
C119  N11   Am   
C172  H63   S    
C98   N2    Am   
C186  H120  S    
C119  C131  A    
C41   H10   S    
C148  C155  A    
C62   N2    S    
C117  C129  A    
C109  N1    Am   
C156  H15   S    
C131  C167  A    
C46   C58   A    
N15   C171  S    
C9    O21   A    
C42   C81   A    
C49   N32   S    
N35   C191  S    
C68   N8    S    
C178  H87   S    
C22   C34   A    
C37   C80   A    
C108  N12   Am   
C35   C76   A    
C94   C142  A    
C116  O46   D    
C58   N29   S    
C181  H99   S    
C1    O13   A    
C182  H104  S    
C134  C139  A    
N20   C176  S    
C31   C74   A    
C56   C68   A    
C123  C135  A    
C175  H75   S    
C100  N4    Am   
C170  H54   S    
C36   C75   A    
C98   O28   D    
C183  H108  S    
C102  N6    Am   
C16   H40   S    
C157  C164  A    
C41   C53   A    
C158  C163  A    
C43   C55   A    
C7    C81   S    
C173  H67   S    
C188  H128  S    
C24   C72   A    
C186  H119  S    
C20   C32   A    
C33   H33   S    
Cr1   O1    S    
C27   H27   S    
C3    O15   A    
N30   C186  S    
Cr6   O24   S    
C54   C66   A    
C18   C66   A    
C7    O11   A    
C52   N35   S    
Cr3   O25   S    
C128  C140  A    
C185  H116  S    
C179  H92   S    
C54   N33   S    
C71   N11   S    
C5    C73   S    
C130  C142  A    
C171  H60   S    
C109  O39   D    
C150  H21   S    
C184  H111  S    
C145  C152  A    
C114  N6    Am   
C146  C151  A    
Cr4   O10   S    
C21   H45   S    
C66   N6    S    
C106  N10   Am   
C22   C70   A    
C55   N26   S    
N27   C183  S    
C103  N7    Am   
Cr2   O5    S    
C95   C143  A    
C190  H134  S    
C25   C80   A    
C17   C29   A    
C13   H37   S    
C110  N2    Am   
N19   C175  S    
C180  H94   S    
N36   C192  S    
C1    O5    A    
C87   C147  A    
C10   O22   A    
C191  H139  S    
C170  H56   S    
C69   N9    S    
C34   C77   A    
C187  H124  S    
C148  H23   S    
C129  C141  A    
Cr3   O6    S    
C183  H106  S    
N15   H57   S    
C174  H71   S    
C2    O14   A    
C45   H6    S    
C39   H12   S    
Cr5   O8    S    
C57   N30   S    
C94   C106  A    
C23   H47   S    
C150  C153  A    
N26   H101  S    
C19   C67   A    
Cr2   O25   S    
N23   C179  S    
C15   H39   S    
C89   C149  A    
C8    O12   A    
N18   H69   S    
N25   C181  S    
C192  H143  S    
C86   C146  A    
C4    O2    A    
C6    C74   S    
N21   C177  S    
C162  N21   S    
C105  O35   D    
Cr4   O19   S    
C49   C61   A    
C124  C136  A    
C107  O37   D    
C87   C135  A    
C108  O38   D    
C51   C63   A    
C88   C136  A    
C52   C64   A    
C179  H90   S    
C34   H34   S    
N17   H65   S    
C111  C123  A    
Cr3   O18   S    
C117  N9    Am   
Cr1   O16   S    
C149  C154  A    
N13   H49   S    
C118  C130  A    
C155  H16   S    
C23   C71   A    
C17   C65   A    
C37   C49   A    
C43   H2    S    
C5    O3    A    
C104  N8    Am   
N22   H85   S    
Cr5   O20   S    
C169  H52   S    
C146  H19   S    
C147  C156  A    
C88   C100  A    
C95   C107  A    
C91   C139  A    
C56   N25   S    
C190  H136  S    
C89   C137  A    
C92   C140  A    
C113  O43   D    
C180  H96   S    
C2    C76   S    
C115  O45   D    
C22   H46   S    
C127  C163  A    
C20   H44   S    
C125  C161  A    
C112  O42   D    
C177  H84   S    
C187  H122  S    
N24   C180  S    
C24   H48   S    
C160  N23   S    
C129  C165  A    
C28   H28   S    
C30   C81   A    
N33   C189  S    
N20   H77   S    
C42   C54   A    
C2    O6    A    
Cr2   O2    S    
C37   H8    S    
C117  O47   D    
C44   C73   A    
C86   C98   A    
C70   N10   S    
C120  O50   D    
C133  C140  A    
C172  H62   S    
N34   H133  S    
N29   C185  S    
C163  N14   S    
C85   C133  A    
C16   C28   A    
C173  H66   S    
C29   H29   S    
C176  H78   S    
C5    O17   A    
C10   O8    A    
C171  H58   S    
C64   N4    S    
N35   H137  S    
C178  H86   S    
Cr5   O23   S    
N31   C187  S    
C125  C137  A    
C159  N24   S    
C105  N9    Am   
C53   N34   S    
C182  H103  S    
C113  C125  A    
C115  C127  A    
C159  C168  A    
C160  C167  A    
C8    O20   A    
C44   C56   A    
C120  N12   Am   
C51   N36   S    
C122  C134  A    
C169  H50   S    
C118  N10   Am   
C183  H107  S    
C92   C152  A    
C189  H130  S    
C18   C30   A    
C111  O41   D    
C181  H100  S    
C161  C166  A    
C93   C105  A    
C43   C74   A    
C189  H131  S    
C121  C157  A    
C7    O19   A    
N26   C182  S    
C48   C75   A    
C13   C25   A    
C127  C139  A    
C48   H3    S    
C188  H127  S    
C48   C60   A    
C87   C99   A    
N28   C184  S    
C88   C148  A    
N18   C174  S    
C112  N4    Am   
C1    C75   S    
Cr5   O26   S    
N36   H141  S    
C40   H11   S    
C12   O10   A    
C40   C52   A    
C90   C138  A    
C185  H115  S    
C179  H91   S    
C94   C154  A    
C172  H64   S    
C99   O29   D    
C99   N3    Am   
Cr1   O13   S    
C171  H59   S    
C184  H110  S    
Cr6   O9    S    
C135  C144  A    
N22   C178  S    
Cr4   O7    S    
C106  O36   D    
C116  C128  A    
C50   C62   A    
C176  H80   S    
Cr4   O26   S    
C53   C65   A    
N27   H105  S    
C178  H88   S    
C126  C138  A    
C120  C132  A    
C104  O34   D    
C55   C67   A    
C38   C50   A    
C42   H9    S    
C30   H30   S    
C23   C35   A    
C6    O18   A    
C175  H76   S    
C57   C69   A    
C35   H35   S    
C4    O16   A    
C170  H55   S    
C17   H41   S    
C91   C151  A    
C187  H123  S    
N24   H93   S    
N29   H113  S    
C12   C80   S    
C10   C84   S    
C168  N15   S    
C72   N12   S    
Cr2   O17   S    
C95   C155  A    
C174  H70   S    
C115  N7    Am   
C114  O44   D    
Cr6   O21   S    
C13   C61   A    
C102  O32   D    
C173  H68   S    
C59   C71   A    
Cr1   O25   S    
C15   C63   A    
C16   C64   A    
C121  C133  A    
N23   H89   S    
C126  C162  A    
N30   H117  S    
C36   H36   S    
C153  H18   S    
