data_mof_unit_61169.cif
_audit_creation_date              2012-10-26T17:50:47-0400
_audit_creation_method            fapswitch 2.2
_symmetry_space_group_name_H-M    P1
_symmetry_Int_Tables_number       1
_space_group_crystal_system       triclinic
_cell_length_a                    18.267739
_cell_length_b                    19.274101
_cell_length_c                    18.410279
_cell_angle_alpha                 109.204084
_cell_angle_beta                  107.182759
_cell_angle_gamma                 109.136743
_cell_volume                      5158.7062241

loop_
_atom_site_label
_atom_site_type_symbol
_atom_type_description
_atom_site_fract_x
_atom_site_fract_y
_atom_site_fract_z
_atom_type_partial_charge
Br1   Br    Br    0.775470 0.686072 0.775155 -0.391548
Br2   Br    Br    0.230951 0.677802 0.539759 -0.350250
Br3   Br    Br    0.998636 0.420105 0.217152 -0.223065
Br4   Br    Br    0.262652 0.347248 0.941234 -0.339307
Br5   Br    Br    0.480581 0.682960 0.400135 -0.497412
Br6   Br    Br    0.499739 0.837341 0.571006 -0.321167
Br7   Br    Br    0.783136 0.999553 0.526872 -0.453720
Br8   Br    Br    0.989068 0.843764 0.667876 -0.334589
Br9   Br    Br    0.660160 0.510562 0.326477 -0.457563
Br10  Br    Br    0.867948 0.121539 0.946950 -0.209074
Br11  Br    Br    0.212070 0.496228 0.911400 -0.422005
Br12  Br    Br    0.209838 0.177067 0.159992 -0.254665
Br13  Br    Br    0.856647 0.391549 0.705023 -0.512068
Br14  Br    Br    0.088595 0.386030 0.550730 -0.259496
Br15  Br    Br    0.923565 0.218146 0.514102 -0.296957
Br16  Br    Br    0.839914 0.960990 0.781405 -0.335286
Br17  Br    Br    0.041434 0.292827 0.009129 -0.366798
Br18  Br    Br    0.190075 0.990782 0.413596 -0.444323
Br19  Br    Br    0.802085 0.593652 0.634477 -0.456210
Br20  Br    Br    0.644284 0.642927 0.154296 -0.417226
Br21  Br    Br    0.848414 0.492906 0.171038 -0.341192
Br22  Br    Br    0.547461 0.392335 0.718181 -0.491724
Br23  Br    Br    0.341440 0.496346 0.668378 -0.279403
Br24  Br    Br    0.415159 0.474256 0.842195 -0.332175
Br25  Br    Br    0.321391 0.142740 0.636945 -0.340844
Br26  Br    Br    0.081402 0.998472 0.146631 -0.272020
Br27  Br    Br    0.215515 0.334427 0.314136 -0.367751
Br28  Br    Br    0.458817 0.418930 0.101133 -0.313679
Br29  Br    Br    0.260535 0.507829 0.485033 -0.248468
C1    C     C_R   0.376158 0.383432 0.498163 0.577144
C2    C     C_R   0.297827 0.320090 0.570465 -0.028632
C3    C     C_R   0.188445 0.174336 0.487792 0.052475
C4    C     C_R   0.615834 0.496709 0.619101 0.637105
C5    C     C_R   0.179654 0.174388 0.407728 -0.013852
C6    C     C_R   0.237239 0.248266 0.412249 -0.026857
C7    C     C_R   0.297867 0.321023 0.493536 0.054800
C8    C     C_R   0.123938 0.102783 0.322835 0.108135
C9    C     C_R   0.142168 0.100833 0.253615 0.240968
C10   C     C_R   0.196048 0.174465 0.259075 0.200403
C11   C     C_R   0.230440 0.248471 0.333807 0.156457
C12   C     C_3   0.807059 0.500850 0.812524 0.072745
C13   C     C_R   0.254204 0.560942 0.413528 0.215462
C14   C     C_R   0.205481 0.603084 0.425478 0.157280
C15   C     C_R   0.127980 0.576330 0.354900 0.089038
C16   C     C_R   0.613696 0.616747 0.492001 0.600379
C17   C     C_R   0.109695 0.517867 0.274495 0.211771
C18   C     C_R   0.179431 0.510163 0.260235 -0.051228
C19   C     C_R   0.251488 0.525180 0.330331 -0.031140
C20   C     C_R   0.179806 0.492352 0.179753 0.026905
C21   C     C_R   0.243447 0.474061 0.163026 -0.026769
C22   C     C_R   0.315385 0.485499 0.230864 0.048461
C23   C     C_3   0.846284 0.570171 0.785723 -0.050651
C24   C     C_R   0.316692 0.505937 0.314038 0.080578
C25   C     C_R   0.233691 0.439883 0.077912 -0.061962
C26   C     C_R   0.292060 0.414972 0.059159 0.233493
C27   C     C_R   0.370092 0.438613 0.126363 0.221968
C28   C     C_R   0.382254 0.502299 0.380827 0.622496
C29   C     C_R   0.384484 0.478806 0.212288 0.103727
C30   C     C_R   0.589694 0.760144 0.497300 0.165851
C31   C     C_R   0.594615 0.835127 0.546511 0.267253
C32   C     C_R   0.663113 0.908402 0.567096 0.139060
C33   C     C_R   0.726318 0.904656 0.538859 0.116426
C34   C     C_3   0.735753 0.511832 0.843930 0.162390
C35   C     C_R   0.735549 0.829964 0.513621 -0.013197
C36   C     C_R   0.665212 0.756217 0.495871 -0.017323
C37   C     C_R   0.813453 0.826462 0.515642 -0.009325
C38   C     C_R   0.821722 0.755391 0.514317 -0.051480
C39   C     C_R   0.746035 0.678700 0.471297 -0.018848
C40   C     C_3   0.696170 0.412859 0.649510 0.167870
C41   C     C_R   0.670505 0.680332 0.476301 0.040606
C42   C     C_R   0.901965 0.756582 0.553544 0.228535
C43   C     C_R   0.908995 0.683474 0.523293 0.156486
C44   C     C_R   0.835602 0.609079 0.457305 0.109232
C45   C     C_R   0.338013 0.391626 0.653236 0.210749
C46   C     C_R   0.753111 0.605671 0.432005 0.185486
C47   C     C_R   0.008748 0.383405 0.887938 0.574657
C48   C     C_R   0.877697 0.503248 0.881672 0.636192
C49   C     C_R   0.999145 0.615894 0.120913 0.580248
C50   C     C_R   0.115845 0.497888 0.114960 0.541250
C51   C     C_R   0.999535 0.879620 0.382226 0.575118
C52   C     C_3   0.763964 0.413021 0.728789 0.184258
C53   C     C_R   0.119383 0.113836 0.494711 0.553003
C54   C     C_R   0.998558 0.118886 0.618229 0.596062
C55   C     C_R   0.880907 0.887508 0.507042 0.565025
C56   C     C_R   0.359067 0.382134 0.728178 0.182644
C57   C     C_R   0.123339 0.412203 0.795846 0.172533
C58   C     C_R   0.133676 0.425700 0.728059 0.110757
C59   C     C_R   0.081109 0.362539 0.643062 0.227771
C60   C     C_R   0.023906 0.283169 0.625644 0.142678
C61   C     C_R   0.024586 0.265256 0.694861 -0.055557
C62   C     C_R   0.059921 0.333311 0.777305 0.000658
C63   C     C_R   0.994143 0.183278 0.686010 0.055157
C64   C     C_3   0.772961 0.577523 0.724449 0.200568
C65   C     C_R   0.975324 0.168386 0.751513 0.015684
C66   C     C_R   0.990063 0.236815 0.825245 -0.036373
C67   C     C_R   0.344946 0.304609 0.721439 -0.049098
C68   C     C_R   0.026964 0.319435 0.834943 0.027880
C69   C     C_R   0.939165 0.087189 0.745571 0.076318
C70   C     C_R   0.901317 0.072727 0.798993 0.151930
C71   C     C_R   0.914725 0.139727 0.869569 0.222863
C72   C     C_R   0.969751 0.220086 0.888816 0.159150
C73   C     C_R   0.163075 0.739095 0.289763 0.082224
C74   C     C_R   0.237481 0.799975 0.368368 0.097725
C75   C     C_R   0.236437 0.870456 0.420172 0.180968
C76   C     C_3   0.655417 0.496840 0.763891 0.222996
C77   C     C_R   0.162318 0.879695 0.391595 0.185651
C78   C     C_R   0.298686 0.234380 0.641037 0.171827
C79   C     C_R   0.080321 0.810279 0.326894 -0.049547
C80   C     C_R   0.081727 0.740633 0.270437 0.009006
C81   C     C_R   0.998683 0.808757 0.317720 0.017827
C82   C     C_R   0.918250 0.734068 0.255755 -0.009635
C83   C     C_R   0.922245 0.664700 0.202110 -0.052470
C84   C     C_R   0.001857 0.674114 0.199437 0.034439
C85   C     C_R   0.833170 0.722535 0.246178 0.099154
C86   C     C_R   0.757839 0.651442 0.176299 0.162546
C87   C     C_R   0.764465 0.581961 0.131218 0.103519
C88   C     C_3   0.683210 0.495718 0.687747 0.068408
C89   C     C_R   0.261221 0.241312 0.565927 -0.025662
C90   C     C_R   0.845976 0.586142 0.154755 0.194537
Cu1   Cu    Cu3+1 0.500360 0.438220 0.438540 1.114502
Cu2   Cu    Cu3+1 0.499640 0.561780 0.561460 1.244040
Cu3   Cu    Cu3+1 0.935530 0.438290 0.997340 1.192897
Cu4   Cu    Cu3+1 0.059130 0.561800 0.997250 1.106459
Cu5   Cu    Cu3+1 0.937870 0.000030 0.437890 1.115471
Cu6   Cu    Cu3+1 0.062130 0.000000 0.562130 1.144126
H1    H     H_    0.371884 0.299200 0.778962 0.207585
H2    H     H_    0.053531 0.002477 0.333907 0.281847
H3    H     H_    0.998462 0.054566 0.303452 0.281868
H4    H     H_    0.569568 0.328156 0.548892 0.287686
H5    H     H_    0.624087 0.283244 0.584195 0.247233
H6    H     H_    0.089240 0.662980 0.393661 0.240146
H7    H     H_    0.045477 0.578830 0.407516 0.286599
H8    H     H_    0.490333 0.473032 0.275545 0.306953
H9    H     H_    0.511668 0.561971 0.267535 0.296552
H10   H     H_    0.825790 0.518168 0.354249 0.299919
H11   H     H_    0.805220 0.488924 0.426726 0.295593
H12   H     H_    0.177298 0.426697 0.024252 0.172766
H13   H     H_    0.714934 0.288473 0.702757 0.268122
H14   H     H_    0.661718 0.333747 0.741459 0.316590
H15   H     H_    0.724606 0.027414 0.663092 0.266519
H16   H     H_    0.651713 0.010228 0.567926 0.282787
H17   H     H_    0.009067 0.666641 0.510889 0.252981
H18   H     H_    0.983326 0.642541 0.583639 0.291927
H19   H     H_    0.256661 0.519109 0.784195 0.311146
H20   H     H_    0.179179 0.550330 0.776530 0.276538
H21   H     H_    0.885437 0.968004 0.656292 0.257778
H22   H     H_    0.988011 0.007279 0.729957 0.297505
H23   H     H_    0.877149 0.546619 0.747073 0.203711
H24   H     H_    0.649832 0.510516 0.022951 0.261828
H25   H     H_    0.653549 0.486127 0.103977 0.324565
H26   H     H_    0.201593 0.651141 0.264387 0.204694
H27   H     H_    0.213058 0.704899 0.209472 0.265000
H28   H     H_    0.336501 0.788587 0.345035 0.265402
H29   H     H_    0.304374 0.739950 0.400875 0.264778
H30   H     H_    0.365383 0.925668 0.510114 0.299190
H31   H     H_    0.298066 0.944249 0.548993 0.271910
H32   H     H_    0.786940 0.740074 0.333845 0.246615
H33   H     H_    0.783820 0.799701 0.283632 0.294848
H34   H     H_    0.793195 0.450396 0.609625 0.283402
H35   H     H_    0.664616 0.618856 0.818141 0.271294
H36   H     H_    0.601639 0.549753 0.836405 0.278296
H37   H     H_    0.650986 0.453729 0.884482 0.266105
H38   H     H_    0.749262 0.471808 0.937313 0.279067
H39   H     H_    0.715573 0.353311 0.544515 0.274770
H40   H     H_    0.739741 0.598223 0.951602 0.241600
H41   H     H_    0.784646 0.642227 0.901727 0.258378
H42   H     H_    0.945259 0.688021 0.831214 0.305803
H43   H     H_    0.903180 0.684118 0.900632 0.285830
N1    N     N_3   0.726786 0.412973 0.583441 -0.549541
N2    N     N_3   0.663488 0.985653 0.610361 -0.528443
N3    N     N_3   0.991133 0.685511 0.559948 -0.517003
N4    N     N_3   0.194142 0.505287 0.744292 -0.495032
N5    N     N_3   0.945914 0.020221 0.690689 -0.548203
N6    N     N_3   0.688557 0.503251 0.071485 -0.550392
N7    N     N_3   0.171481 0.676146 0.231213 -0.583238
N8    N     N_3   0.316152 0.793209 0.393057 -0.581867
N9    N     N_3   0.312811 0.938065 0.497224 -0.494297
N10   N     N_3   0.821070 0.775588 0.311139 -0.561798
N11   N     N_3   0.622259 0.556447 0.790657 -0.529366
N12   N     N_3   0.777627 0.595426 0.918855 -0.648546
N13   N     N_3   0.703962 0.451675 0.874820 -0.534732
N14   N     N_3   0.919263 0.650740 0.856794 -0.556420
N15   N     N_3   0.044382 0.034400 0.299658 -0.543921
N16   N     N_3   0.613269 0.334718 0.605120 -0.558993
N17   N     N_3   0.062654 0.598163 0.365486 -0.549318
N18   N     N_3   0.471097 0.518864 0.279225 -0.555375
N19   N     N_3   0.845485 0.536768 0.419901 -0.583688
N20   N     N_3   0.722962 0.344545 0.746586 -0.514839
O1    O     O_R   0.410140 0.357660 0.448100 -0.518319
O2    O     O_R   0.052970 0.909860 0.462770 -0.487958
O3    O     O_R   0.037700 0.090200 0.447550 -0.527489
O4    O     O_R   0.409530 0.462000 0.551910 -0.448126
O5    O     O_R   0.142640 0.090170 0.552470 -0.455939
O6    O     O_R   0.947030 0.090160 0.537260 -0.427301
O7    O     O_R   0.051970 0.090130 0.642170 -0.479657
O8    O     O_R   0.857360 0.909860 0.447560 -0.460502
O9    O     O_R   0.962300 0.909830 0.552480 -0.476264
O10   O     O_R   0.590960 0.447830 0.538760 -0.492798
O11   O     O_R   0.590350 0.552170 0.642570 -0.448380
O12   O     O_R   0.049980 0.462000 0.907580 -0.471263
O13   O     O_R   0.590470 0.538000 0.448090 -0.472815
O14   O     O_R   0.589860 0.642340 0.551900 -0.473110
O15   O     O_R   0.409650 0.447830 0.357430 -0.488077
O16   O     O_R   0.409040 0.552170 0.461240 -0.467467
O17   O     O_R   0.945600 0.357690 0.907660 -0.477294
O18   O     O_R   0.854480 0.447890 0.906670 -0.475596
O19   O     O_R   0.958860 0.552200 0.906600 -0.467031
O20   O     O_R   0.944670 0.538090 0.087010 -0.486111
O21   O     O_R   0.049050 0.642400 0.086940 -0.487234
O22   O     O_R   0.035800 0.447890 0.088000 -0.438438
O23   O     O_R   0.140170 0.552200 0.087920 -0.510956
O24   O     O_R   0.948030 0.909890 0.357850 -0.503460

loop_
_geom_bond_atom_site_label_1
_geom_bond_atom_site_label_2
_ccdc_geom_bond_type
C50   O22   A    
C58   C59   A    
C4    C88   S    
C34   N13   S    
Br17  C72   S    
C53   O3    A    
C29   N18   S    
C5    C8    A    
H2    N15   S    
Cu3   O18   S    
C82   C83   A    
C12   C23   S    
C26   C27   A    
Cu2   O4    S    
C75   C77   A    
C85   C86   A    
Br28  C27   S    
C18   C20   A    
C47   O17   A    
C39   C46   A    
C50   O23   A    
C54   C63   S    
H28   N8    S    
C21   C25   A    
C23   N14   S    
Cu2   O14   S    
C5    C6    A    
C57   C62   A    
C48   O19   A    
C12   C48   S    
C9    C10   A    
Br29  C13   S    
C56   C67   A    
H42   N14   S    
H38   N13   S    
C65   C69   A    
Br11  C57   S    
Br20  C86   S    
C36   C41   A    
C8    N15   S    
H21   N5    S    
Br13  C52   S    
C79   C80   A    
H24   N6    S    
C1    O1    A    
H9    N18   S    
C81   C82   A    
Cu2   O11   S    
C53   O5    A    
C33   C35   A    
C3    C5    A    
C17   C18   A    
H27   N7    S    
C75   N9    S    
C70   C71   A    
C27   C29   A    
C16   O14   A    
C85   N10   S    
Cu4   O23   S    
Br7   C33   S    
Cu1   O10   S    
Cu3   O22   S    
C54   O6    A    
Cu6   O2    S    
C1    O4    A    
H36   N11   S    
H34   N1    S    
Br24  C56   S    
Br2   C14   S    
C52   N20   S    
C32   C33   A    
Br19  C64   S    
C80   C84   A    
C15   N17   S    
C51   O24   A    
C39   C41   A    
C37   C38   A    
H20   N4    S    
Cu6   O9    S    
C30   C31   A    
C23   H23   S    
C54   O7    A    
Cu1   O13   S    
C44   C46   A    
Cu3   O17   S    
C76   C88   S    
H39   N1    S    
C65   C66   A    
H3    N15   S    
C64   C88   S    
C76   N11   S    
C1    C7    S    
H10   N19   S    
C83   C84   A    
C44   N19   S    
C15   C17   A    
C19   C24   A    
H26   N7    S    
Br5   C30   S    
C67   H1    S    
C38   C39   A    
C43   N3    S    
Br6   C31   S    
Cu4   O12   S    
H37   N13   S    
C47   O12   A    
C10   C11   A    
C69   N5    S    
C24   C28   S    
C57   C58   A    
Br26  C9    S    
C2    C45   A    
C13   C19   A    
Cu5   O24   S    
C47   C68   S    
C37   C55   S    
H11   N19   S    
C34   N12   S    
C20   C50   S    
C31   C32   A    
C22   C24   A    
C6    C7    A    
C35   C37   A    
H13   N20   S    
C14   C15   A    
Br18  C77   S    
H35   N11   S    
C8    C9    A    
Cu3   O20   S    
Br15  C60   S    
H31   N9    S    
C61   C63   A    
C18   C19   A    
Cu6   O5    S    
Br27  C11   S    
C12   C52   S    
C28   O15   A    
C63   C65   A    
C21   C22   A    
Cu4   O19   S    
C23   C64   S    
C22   C29   A    
C40   N1    S    
C62   C68   A    
Br10  C71   S    
C49   O21   A    
H8    N18   S    
H6    N17   S    
C16   O13   A    
H25   N6    S    
C67   C78   A    
C20   C21   A    
H43   N14   S    
C40   N16   S    
Br4   C26   S    
C49   C84   S    
H41   N12   S    
C13   C14   A    
C12   C34   S    
Br23  C45   S    
C51   C81   S    
H14   N20   S    
H22   N5    S    
C74   N8    S    
Cu1   Cu2   S    
Br25  C78   S    
H40   N12   S    
C25   C26   A    
Br8   C42   S    
H15   N2    S    
C78   C89   A    
C16   C41   S    
C51   O2    A    
H4    N16   S    
Cu2   O16   S    
C3    C89   A    
C43   C44   A    
H7    N17   S    
C83   C90   A    
C66   C68   A    
Br16  C70   S    
H29   N8    S    
C55   O9    A    
Br22  C76   S    
C3    C53   S    
H19   N4    S    
C2    C89   A    
C87   C90   A    
C87   N6    S    
C35   C36   A    
Br12  C10   S    
C6    C11   A    
C73   N7    S    
H18   N3    S    
C42   C43   A    
Br21  C90   S    
H5    N16   S    
Cu1   O1    S    
C30   C36   A    
C61   C62   A    
C77   C79   A    
C4    O10   A    
C55   O8    A    
C58   N4    S    
Cu4   O21   S    
C28   O16   A    
C40   C88   S    
C71   C72   A    
C79   C81   A    
C82   C85   A    
C38   C42   A    
H32   N10   S    
C45   C56   A    
H33   N10   S    
C73   C74   A    
Cu5   O8    S    
C49   O20   A    
C40   C52   S    
C34   C76   S    
Br3   C17   S    
Br14  C59   S    
C25   H12   S    
H30   N9    S    
C59   C60   A    
C4    O11   A    
Br1   C64   S    
C69   C70   A    
Cu5   O6    S    
C74   C75   A    
Cu3   Cu4   S    
Cu1   O15   S    
Cu6   O7    S    
C2    C7    A    
Cu5   Cu6   S    
C73   C80   A    
C32   N2    S    
Br9   C46   S    
C86   C87   A    
C60   C61   A    
C48   O18   A    
Cu5   O3    S    
C66   C72   A    
H16   N2    S    
H17   N3    S    
