data_mof_unit_58102.cif
_audit_creation_date              2012-10-26T18:27:29-0400
_audit_creation_method            fapswitch 2.2
_symmetry_space_group_name_H-M    P1
_symmetry_Int_Tables_number       1
_space_group_crystal_system       triclinic
_cell_length_a                    10.990834
_cell_length_b                    11.090135
_cell_length_c                    9.850338
_cell_angle_alpha                 108.191074
_cell_angle_beta                  98.613776
_cell_angle_gamma                 91.47257
_cell_volume                      1124.42178425

loop_
_atom_site_label
_atom_site_type_symbol
_atom_type_description
_atom_site_fract_x
_atom_site_fract_y
_atom_site_fract_z
_atom_type_partial_charge
C1    C     C_R   0.493277 0.255519 0.446009 0.589841
C2    C     C_2   0.549876 0.945996 0.521527 0.073216
C3    C     C_2   0.485111 0.524833 0.076234 0.260858
C4    C     C_R   0.262882 0.502939 0.501485 0.579658
C5    C     C_2   0.482984 0.493942 0.917247 0.136351
C6    C     C_R   0.504977 0.743188 0.555203 0.549682
C7    C     C_R   0.737353 0.501512 0.498877 0.548859
C8    C     C_R   0.142528 0.393517 0.689866 0.112514
C9    C     C_R   0.090305 0.375770 0.804161 0.165808
C10   C     C_R   0.961383 0.358362 0.785347 0.140554
C11   C     C_R   0.893232 0.370387 0.658987 0.119128
C12   C     C_R   0.074721 0.451092 0.596181 -0.045503
C13   C     C_R   0.945661 0.445933 0.588525 -0.027006
C14   C     C_R   0.129281 0.503718 0.503354 -0.008964
C15   C     C_R   0.054590 0.559132 0.412535 0.139954
C16   C     C_R   0.926703 0.555814 0.407963 0.091285
C17   C     C_R   0.871242 0.499145 0.496020 0.001187
C18   C     C_2   0.496346 0.119881 0.430605 -0.049604
C19   C     C_2   0.527347 0.078187 0.546260 0.171894
C20   C     C_2   0.483919 0.874864 0.577434 0.110671
Cu1   Cu    Cu3+1 0.521920 0.521810 0.644910 1.079155
Cu2   Cu    Cu3+1 0.478080 0.478190 0.355090 0.974822
H1    H     H_    0.478287 0.051757 0.321800 0.110904
H2    H     H_    0.831460 0.369714 0.912680 0.270015
H3    H     H_    0.802512 0.680041 0.374900 0.232069
H4    H     H_    0.797610 0.542427 0.232841 0.268331
H5    H     H_    0.634289 0.855421 0.352697 0.252775
H6    H     H_    0.706432 0.848291 0.516937 0.237242
H7    H     H_    0.409573 0.427738 0.844696 0.161076
H8    H     H_    0.598309 0.651947 0.237878 0.257872
H9    H     H_    0.448790 0.698677 0.200269 0.266778
H10   H     H_    0.502235 0.272895 0.075428 0.281748
H11   H     H_    0.350899 0.279258 0.081896 0.283766
H12   H     H_    0.215250 0.441314 0.984502 0.242048
H13   H     H_    0.117761 0.326367 0.990978 0.281902
H14   H     H_    0.865200 0.219324 0.826518 0.286629
I1    I     I_    0.129889 0.661136 0.287169 -0.241263
I2    I     I_    0.722584 0.655702 0.972368 -0.196327
I3    I     I_    0.235062 0.234199 0.590437 -0.240643
I4    I     I_    0.807670 0.197906 0.509869 -0.267915
I5    I     I_    0.583387 0.187463 0.770756 -0.302801
I6    I     I_    0.328623 0.933784 0.680754 -0.203472
N1    N     N_2   0.445130 0.445430 0.137370 -0.188245
N2    N     N_2   0.554930 0.554500 0.862630 -0.148495
N3    N     N_3   0.523798 0.653058 0.159535 -0.594943
N4    N     N_3   0.424491 0.318944 0.050063 -0.500284
N5    N     N_3   0.168722 0.353569 0.922599 -0.567825
N6    N     N_3   0.902922 0.312195 0.881867 -0.599294
N7    N     N_3   0.855153 0.613312 0.314342 -0.555799
N8    N     N_3   0.659243 0.904801 0.462555 -0.587509
O1    O     O_R   0.511700 0.332330 0.577400 -0.469151
O2    O     O_R   0.474680 0.295500 0.332650 -0.507559
O3    O     O_R   0.338160 0.518420 0.622400 -0.509921
O4    O     O_R   0.301140 0.481590 0.377650 -0.473058
O5    O     O_R   0.525320 0.704500 0.667350 -0.457307
O6    O     O_R   0.488300 0.667670 0.422600 -0.543985
O7    O     O_R   0.698860 0.518410 0.622350 -0.469148
O8    O     O_R   0.661840 0.481580 0.377600 -0.522567

loop_
_geom_bond_atom_site_label_1
_geom_bond_atom_site_label_2
_ccdc_geom_bond_type
Cu2   O8    S    
C20   I6    S    
I2    N2    S    
C8    I3    S    
C4    O3    A    
Cu1   N2    S    
C6    C20   S    
C9    C10   A    
C7    O8    A    
Cu2   N1    S    
H5    N8    S    
C13   C17   A    
C6    O5    A    
C8    C12   A    
C10   N6    S    
H13   N5    S    
C8    C9    A    
H8    N3    S    
C3    N3    S    
Cu2   O4    S    
Cu1   Cu2   S    
C16   N7    S    
Cu1   O3    S    
H11   N4    S    
C1    O1    A    
C3    N1    D    
C1    C18   S    
H6    N8    S    
C18   H1    S    
N1    N4    S    
C5    N2    D    
C12   C14   A    
C9    N5    S    
H14   N6    S    
C5    H7    S    
C4    C14   S    
C11   I4    S    
C1    O2    A    
H3    N7    S    
Cu1   O1    S    
C10   C11   A    
C2    C20   D    
C15   C16   A    
H2    N6    S    
Cu1   O7    S    
C11   C13   A    
C12   C13   A    
Cu2   O2    S    
C18   C19   D    
H9    N3    S    
H4    N7    S    
Cu1   O5    S    
C14   C15   A    
C15   I1    S    
Cu2   O6    S    
H12   N5    S    
C2    N8    S    
C4    O4    A    
C2    C19   S    
H10   N4    S    
C7    O7    A    
C19   I5    S    
C6    O6    A    
C16   C17   A    
C3    C5    S    
C7    C17   S    
