data_mof_unit_5788.cif
_audit_creation_date              2012-12-10T20:44:06-0500
_audit_creation_method            fapswitch 2.2
_symmetry_space_group_name_H-M    P1
_symmetry_Int_Tables_number       1
_space_group_crystal_system       triclinic
_cell_length_a                    17.46017
_cell_length_b                    10.726386
_cell_length_c                    9.852586
_cell_angle_alpha                 89.904762
_cell_angle_beta                  90.10044
_cell_angle_gamma                 90.283679
_cell_volume                      1845.20889517

loop_
_atom_site_label
_atom_site_type_symbol
_atom_type_description
_atom_site_fract_x
_atom_site_fract_y
_atom_site_fract_z
_atom_type_partial_charge
C1    C     C_R   0.498750 0.260524 0.499964 0.865714
C2    C     C_R   0.114444 0.437051 0.511865 0.059519
C3    C     C_R   0.510215 0.062235 0.615725 -0.022446
C4    C     C_R   0.353294 0.498201 0.500094 0.880530
C5    C     C_R   0.495614 0.129413 0.498893 -0.122782
C6    C     C_R   0.478296 0.064874 0.378344 -0.198541
C7    C     C_R   0.477968 0.935372 0.378499 -0.245579
C8    C     C_R   0.495461 0.870718 0.498907 -0.070274
C9    C     C_R   0.509515 0.937752 0.616060 0.044494
C10   C     C_3   0.530535 0.926034 0.762486 -0.556952
C11   C     C_3   0.530703 0.069832 0.763858 0.351392
C12   C     C_R   0.885445 0.435659 0.505498 0.154046
C13   C     C_R   0.456995 0.415050 0.071100 0.141908
C14   C     C_R   0.548162 0.576790 0.072820 0.516702
C15   C     C_R   0.548539 0.574806 0.927452 -0.259009
C16   C     C_R   0.498957 0.739544 0.499824 0.887783
C17   C     C_R   0.457028 0.415060 0.928654 0.240044
C18   C     C_3   0.372244 0.400274 0.922196 -0.516859
C19   C     C_3   0.372116 0.400722 0.076131 -0.527579
C20   C     C_R   0.646775 0.497897 0.500173 0.859960
C21   C     C_R   0.846604 0.451710 0.627601 -0.154963
C22   C     C_R   0.768623 0.475076 0.625722 -0.215411
C23   C     C_1   0.965866 0.425523 0.507506 -0.055856
C24   C     C_R   0.729462 0.482198 0.501350 -0.042307
C25   C     C_R   0.769245 0.466161 0.378965 -0.184097
C26   C     C_R   0.847356 0.443057 0.381238 -0.178543
C27   C     C_3   0.658766 0.121736 0.697707 0.161559
C28   C     C_3   0.735830 0.158301 0.758119 -0.834818
C29   C     C_3   0.599835 0.775092 0.104849 0.098475
C30   C     C_3   0.676870 0.810013 0.042584 -0.869540
C31   C     C_3   0.139901 0.475382 0.859733 0.092027
C32   C     C_3   0.078570 0.470405 0.969044 -0.816266
C33   C     C_1   0.033869 0.425972 0.509645 0.017513
C34   C     C_R   0.150846 0.487574 0.626280 0.514212
C35   C     C_R   0.229437 0.513132 0.618728 -0.334384
C36   C     C_R   0.270659 0.482657 0.501582 -0.076409
C37   C     C_R   0.233337 0.428890 0.390106 -0.205260
C38   C     C_R   0.155194 0.406857 0.395045 -0.253536
H1    H     H_    0.876770 0.448033 0.723780 0.146257
H2    H     H_    0.739114 0.486940 0.721413 0.161754
H3    H     H_    0.354486 0.309877 0.120969 0.198756
H4    H     H_    0.740138 0.470862 0.281922 0.178772
H5    H     H_    0.878170 0.432739 0.286542 0.136020
H6    H     H_    0.258202 0.558249 0.702734 0.145282
H7    H     H_    0.264507 0.402429 0.300098 0.157548
H8    H     H_    0.126363 0.367359 0.307519 0.151265
H9    H     H_    0.465290 0.113589 0.284729 0.167621
H10   H     H_    0.644276 0.190996 0.617808 0.144317
H11   H     H_    0.664638 0.027691 0.651599 0.133278
H12   H     H_    0.464399 0.886735 0.285175 0.155658
H13   H     H_    0.753324 0.088794 0.835747 0.250515
H14   H     H_    0.779865 0.161902 0.676975 0.214179
H15   H     H_    0.731947 0.251514 0.806434 0.260170
H16   H     H_    0.592336 0.833154 0.196876 0.179413
H17   H     H_    0.552312 0.800797 0.034590 0.104989
H18   H     H_    0.688337 0.753177 0.951010 0.239831
H19   H     H_    0.676778 0.910028 0.013195 0.238797
H20   H     H_    0.723415 0.794252 0.117563 0.264140
H21   H     H_    0.186089 0.539296 0.895043 0.145040
H22   H     H_    0.163339 0.379431 0.847512 0.133131
H23   H     H_    0.483517 0.883936 0.823395 0.174810
H24   H     H_    0.031534 0.406580 0.937517 0.250331
H25   H     H_    0.103757 0.435746 0.065411 0.199881
H26   H     H_    0.054856 0.564960 0.986207 0.261131
H27   H     H_    0.587678 0.882864 0.777211 0.210185
H28   H     H_    0.483212 0.109206 0.825124 0.100520
H29   H     H_    0.587062 0.634273 0.870897 0.165566
H30   H     H_    0.343439 0.482919 0.877731 0.206424
H31   H     H_    0.354871 0.309171 0.877884 0.196356
H32   H     H_    0.343421 0.483964 0.119313 0.214203
N1    N     N_R   0.499490 0.499140 0.142800 -0.150514
N2    N     N_R   0.499490 0.499180 0.857150 -0.124562
O1    O     O_R   0.500010 0.316790 0.614690 -0.607786
O2    O     O_3   0.600030 0.648487 0.146083 -0.584733
O3    O     O_3   0.107104 0.520958 0.738137 -0.613878
O4    O     O_R   0.500000 0.316760 0.385350 -0.622626
O5    O     O_R   0.389120 0.500020 0.614710 -0.621655
O6    O     O_R   0.389110 0.499990 0.385370 -0.626507
O7    O     O_R   0.500000 0.683240 0.614650 -0.616650
O8    O     O_R   0.499990 0.683210 0.385310 -0.605600
O9    O     O_R   0.610890 0.500010 0.614630 -0.621412
O10   O     O_R   0.610880 0.499980 0.385290 -0.571673
O11   O     O_3   0.602788 0.123033 0.801468 -0.592126
Zn1   Zn    Zn3+2 0.500010 0.500020 0.653130 0.951268
Zn2   Zn    Zn3+2 0.499990 0.499980 0.346870 0.977849

loop_
_geom_bond_atom_site_label_1
_geom_bond_atom_site_label_2
_ccdc_geom_bond_type
C27   H10   S    
C4    C36   S    
C20   O10   A    
C14   N1    A    
C35   C36   A    
C7    C8    A    
C15   N2    A    
C12   C23   S    
C29   C30   S    
C1    C5    S    
C14   O2    S    
C36   C37   A    
C37   C38   A    
C18   C19   S    
O7    Zn1   S    
C28   H13   S    
C29   H16   S    
C18   H30   S    
C30   H19   S    
C34   C35   A    
C31   H21   S    
N1    Zn2   S    
C20   C24   S    
C8    C9    A    
C23   C33   T    
C9    C10   S    
O1    Zn1   S    
C11   H28   S    
C34   O3    S    
C2    C34   A    
C18   H31   S    
C22   H2    S    
C8    C16   S    
C20   O9    A    
C7    H12   S    
C26   H5    S    
C6    H9    S    
C13   C19   S    
C24   C25   A    
C32   H26   S    
C29   O2    S    
C13   N1    A    
O5    Zn1   S    
C11   O11   S    
C25   C26   A    
C30   H18   S    
C12   C21   A    
C12   C26   A    
C16   O8    A    
C31   H22   S    
C4    O6    A    
O8    Zn2   S    
C3    C9    A    
C2    C38   A    
C31   O3    S    
C31   C32   S    
C21   H1    S    
C15   H29   S    
C17   C18   S    
C35   H6    S    
N2    Zn1   S    
C2    C33   S    
C22   C24   A    
C10   H23   S    
C37   H7    S    
O9    Zn1   S    
O6    Zn2   S    
C10   H27   S    
C1    O4    A    
C32   H25   S    
C3    C5    A    
C25   H4    S    
C28   H15   S    
C6    C7    A    
O10   Zn2   S    
C29   H17   S    
C13   C17   A    
C16   O7    A    
C1    O1    A    
C27   O11   S    
C32   H24   S    
C4    O5    A    
C28   H14   S    
C5    C6    A    
C30   H20   S    
C38   H8    S    
C3    C11   S    
C10   C11   S    
C27   H11   S    
C17   N2    A    
C27   C28   S    
C14   C15   A    
C19   H32   S    
C21   C22   A    
O4    Zn2   S    
C19   H3    S    
