data_mof_unit_56630.cif
_audit_creation_date              2012-12-10T18:15:22-0500
_audit_creation_method            fapswitch 2.2
_symmetry_space_group_name_H-M    P1
_symmetry_Int_Tables_number       1
_space_group_crystal_system       triclinic
_cell_length_a                    12.691619
_cell_length_b                    13.147208
_cell_length_c                    22.872811
_cell_angle_alpha                 91.6563
_cell_angle_beta                  102.941265
_cell_angle_gamma                 82.092774
_cell_volume                      3684.23018899

loop_
_atom_site_label
_atom_site_type_symbol
_atom_type_description
_atom_site_fract_x
_atom_site_fract_y
_atom_site_fract_z
_atom_type_partial_charge
Br1   Br    Br    0.431025 0.268693 0.352780 -0.519135
Br2   Br    Br    0.559084 0.754333 0.390392 -0.509486
Br3   Br    Br    0.120246 0.666969 0.583446 -0.559601
Br4   Br    Br    0.182294 0.369354 0.893097 -0.381268
Br5   Br    Br    0.429321 0.620419 0.823556 -0.464297
Br6   Br    Br    0.598642 0.590985 0.186019 -0.404572
C1    C     C_R   0.438800 0.691336 0.491451 0.883884
C2    C     C_R   0.427139 0.377732 0.865089 0.615838
C3    C     C_R   0.563285 0.345665 0.751369 0.510500
C4    C     C_R   0.501731 0.499680 0.610773 0.881976
C5    C     C_R   0.556821 0.375203 0.692226 -0.351233
C6    C     C_R   0.513727 0.475316 0.673127 -0.101592
C7    C     C_R   0.475580 0.547121 0.712084 -0.261872
C8    C     C_R   0.480397 0.518768 0.770865 0.275309
C9    C     C_R   0.522209 0.417301 0.790200 0.151985
C10   C     C_R   0.553180 0.495990 0.234378 0.323831
C11   C     C_R   0.547213 0.524543 0.292702 -0.283228
C12   C     C_R   0.722610 0.338463 0.054856 -0.126946
C13   C     C_R   0.506242 0.461831 0.328183 -0.150774
C14   C     C_R   0.476190 0.366171 0.305685 0.219602
C15   C     C_R   0.484966 0.336567 0.247875 -0.170722
C16   C     C_R   0.560964 0.309749 0.511603 0.899260
C17   C     C_R   0.522334 0.401152 0.211889 0.170201
C18   C     C_R   0.727134 0.054133 0.511875 0.507433
C19   C     C_R   0.598287 0.201258 0.524065 -0.121623
C20   C     C_R   0.300065 0.835830 0.503818 -0.151009
C21   C     C_R   0.277366 0.936576 0.521716 -0.141212
C22   C     C_R   0.355439 0.002722 0.526686 -0.169556
C23   C     C_R   0.722240 0.344287 0.994178 -0.135063
C24   C     C_R   0.454595 0.971469 0.508237 0.083417
C25   C     C_R   0.471315 0.872670 0.483332 0.010588
C26   C     C_R   0.538519 0.034269 0.514255 0.038936
C27   C     C_R   0.640554 0.994468 0.500977 -0.009727
C28   C     C_R   0.500581 0.492923 0.389372 0.996024
C29   C     C_R   0.649694 0.901725 0.470529 -0.265516
C30   C     C_R   0.561745 0.846848 0.456558 0.254564
C31   C     C_R   0.520286 0.138359 0.527022 -0.226109
C32   C     C_R   0.705421 0.158075 0.524944 -0.308116
C33   C     C_R   0.399759 0.801653 0.488199 -0.103350
C34   C     C_R   0.623258 0.356470 0.951145 -0.013379
C35   C     C_R   0.073943 0.438240 0.386008 -0.259367
C36   C     C_R   0.806923 0.609071 0.581869 0.474117
C37   C     C_R   0.916063 0.624413 0.604429 0.253935
C38   C     C_R   0.992018 0.597047 0.568906 0.228266
C39   C     C_R   0.964132 0.535180 0.517609 -0.157379
C40   C     C_R   0.426874 0.372358 0.110447 0.573329
C41   C     C_R   0.853733 0.515527 0.497835 -0.036642
C42   C     C_R   0.041242 0.492584 0.483944 -0.028022
C43   C     C_R   0.002225 0.467989 0.423176 0.015223
C44   C     C_R   0.892859 0.460924 0.402244 -0.296739
C45   C     C_R   0.523709 0.356824 0.968939 -0.052330
C46   C     C_R   0.828197 0.457830 0.443841 0.561891
C47   C     C_R   0.154073 0.466461 0.508020 0.615162
C48   C     C_R   0.184494 0.429680 0.410205 -0.047437
C49   C     C_R   0.621606 0.353670 0.134481 0.567863
C50   C     C_R   0.623920 0.346517 0.073601 -0.005633
C51   C     C_R   0.524382 0.353436 0.030551 -0.009258
C52   C     C_R   0.425393 0.361533 0.049208 -0.080431
C53   C     C_3   0.899683 0.975310 0.551476 0.073454
C54   C     C_3   0.976240 0.053096 0.578840 -0.353710
C55   C     C_3   0.060260 0.008684 0.633558 -0.965500
C56   C     C_R   0.423662 0.364976 0.925615 -0.105561
C57   C     C_3   0.231981 0.349145 0.581660 0.058449
C58   C     C_3   0.263000 0.333119 0.649590 -0.250013
C59   C     C_3   0.322000 0.225102 0.666010 -0.932483
C60   C     C_3   0.702635 0.743501 0.616633 0.099815
C61   C     C_3   0.644618 0.772963 0.667715 -0.287660
C62   C     C_3   0.579093 0.879778 0.658565 -0.978326
C63   C     C_3   0.978766 0.731417 0.684610 0.092368
C64   C     C_3   0.082759 0.717359 0.734471 -0.229266
C65   C     C_3   0.121794 0.819372 0.756028 -0.908926
C66   C     C_3   0.781669 0.293522 0.417918 0.054369
C67   C     C_R   0.325004 0.364527 0.945178 0.319211
C68   C     C_3   0.771851 0.275598 0.350090 -0.394175
C69   C     C_3   0.738174 0.170486 0.330390 -0.799759
C70   C     C_3   0.703557 0.209470 0.760719 0.150716
C71   C     C_3   0.697264 0.117051 0.718500 -0.379360
C72   C     C_3   0.808907 0.076196 0.706478 -0.959503
C73   C     C_R   0.327095 0.363890 0.006420 -0.169932
C74   C     C_R   0.620993 0.373622 0.890948 0.581811
H1    H     H_    0.800101 0.332098 0.087061 0.199403
H2    H     H_    0.799588 0.342086 0.981262 0.200428
H3    H     H_    0.240355 0.412163 0.381001 0.212981
H4    H     H_    0.862816 0.441661 0.355878 0.172978
H5    H     H_    0.044935 0.420837 0.339006 0.186078
H6    H     H_    0.250580 0.367603 0.020444 0.217961
H7    H     H_    0.582307 0.319607 0.660539 0.138731
H8    H     H_    0.441009 0.624224 0.696633 0.180057
H9    H     H_    0.949421 0.905864 0.538229 0.186099
H10   H     H_    0.858586 0.949008 0.585601 0.098663
H11   H     H_    0.019087 0.075456 0.544788 0.224677
H12   H     H_    0.573009 0.596496 0.309652 0.235483
H13   H     H_    0.928531 0.123094 0.592746 0.217299
H14   H     H_    0.018479 0.989850 0.668810 0.276541
H15   H     H_    0.115571 0.066022 0.651817 0.274858
H16   H     H_    0.109607 0.938298 0.621176 0.276199
H17   H     H_    0.305106 0.324480 0.562900 0.168328
H18   H     H_    0.167550 0.300144 0.562324 0.098913
H19   H     H_    0.316903 0.389960 0.670691 0.258716
H20   H     H_    0.188030 0.345689 0.667773 0.245172
H21   H     H_    0.269366 0.166746 0.645638 0.250090
H22   H     H_    0.342103 0.215621 0.715520 0.308882
H23   H     H_    0.462504 0.263109 0.230618 0.197075
H24   H     H_    0.399138 0.212337 0.649911 0.254907
H25   H     H_    0.647059 0.767546 0.573504 0.167682
H26   H     H_    0.772789 0.787493 0.621586 0.064108
H27   H     H_    0.587982 0.716766 0.670400 0.237734
H28   H     H_    0.706239 0.770567 0.710844 0.227085
H29   H     H_    0.629126 0.936058 0.647306 0.262939
H30   H     H_    0.551556 0.904727 0.700119 0.282623
H31   H     H_    0.505953 0.877774 0.621682 0.276689
H32   H     H_    0.912430 0.772776 0.704156 0.140104
H33   H     H_    0.988918 0.780316 0.647852 0.138880
H34   H     H_    0.769013 0.206410 0.528716 0.158237
H35   H     H_    0.066380 0.677437 0.773052 0.247796
H36   H     H_    0.148886 0.668316 0.718233 0.275638
H37   H     H_    0.153664 0.853260 0.720788 0.277289
H38   H     H_    0.189103 0.806229 0.796559 0.302363
H39   H     H_    0.054358 0.873671 0.767583 0.255822
H40   H     H_    0.725587 0.246624 0.431376 0.210332
H41   H     H_    0.865363 0.264935 0.443943 0.115998
H42   H     H_    0.711453 0.335997 0.324009 0.257875
H43   H     H_    0.852159 0.278140 0.338893 0.218737
H44   H     H_    0.798170 0.108605 0.355608 0.274398
H45   H     H_    0.721061 0.876445 0.452625 0.218997
H46   H     H_    0.735035 0.159994 0.281708 0.276531
H47   H     H_    0.656156 0.164395 0.338349 0.284777
H48   H     H_    0.757236 0.184092 0.804633 0.191524
H49   H     H_    0.743782 0.268858 0.743297 0.148706
H50   H     H_    0.666216 0.055180 0.739181 0.247526
H51   H     H_    0.639633 0.139049 0.675170 0.221058
H52   H     H_    0.839539 0.135679 0.683656 0.275267
H53   H     H_    0.802208 0.007680 0.677118 0.251857
H54   H     H_    0.868151 0.053547 0.749166 0.276112
H55   H     H_    0.441161 0.174499 0.531558 0.153629
H56   H     H_    0.242902 0.783024 0.506400 0.200895
H57   H     H_    0.336815 0.076188 0.546794 0.125437
H58   H     H_    0.201960 0.961546 0.535701 0.155833
N1    N     N_R   0.523881 0.372366 0.151263 -0.338828
N2    N     N_R   0.523766 0.387052 0.849992 -0.329179
N3    N     N_R   0.222200 0.444670 0.469780 -0.177030
N4    N     N_R   0.776960 0.554790 0.529910 -0.163541
O1    O     O_R   0.366740 0.627150 0.485570 -0.594360
O2    O     O_R   0.410990 0.482290 0.406510 -0.610292
O3    O     O_R   0.589070 0.517660 0.425810 -0.529990
O4    O     O_2   0.332091 0.386506 0.128929 -0.528640
O5    O     O_3   0.826641 0.016646 0.498937 -0.658770
O6    O     O_3   0.193723 0.454101 0.569177 -0.590045
O7    O     O_3   0.733103 0.635786 0.617540 -0.570824
O8    O     O_3   0.951590 0.632964 0.666172 -0.577534
O9    O     O_3   0.745700 0.396449 0.432532 -0.602503
O10   O     O_3   0.598361 0.245027 0.770645 -0.644322
O11   O     O_2   0.715808 0.345756 0.176541 -0.551228
O12   O     O_2   0.714757 0.380067 0.873587 -0.552372
O13   O     O_2   0.335514 0.383759 0.821437 -0.499145
O14   O     O_R   0.544830 0.662520 0.504870 -0.605092
O15   O     O_R   0.410930 0.482340 0.574190 -0.580711
O16   O     O_R   0.589010 0.517710 0.593490 -0.555495
O17   O     O_R   0.455170 0.337480 0.495130 -0.611934
O18   O     O_R   0.633260 0.372850 0.514430 -0.585482
Zn1   Zn    Zn3+2 0.381090 0.476380 0.487110 0.998527
Zn2   Zn    Zn3+2 0.618910 0.523620 0.512890 1.031264

loop_
_geom_bond_atom_site_label_1
_geom_bond_atom_site_label_2
_ccdc_geom_bond_type
C49   C50   A    
C3    O10   S    
N3    Zn1   S    
C66   H41   S    
C29   C30   A    
C59   H21   S    
C1    O1    A    
C55   H16   S    
C44   H4    S    
C71   C72   S    
C11   H12   S    
C41   N4    A    
C63   H33   S    
C20   C21   A    
C63   O8    S    
C17   N1    S    
C57   H18   S    
C53   H9    S    
C24   C25   A    
C27   C29   A    
C63   H32   S    
O1    Zn1   S    
C61   H28   S    
C54   H11   S    
O3    Zn2   S    
C70   O10   S    
C12   H1    S    
C49   N1    A    
C50   C51   A    
C7    H8    S    
C71   H51   S    
C29   H45   S    
C2    O13   S    
C72   H52   S    
C19   C31   A    
C58   H19   S    
C1    O14   A    
C13   C14   A    
C5    H7    S    
C10   C11   A    
C16   C19   S    
C36   N4    A    
C44   C46   A    
C31   H55   S    
C56   C67   A    
C64   C65   S    
C45   C51   A    
Br5   C8    S    
C4    O16   A    
C47   N3    A    
C12   C50   A    
C71   H50   S    
C54   H13   S    
C60   C61   S    
O14   Zn2   S    
C53   C54   S    
C7    C8    A    
C40   C52   A    
C45   C56   A    
C59   H22   S    
C60   H26   S    
O2    Zn1   S    
C35   C43   A    
C48   H3    S    
C39   C41   A    
C42   C47   A    
Br3   C38   S    
C21   H58   S    
C68   C69   S    
C65   H37   S    
C61   C62   S    
C70   C71   S    
C60   O7    S    
C66   C68   S    
C55   H14   S    
C11   C13   A    
C64   H36   S    
C74   N2    A    
C18   O5    S    
C47   O6    S    
C69   H44   S    
C54   C55   S    
C53   H10   S    
O18   Zn2   S    
C37   C38   A    
C19   C32   A    
C3    C5    A    
C70   H49   S    
C18   C32   A    
C66   O9    S    
C28   O2    A    
C66   H40   S    
C34   C74   A    
C67   C73   A    
C12   C23   A    
C62   H30   S    
C26   C31   A    
C6    C7    A    
C72   H54   S    
C4    O15   A    
Br4   C67   S    
C37   O8    S    
C4    C6    S    
C52   C73   A    
C42   C43   A    
C68   H42   S    
C10   C17   A    
C15   C17   A    
C70   H48   S    
C36   C37   A    
C60   H25   S    
O15   Zn1   S    
C57   O6    S    
C38   C39   A    
C9    N2    S    
C39   C42   A    
Br2   C30   S    
C49   O11   S    
Br1   C14   S    
C65   H38   S    
C25   C30   A    
C22   H57   S    
C13   C28   S    
N4    Zn2   S    
C5    C6    A    
C55   H15   S    
C74   O12   S    
C41   C46   A    
C64   H35   S    
C34   C45   A    
C35   H5    S    
C18   C27   A    
C65   H39   S    
C2    N2    A    
C69   H46   S    
C58   C59   S    
C36   O7    S    
C22   C24   A    
O17   Zn1   S    
C3    C9    A    
C23   H2    S    
C57   H17   S    
C26   C27   A    
C24   C26   A    
C61   H27   S    
C51   C52   A    
C40   O4    S    
C16   O18   A    
C46   O9    S    
C32   H34   S    
C23   C34   A    
C28   O3    A    
C25   C33   A    
C68   H43   S    
C69   H47   S    
C62   H29   S    
C63   C64   S    
C20   C33   A    
C72   H53   S    
C35   C48   A    
C20   H56   S    
O16   Zn2   S    
Br6   C10   S    
C57   C58   S    
C15   H23   S    
C58   H20   S    
C48   N3    A    
C14   C15   A    
C43   C44   A    
C16   O17   A    
C21   C22   A    
C1    C33   S    
C8    C9    A    
C59   H24   S    
C62   H31   S    
C73   H6    S    
C2    C56   A    
C40   N1    A    
C53   O5    S    
