data_mof_unit_8679.cif
_audit_creation_date              2013-03-05T15:42:39-0500
_audit_creation_method            fapswitch 2.2
_symmetry_space_group_name_H-M    P1
_symmetry_Int_Tables_number       1
_space_group_crystal_system       triclinic
_cell_length_a                    8.363666
_cell_length_b                    15.440074
_cell_length_c                    19.060068
_cell_angle_alpha                 97.909666
_cell_angle_beta                  93.740486
_cell_angle_gamma                 99.801875
_cell_volume                      2392.39637725

loop_
_atom_site_label
_atom_site_type_symbol
_atom_site_description
_atom_site_fract_x
_atom_site_fract_y
_atom_site_fract_z
_atom_type_partial_charge
P1    P     P_3+3 0.032340 0.422550 0.338860 0.479436
O1    O     O_2   0.864880 0.449170 0.328210 -0.383869
O2    O     O_3   0.117570 0.450680 0.415600 -0.384323
O3    O     O_3   0.658480 0.614010 0.372860 -0.381260
O4    O     O_2   0.769352 0.555988 0.253468 -0.384193
O5    O     O_3   0.011425 0.305812 0.327511 -0.588438
O6    O     O_3   0.619025 0.684549 0.244526 -0.565188
H1    H     H_    0.634691 0.765345 0.341273 0.051926
C1    C     C_3   0.541415 0.826381 0.255426 0.335378
H2    H     H_    0.653528 0.843103 0.227935 0.073831
P2    P     P_3+3 0.682000 0.708060 0.557320 0.446235
P3    P     P_3+3 0.140529 0.775866 0.404278 0.413494
O7    O     O_2   0.856970 0.721200 0.536350 -0.374573
O8    O     O_3   0.083060 0.660780 0.408640 -0.366585
O9    O     O_2   0.994387 0.820012 0.425350 -0.463891
O10   O     O_3   0.713208 0.732876 0.650623 -0.573764
O11   O     O_3   0.163630 0.783685 0.313939 -0.537808
C2    C     C_3   0.019373 0.796312 0.276939 0.630366
H3    H     H_    0.908622 0.771674 0.302569 0.085472
C3    C     C_3   0.030100 0.895961 0.273248 -0.485257
H4    H     H_    0.913949 0.907548 0.248510 0.131419
C4    C     C_3   0.138778 0.749378 0.698705 0.425115
H5    H     H_    0.019271 0.731939 0.667142 0.088616
C5    C     C_3   0.116651 0.748390 0.778374 0.080046
H6    H     H_    0.023167 0.690808 0.784610 0.120081
H7    H     H_    0.231930 0.741458 0.807824 0.082893
Ba1   Ba    Ba6+2 0.852920 0.542430 0.466290 1.515745
C6    C     C_3   0.852155 0.256801 0.320009 0.721322
H8    H     H_    0.760444 0.299372 0.329765 0.083276
C7    C     C_3   0.814465 0.204180 0.244545 -1.105382
H9    H     H_    0.770577 0.245300 0.207280 0.260954
H10   H     H_    0.717153 0.145132 0.243303 0.234862
H11   H     H_    0.924174 0.180722 0.225092 0.270118
C8    C     C_3   0.695370 0.656365 0.683961 0.470811
H12   H     H_    0.813168 0.634017 0.689196 -0.044405
H13   H     H_    0.605982 0.599720 0.655431 0.092442
C9    C     C_3   0.638903 0.679137 0.757613 -0.034729
H14   H     H_    0.638131 0.621631 0.786915 0.110135
H15   H     H_    0.514008 0.693769 0.751306 0.141245
P4    P     P_3+3 0.157370 0.577530 0.661150 0.398806
O12   O     O_2   0.324830 0.550860 0.671840 -0.375797
O13   O     O_3   0.072140 0.549400 0.584410 -0.405812
O14   O     O_3   0.531230 0.386060 0.627150 -0.337598
O15   O     O_3   0.241487 0.691478 0.673220 -0.620328
P5    P     P_3+3 0.055674 0.226308 0.595369 0.462143
O16   O     O_3   0.606300 0.390910 0.463140 -0.385584
O17   O     O_3   0.106650 0.339290 0.591370 -0.377157
O18   O     O_2   0.173313 0.181142 0.549542 -0.377450
O19   O     O_3   0.104285 0.208876 0.682567 -0.525798
Ba2   Ba    Ba6+2 0.336920 0.457650 0.533720 1.550116
P6    P     P_3+3 0.616010 0.586588 0.280806 0.442809
C10   C     C_3   0.553391 0.744769 0.291077 0.315055
H16   H     H_    0.430006 0.714959 0.303713 0.092456
O20   O     O_3   0.583420 0.609160 0.536870 -0.430229
C11   C     C_3   0.415284 0.308363 0.313938 0.294698
H17   H     H_    0.348138 0.349892 0.349388 0.123856
H18   H     H_    0.515551 0.353285 0.294671 0.054151
C12   C     C_3   0.295424 0.259618 0.251051 -0.394354
H19   H     H_    0.211403 0.205974 0.269873 0.208985
H20   H     H_    0.219860 0.305324 0.232043 0.169054
P7    P     P_3+3 0.509426 0.278192 0.440041 0.427859
O21   O     O_2   0.332740 0.278830 0.463690 -0.337658
O22   O     O_3   0.480324 0.244897 0.347745 -0.623215
H21   H     H_    0.051368 0.933388 0.328224 0.211878
C13   C     C_3   0.092906 0.285493 0.730039 0.564807
H22   H     H_    0.186607 0.342599 0.722214 0.164832
H23   H     H_    0.971834 0.303980 0.722206 -0.029307
C14   C     C_3   0.117935 0.268182 0.806614 -1.016269
H24   H     H_    0.248653 0.275107 0.824064 0.280043
H25   H     H_    0.067308 0.317092 0.842875 0.231636
H26   H     H_    0.056823 0.200005 0.811898 0.257210
P8    P     P_3+3 0.565076 0.397987 0.720760 0.451861
C15   C     C_3   0.570005 0.232669 0.748367 1.053660
O23   O     O_2   0.457673 0.464014 0.749924 -0.387149
O24   O     O_3   0.471316 0.298862 0.749134 -0.548776
H27   H     H_    0.543047 0.095119 0.770675 0.121493
C16   C     C_3   0.464345 0.144922 0.762757 -0.374572
H28   H     H_    0.407356 0.158236 0.813227 0.137014
N1    N     N_R   0.215991 0.514030 0.953194 -0.010248
N2    N     N_R   0.266474 0.510268 0.020635 -0.068081
C17   C     C_2   0.291157 0.514268 0.291808 -0.450211
C18   C     C_3   0.428947 0.503619 0.246114 0.162371
C19   C     C_2   0.373817 0.510125 0.169657 -0.220930
C20   C     C_2   0.214140 0.483829 0.145059 -0.062533
C21   C     C_2   0.096538 0.451131 0.197791 0.049252
C22   C     C_1   0.146984 0.467409 0.268040 0.259315
N3    N     N_R   0.997550 0.468303 0.044474 -0.084972
N4    N     N_R   0.946904 0.472214 0.977229 -0.099210
C23   C     C_R   0.054613 0.495463 0.929643 0.203645
C24   C     C_R   0.158251 0.486982 0.068183 0.143242
C25   C     C_R   0.101705 0.531266 0.803746 0.393710
C26   C     C_R   0.042886 0.524234 0.730217 0.092370
C27   C     C_R   0.778808 0.447377 0.755188 0.202776
C28   C     C_R   0.831885 0.460570 0.827886 -0.334919
C29   C     C_R   0.996249 0.495986 0.852703 -0.029528
C30   C     C_R   0.885970 0.477319 0.707187 -0.498349
H29   H     H_    0.464624 0.531435 0.134397 0.171533
H30   H     H_    0.744835 0.442213 0.864966 0.192402
H31   H     H_    0.297551 0.574329 0.329359 0.147419
H32   H     H_    0.842499 0.469264 0.651510 0.185030
C31   C     C_R   0.759034 0.237250 0.524818 -0.350123
C32   C     C_R   0.842619 0.182937 0.559403 0.236874
C33   C     C_R   0.765849 0.096354 0.564055 -0.213936
C34   C     C_R   0.621981 0.054206 0.520078 0.096956
C35   C     C_R   0.542883 0.111746 0.482689 -0.328951
C36   C     C_R   0.607062 0.203178 0.488623 0.308094
C37   C     C_R   0.399385 0.918034 0.473937 -0.349034
C38   C     C_R   0.340969 0.826444 0.457139 0.270830
C39   C     C_R   0.586738 0.795649 0.517511 0.217168
C40   C     C_R   0.648218 0.888752 0.534964 0.013012
C41   C     C_R   0.557071 0.952861 0.510612 0.058004
C42   C     C_R   0.439476 0.767868 0.475722 -0.239330
H33   H     H_    0.318119 0.960380 0.458196 0.157840
H34   H     H_    0.818354 0.066814 0.605154 0.164569
H35   H     H_    0.433777 0.087712 0.447403 0.148349
H36   H     H_    0.815031 0.305587 0.523802 0.153722
O25   O     O_3   0.063659 0.825637 0.808418 -0.660817
H37   H     H_    0.162296 0.869871 0.828154 0.328261
N5    N     N_2   0.839519 0.194907 0.371152 -0.129630
H38   H     H_    0.725575 0.156035 0.367495 0.153053
C43   C     C_3   0.968408 0.143716 0.377711 -0.847724
H39   H     H_    0.945144 0.101730 0.420091 0.243344
H40   H     H_    0.087587 0.188123 0.392495 0.302097
H41   H     H_    0.973480 0.099955 0.327045 0.239069
O26   O     O_3   0.741653 0.753956 0.795845 -0.650110
H42   H     H_    0.698084 0.764601 0.842845 0.335030
N6    N     N_2   0.524172 0.900235 0.308683 -0.109436
H43   H     H_    0.436982 0.935932 0.294999 0.248249
C44   C     C_3   0.674983 0.957226 0.338505 -1.115760
H44   H     H_    0.649706 0.007474 0.380967 0.294323
H45   H     H_    0.731689 0.992444 0.296886 0.269392
H46   H     H_    0.759344 0.918433 0.361863 0.279428
N7    N     N_2   0.377218 0.220782 0.193147 -0.085665
H47   H     H_    0.474112 0.192018 0.207731 0.220286
C45   C     C_3   0.397913 0.269469 0.133819 -0.906972
H48   H     H_    0.465624 0.234728 0.093970 0.249589
H49   H     H_    0.466245 0.337646 0.152285 0.244041
H50   H     H_    0.277043 0.273429 0.107921 0.257537
O27   O     O_3   0.406866 0.806412 0.204342 -0.734174
H51   H     H_    0.422713 0.852271 0.172433 0.311760
N8    N     N_2   0.705331 0.258689 0.803860 -0.160218
H52   H     H_    0.792055 0.219158 0.796996 0.158123
C46   C     C_3   0.667174 0.271486 0.877405 -1.065756
H53   H     H_    0.630772 0.206413 0.895866 0.260035
H54   H     H_    0.568260 0.310860 0.884020 0.283331
H55   H     H_    0.777511 0.307233 0.911592 0.282364
O28   O     O_3   0.629560 0.216014 0.681423 -0.793736
H56   H     H_    0.719705 0.264911 0.677305 0.271637
N9    N     N_2   0.334158 0.107147 0.707379 -0.040975
H57   H     H_    0.238292 0.067568 0.725630 0.198352
C47   C     C_3   0.381793 0.066667 0.640900 -0.620738
H58   H     H_    0.397722 0.116569 0.604483 0.300261
H59   H     H_    0.286764 0.010151 0.615684 0.179230
H60   H     H_    0.496592 0.040862 0.648962 0.211758
N10   N     N_2   0.969523 0.377430 0.172063 -0.109458
H61   H     H_    0.001964 0.333808 0.131752 0.166776
C48   C     C_3   0.809743 0.398201 0.156476 -0.813683
H62   H     H_    0.744191 0.350951 0.110205 0.219911
H63   H     H_    0.816601 0.466332 0.143287 0.268031
H64   H     H_    0.737695 0.391208 0.202689 0.260005
O29   O     O_3   0.256628 0.573952 0.830334 -0.747819
H65   H     H_    0.310747 0.603935 0.793812 0.330271
N11   N     N_2   0.793445 0.916615 0.581345 -0.128387
H66   H     H_    0.802355 0.886291 0.625882 0.216483
C49   C     C_3   0.944461 0.936841 0.549100 -0.817828
H67   H     H_    0.022913 0.995210 0.581770 0.228229
H68   H     H_    0.923026 0.953754 0.494851 0.269653
H69   H     H_    0.010973 0.880826 0.548550 0.268359
N12   N     N_2   0.000719 0.747872 0.204970 -0.127359
H70   H     H_    0.891588 0.748833 0.176756 0.146092
C50   C     C_3   0.054055 0.663072 0.194319 -0.662962
H71   H     H_    0.182134 0.672800 0.180969 0.271233
H72   H     H_    0.977842 0.618375 0.149374 0.211012
H73   H     H_    0.046466 0.630991 0.242876 0.258041
N13   N     N_2   0.372432 0.677845 0.461403 -0.141040
H74   H     H_    0.439855 0.634499 0.438014 0.200694
C51   C     C_3   0.276159 0.650098 0.516194 -0.472303
H75   H     H_    0.208346 0.584413 0.493897 0.285622
H76   H     H_    0.189096 0.695183 0.530818 0.208162
H77   H     H_    0.350766 0.649742 0.565267 0.245003
N14   N     N_2   0.159662 0.927609 0.231070 -0.056761
H78   H     H_    0.143243 0.897672 0.178657 0.222089
C52   C     C_3   0.204639 0.023002 0.237642 -0.913160
H79   H     H_    0.101492 0.051324 0.216191 0.250233
H80   H     H_    0.310756 0.039789 0.206843 0.247998
H81   H     H_    0.240514 0.052485 0.294192 0.263535
N15   N     N_2   0.212328 0.838626 0.688460 -0.101165
H82   H     H_    0.183246 0.853323 0.638644 0.138869
C53   C     C_3   0.384530 0.866823 0.711693 -0.844580
H83   H     H_    0.459237 0.844006 0.669145 0.256030
H84   H     H_    0.418579 0.840849 0.760900 0.245364
H85   H     H_    0.412999 0.939935 0.724263 0.232923

loop_
_geom_bond_atom_site_label_1
_geom_bond_atom_site_label_2
_geom_bond_distance
_ccdc_geom_bond_type
C46   H55   1.109036 S    
C50   H71   1.107287 S    
C3    H21   1.112476 S    
C49   H67   1.105153 S    
N10   C48   1.448207 S    
C8    C9    1.524639 S    
C15   O24   1.418003 S    
N12   H70   1.032112 S    
N11   H66   1.028772 S    
N3    N4    1.336025 A    
O29   H65   0.980927 S    
Ba1   O20   2.959173 S    
N9    H57   1.032189 S    
C45   H48   1.110293 S    
N13   C51   1.427537 S    
C15   N8    1.460544 S    
C21   C22   1.353329 D    
C50   H72   1.110259 S    
C5    O25   1.404281 S    
C1    N6    1.451912 S    
O19   C13   1.407886 S    
C15   O28   1.406596 S    
C19   C20   1.359957 D    
C6    H8    1.100731 S    
N11   C49   1.445812 S    
C5    H7    1.112279 S    
O6    C10   1.401208 S    
P1    O1    1.534156 D    
N9    C47   1.444841 S    
C7    H9    1.100795 S    
C2    N12   1.454437 S    
P2    C39   1.899963 S    
P7    O21   1.574047 D    
C28   H30   1.077920 S    
C12   H20   1.105000 S    
C46   H53   1.110459 S    
C26   C30   1.397644 A    
C43   H40   1.104786 S    
C53   H84   1.108649 S    
C8    H12   1.100947 S    
C21   N10   1.425050 S    
C47   H60   1.109992 S    
C4    N15   1.454820 S    
P7    O22   1.752389 S    
C40   C41   1.453823 A    
C37   H33   1.076172 S    
C43   H41   1.107447 S    
O7    Ba1   2.889801 S    
C33   C34   1.423221 A    
O10   C8    1.407311 S    
N3    C24   1.358953 A    
C48   H62   1.110983 S    
C4    O15   1.403381 S    
O28   H56   0.987320 S    
C14   H24   1.104664 S    
C13   H23   1.104333 S    
C11   O22   1.407439 S    
P3    O11   1.763369 S    
O2    Ba1   2.968093 S    
C47   H58   1.103401 S    
O1    Ba1   2.837300 S    
P5    O19   1.752769 S    
O8    Ba1   2.807568 S    
C1    H2    1.113270 S    
H1    C10   1.112004 S    
C2    C3    1.537477 S    
C17   C22   1.313073 D    
Ba1   Ba2   4.619537 S    
C16   H28   1.110667 S    
C44   H46   1.109542 S    
N4    C23   1.359833 A    
C51   H77   1.091192 S    
P4    O13   1.555597 S    
C48   H63   1.107793 S    
C45   H49   1.107046 S    
N12   C50   1.446392 S    
C49   H68   1.111541 S    
C32   C33   1.398240 A    
C1    C10   1.526214 S    
C20   C24   1.518508 S    
P8    O24   1.767572 S    
C1    O27   1.402038 S    
C34   C35   1.430964 A    
O2    Ba2   2.788032 S    
C17   C18   1.506555 S    
O17   Ba2   2.808314 S    
C9    O26   1.397365 S    
H27   C16   1.112957 S    
N5    C43   1.449865 S    
C12   N7    1.449692 S    
C50   H73   1.108633 S    
O5    C6    1.403454 S    
C45   H50   1.110676 S    
N1    C23   1.363515 A    
O16   P7    1.772469 S    
P1    O5    1.762546 S    
C31   C32   1.384968 A    
C33   H34   1.065909 S    
C20   C21   1.527111 S    
P8    O23   1.541488 D    
N14   C52   1.442555 S    
C16   N9    1.450604 S    
C25   C26   1.438001 A    
P3    C38   1.884846 S    
C2    H3    1.109766 S    
O3    P6    1.745542 S    
C51   H76   1.112732 S    
C12   H19   1.106834 S    
N14   H78   1.031456 S    
P4    C26   1.876508 S    
C38   C42   1.387802 A    
P1    O2    1.555595 S    
C23   C29   1.516615 S    
C53   H85   1.102273 S    
C52   H79   1.110974 S    
N6    C44   1.441953 S    
C9    H14   1.111454 S    
C52   H80   1.109511 S    
P2    O10   1.759357 S    
N13   H74   1.021664 S    
P3    O9    1.546699 D    
P2    Ba1   3.455577 S    
C37   C38   1.400282 A    
C13   C14   1.527098 S    
C11   H17   1.111733 S    
O11   C2    1.413480 S    
C53   H83   1.111133 S    
C27   C28   1.403494 A    
Ba2   O20   2.833639 S    
C5    H6    1.104724 S    
N5    H38   1.028756 S    
P7    C36   1.839638 S    
P6    C18   1.864279 S    
C43   H39   1.110071 S    
P2    O20   1.590313 S    
O13   Ba2   2.969017 S    
P8    C27   1.858133 S    
Ba1   O16   2.834338 S    
P4    O12   1.534579 D    
P3    O8    1.774962 S    
C18   C19   1.521421 S    
C27   C30   1.391546 A    
C39   C42   1.390488 A    
C11   H18   1.109702 S    
N7    H47   1.028778 S    
Ba2   O21   2.890105 S    
C4    C5    1.543514 S    
C52   H81   1.111428 S    
C13   H22   1.109059 S    
N6    H43   1.027221 S    
O12   Ba2   2.837855 S    
C31   C36   1.387902 A    
O3    Ba1   2.795185 S    
C10   H16   1.111746 S    
P1    Ba1   3.429432 S    
C44   H44   1.098627 S    
P5    O18   1.547716 D    
P1    C22   1.849667 S    
C46   H54   1.110695 S    
O14   P8    1.767311 S    
C7    H11   1.109586 S    
C37   C41   1.432455 A    
C35   H35   1.076413 S    
O4    P6    1.537942 D    
C6    N5    1.452612 S    
C34   C41   1.547927 S    
O27   H51   0.992931 S    
O14   Ba2   2.794615 S    
C48   H64   1.106291 S    
C49   H69   1.104385 S    
C17   H31   1.081908 S    
C35   C36   1.408544 A    
O16   Ba2   2.958383 S    
N8    C46   1.452404 S    
O6    P6    1.744623 S    
N15   H82   1.029626 S    
C9    H15   1.108190 S    
N8    H52   1.028060 S    
C40   N11   1.420997 S    
C7    H10   1.110437 S    
P2    O7    1.529696 D    
Ba1   O13   2.787380 S    
O26   H42   0.992353 S    
C14   H26   1.110045 S    
P4    Ba2   3.430057 S    
C30   H32   1.082469 S    
C6    C7    1.536350 S    
C8    H13   1.101363 S    
C47   H59   1.105767 S    
N2    C24   1.362276 A    
C28   C29   1.414407 A    
N15   C53   1.452644 S    
P5    C32   1.844350 S    
C25   C29   1.424455 A    
N1    N2    1.338679 A    
P4    O15   1.757633 S    
C42   N13   1.389661 S    
P5    O17   1.737314 S    
C3    H4    1.104834 S    
C14   H25   1.109350 S    
C51   H75   1.088544 S    
C19   H29   1.085870 S    
C11   C12   1.531710 S    
C39   C40   1.426855 A    
N10   H61   1.031784 S    
N7    C45   1.445313 S    
C31   H36   1.082392 S    
C15   C16   1.554972 S    
C4    H5    1.103981 S    
C25   O29   1.379036 S    
O25   H37   0.992721 S    
C3    N14   1.449403 S    
C44   H45   1.108994 S    
