data_mof_unit_27245.cif
_audit_creation_date              2013-03-05T16:30:41-0500
_audit_creation_method            fapswitch 2.2
_symmetry_space_group_name_H-M    P1
_symmetry_Int_Tables_number       1
_space_group_crystal_system       triclinic
_cell_length_a                    10.928976
_cell_length_b                    10.818653
_cell_length_c                    9.613775
_cell_angle_alpha                 89.485927
_cell_angle_beta                  89.49259
_cell_angle_gamma                 91.512887
_cell_volume                      1136.21299526

loop_
_atom_site_label
_atom_site_type_symbol
_atom_site_description
_atom_site_fract_x
_atom_site_fract_y
_atom_site_fract_z
_atom_type_partial_charge
O1    O     O_R   0.500000 0.319640 0.618810 -0.553472
O2    O     O_R   0.500010 0.319680 0.381230 -0.576778
C1    C     C_R   0.504506 0.262483 0.500536 0.832799
O3    O     O_R   0.321940 0.499980 0.618760 -0.514553
O4    O     O_R   0.321950 0.500020 0.381180 -0.567180
C2    C     C_R   0.265504 0.498676 0.500559 0.873707
Cu1   Cu    Cu3+1 0.499990 0.499980 0.640670 1.001702
Cu2   Cu    Cu3+1 0.500010 0.500020 0.359330 1.001213
O5    O     O_R   0.499990 0.680320 0.618770 -0.585632
O6    O     O_R   0.500000 0.680360 0.381190 -0.531137
O7    O     O_R   0.678050 0.499980 0.618820 -0.597915
O8    O     O_R   0.678060 0.500020 0.381240 -0.577557
C3    C     C_R   0.508820 0.737466 0.499065 0.821718
C4    C     C_R   0.734526 0.502006 0.499826 0.836635
C5    C     C_2   0.934466 0.499955 0.386823 -0.138165
C6    C     C_2   0.866760 0.510226 0.502416 -0.300958
H1    H     H_    0.891518 0.486708 0.286960 0.164859
H2    H     H_    0.907492 0.528324 0.602746 0.154352
C7    C     C_2   0.068187 0.508882 0.387798 -0.170676
C8    C     C_2   0.133236 0.491962 0.503501 -0.286245
H3    H     H_    0.113721 0.527601 0.288819 0.175957
H4    H     H_    0.090499 0.469439 0.602881 0.193148
C9    C     C_R   0.530778 0.062240 0.624230 0.082763
C10   C     C_R   0.523953 0.130067 0.500668 -0.190078
C11   C     C_R   0.548724 0.068812 0.375565 -0.276083
H5    H     H_    0.562017 0.120447 0.279560 0.186086
C12   C     C_R   0.554774 0.939515 0.372716 0.351882
C13   C     C_R   0.532159 0.870801 0.497367 -0.204381
C14   C     C_R   0.533334 0.935261 0.622413 -0.000304
C15   C     C_3   0.459544 0.919810 0.753204 -0.398104
C16   C     C_3   0.455948 0.060537 0.755697 0.098558
H6    H     H_    0.368317 0.875294 0.734725 0.173647
H7    H     H_    0.512021 0.877049 0.838654 0.242658
H8    H     H_    0.361760 0.093986 0.741367 0.170581
C17   C     C_R   0.590384 0.561294 0.071725 0.305695
N1    N     N_R   0.500780 0.500930 0.147930 -0.227635
C18   C     C_R   0.406763 0.445230 0.076560 0.211065
C19   C     C_R   0.403403 0.450918 0.928302 0.328667
N2    N     N_R   0.500780 0.500890 0.852020 -0.262128
C20   C     C_R   0.590801 0.560430 0.924824 0.174761
C21   C     C_3   0.723566 0.533771 0.917570 -0.469725
C22   C     C_3   0.723382 0.533528 0.074809 -0.472110
H9    H     H_    0.741810 0.441362 0.873277 0.213167
H10   H     H_    0.778305 0.611909 0.870876 0.212112
H11   H     H_    0.740411 0.440546 0.119719 0.191529
H12   H     H_    0.779457 0.610689 0.118630 0.238137
N3    N     N_2   0.518102 0.115806 0.874808 -0.380313
H13   H     H_    0.489823 0.203821 0.895320 0.267755
C23   C     C_3   0.649746 0.106047 0.887397 -0.559001
H14   H     H_    0.678235 0.139162 0.991511 0.216101
H15   H     H_    0.697247 0.164610 0.807033 0.200936
H16   H     H_    0.678044 0.008842 0.877038 0.246084
N4    N     N_2   0.314756 0.376274 0.151014 -0.371219
H17   H     H_    0.227151 0.405270 0.133837 0.267749
C24   C     C_3   0.323771 0.243307 0.143910 -0.587502
H18   H     H_    0.279029 0.207817 0.048539 0.241220
H19   H     H_    0.276926 0.200375 0.235889 0.224303
H20   H     H_    0.420736 0.215744 0.143563 0.227177
N5    N     N_R   0.295353 0.405413 0.861171 0.136434
O9    O     O_R   0.192042 0.459936 0.881192 -0.409786
O10   O     O_R   0.296265 0.302993 0.791980 -0.412810
N6    N     N_R   0.583012 0.881039 0.243624 0.130202
O11   O     O_R   0.530860 0.916814 0.129554 -0.386276
O12   O     O_R   0.676474 0.809349 0.235907 -0.387635

loop_
_geom_bond_atom_site_label_1
_geom_bond_atom_site_label_2
_geom_bond_distance
_ccdc_geom_bond_type
O4    Cu2   1.955468 S    
C15   H6    1.112139 S    
C9    C10   1.394243 A    
C3    C13   1.458157 S    
C18   C19   1.426938 A    
C12   N6    1.432941 S    
C11   C12   1.402627 A    
C2    C8    1.445476 S    
C21   C22   1.511622 S    
N6    O12   1.300733 A    
C7    C8    1.339200 D    
Cu2   O8    1.959125 S    
C23   H16   1.109048 S    
C18   N4    1.420575 S    
C19   N5    1.428935 S    
C24   H18   1.109745 S    
N4    C24   1.446670 S    
O2    C1    1.300285 A    
C16   H8    1.109430 S    
Cu1   Cu2   2.704734 S    
N3    C23   1.451422 S    
O7    C4    1.294784 A    
C16   N3    1.461107 S    
N4    H17   1.029606 S    
C5    C7    1.462198 S    
C21   H9    1.112306 S    
C1    C10   1.453782 S    
C14   C15   1.493486 S    
N1    C18   1.369996 A    
O3    Cu1   1.959125 S    
O4    C2    1.297938 A    
C9    C14   1.375028 A    
O3    C2    1.297754 A    
C13   C14   1.395189 A    
C7    H3    1.084872 S    
O8    C4    1.301241 A    
Cu1   O7    1.955467 S    
C24   H19   1.109870 S    
C22   H12   1.110754 S    
C15   C16   1.524420 S    
C21   H10   1.111644 S    
C4    C6    1.446019 S    
N5    O10   1.297702 A    
C17   C20   1.412360 A    
C5    C6    1.336727 D    
N2    C20   1.363659 A    
N3    H13   1.029035 S    
Cu1   O5    1.960483 S    
N5    O9    1.301216 A    
C19   N2    1.382521 A    
C10   C11   1.406051 A    
C6    H2    1.083166 S    
C23   H14   1.110508 S    
Cu2   N1    2.032230 S    
C24   H20   1.108418 S    
C12   C13   1.420865 A    
C5    H1    1.081420 S    
C17   C22   1.492493 S    
Cu1   N2    2.032077 S    
C20   C21   1.487975 S    
O5    C3    1.303087 A    
C15   H7    1.110554 S    
C23   H15   1.111117 S    
C11   H5    1.081261 S    
O1    Cu1   1.964200 S    
O6    C3    1.298668 A    
Cu2   O6    1.964198 S    
O2    Cu2   1.960483 S    
N6    O11   1.300918 A    
C17   N1    1.366433 A    
C8    H4    1.082709 S    
O1    C1    1.300360 A    
C22   H11   1.111970 S    
C9    C16   1.499027 S    
