data_mof_unit_45187.cif
_audit_creation_date              2012-12-11T14:17:44-0500
_audit_creation_method            fapswitch 2.2
_symmetry_space_group_name_H-M    P1
_symmetry_Int_Tables_number       1
_space_group_crystal_system       triclinic
_cell_length_a                    11.514538
_cell_length_b                    11.260637
_cell_length_c                    18.894638
_cell_angle_alpha                 90.013177
_cell_angle_beta                  89.798758
_cell_angle_gamma                 121.142646
_cell_volume                      2096.8082419

loop_
_atom_site_label
_atom_site_type_symbol
_atom_type_description
_atom_site_fract_x
_atom_site_fract_y
_atom_site_fract_z
_atom_type_partial_charge
C1    C     C_R   0.524387 0.455824 0.146041 0.585727
C2    C     C_R   0.543647 0.064475 0.147175 0.573357
C3    C     C_R   0.876521 0.452083 0.139964 0.580130
C4    C     C_R   0.424497 0.547457 0.860367 0.571375
C5    C     C_R   0.068381 0.544148 0.853875 0.586592
C6    C     C_R   0.479412 0.935581 0.852812 0.572515
C7    C     C_R   0.480870 0.089584 0.472601 -0.123264
C8    C     C_R   0.857158 0.362464 0.484600 -0.105125
C9    C     C_R   0.596537 0.462631 0.489008 -0.117237
C10   C     C_R   0.910898 0.386323 0.553138 -0.123732
C11   C     C_R   0.478854 0.065006 0.544530 -0.113469
C12   C     C_R   0.567799 0.488130 0.557056 -0.088926
C13   C     C_R   0.620255 0.834045 0.539357 -0.170026
C14   C     C_R   0.147989 0.774793 0.541808 -0.142426
C15   C     C_R   0.232611 0.429527 0.515804 -0.171168
C16   C     C_R   0.965861 0.723380 0.437208 -0.033627
C17   C     C_R   0.579079 0.848945 0.398344 -0.128529
C18   C     C_R   0.355831 0.516430 0.384278 -0.115824
C19   C     C_R   0.695486 0.806236 0.490758 0.294156
C20   C     C_R   0.145193 0.886652 0.510357 0.273764
C21   C     C_R   0.153085 0.386532 0.453174 0.308041
C22   C     C_R   0.058680 0.859350 0.453960 0.322450
C23   C     C_R   0.674709 0.815230 0.418582 0.315180
C24   C     C_R   0.215919 0.449240 0.388786 0.315906
C25   C     C_R   0.542939 0.427255 0.361754 0.507138
C26   C     C_R   0.545547 0.067678 0.353535 0.518350
C27   C     C_R   0.871146 0.453254 0.360902 0.561540
C28   C     C_R   0.429152 0.538536 0.638139 0.532502
C29   C     C_R   0.069716 0.548207 0.644478 0.538256
C30   C     C_R   0.477507 0.922878 0.643141 0.531925
C31   C     C_R   0.497343 0.992676 0.925239 0.022296
C32   C     C_R   0.005193 0.496684 0.923528 0.048525
C33   C     C_R   0.455929 0.547033 0.936724 0.018019
C34   C     C_R   0.907305 0.452281 0.063427 0.016509
C35   C     C_R   0.504209 0.007617 0.074707 0.026731
C36   C     C_R   0.509208 0.502963 0.076422 0.054118
C37   C     C_R   0.391168 0.994322 0.962373 0.035551
C38   C     C_R   0.011641 0.395623 0.965985 0.061032
C39   C     C_R   0.584678 0.642264 0.967903 0.066774
C40   C     C_R   0.942078 0.358664 0.032263 0.066572
C41   C     C_R   0.397575 0.007764 0.037482 0.037671
C42   C     C_R   0.617387 0.606136 0.034228 0.062756
C43   C     C_R   0.597976 0.990309 0.036485 0.149319
C44   C     C_R   0.944608 0.571653 0.025204 0.091605
C45   C     C_R   0.380795 0.436882 0.047828 0.153807
C46   C     C_R   0.941588 0.561150 0.951982 0.161116
C47   C     C_R   0.607751 0.008828 0.963441 0.146657
C48   C     C_R   0.375530 0.426305 0.974500 0.093174
C49   C     C_R   0.280816 0.988935 0.926944 0.001684
C50   C     C_R   0.081654 0.328842 0.946179 -0.039731
C51   C     C_R   0.686722 0.762540 0.933517 -0.003535
C52   C     C_R   0.924258 0.239130 0.066595 -0.016388
C53   C     C_R   0.293248 0.015379 0.072691 0.000843
C54   C     C_R   0.754748 0.675284 0.054212 -0.046992
C55   C     C_R   0.180016 0.991953 0.963612 -0.086280
C56   C     C_R   0.072924 0.222126 0.985830 -0.077254
C57   C     C_R   0.819521 0.829519 0.955349 -0.043454
C58   C     C_R   0.991106 0.173898 0.044764 -0.055746
C59   C     C_R   0.191592 0.015529 0.035783 -0.089867
C60   C     C_R   0.853240 0.782515 0.014345 -0.081778
C61   C     C_R   0.500656 0.961989 0.568381 0.000348
C62   C     C_R   0.013724 0.520196 0.572804 0.012424
C63   C     C_R   0.459377 0.509078 0.567608 0.016744
C64   C     C_R   0.899503 0.474056 0.437931 0.014878
C65   C     C_R   0.505510 0.011359 0.423766 0.012793
C66   C     C_R   0.527865 0.473801 0.430905 0.063267
C67   C     C_R   0.549249 0.899675 0.519525 -0.043117
C68   C     C_R   0.047190 0.634766 0.527060 -0.033455
C69   C     C_R   0.373965 0.490471 0.509796 -0.061297
C70   C     C_R   0.969759 0.610377 0.466774 -0.025555
C71   C     C_R   0.538014 0.914785 0.446918 -0.030481
C72   C     C_R   0.426009 0.504081 0.441438 -0.016706
Cr1   Cr    Cr6+3 0.768550 0.541320 0.250660 1.025369
Cr2   Cr    Cr6+3 0.458680 0.227230 0.250660 0.960055
Cr3   Cr    Cr6+3 0.772770 0.231450 0.250660 1.001390
Cr4   Cr    Cr6+3 0.541320 0.768550 0.749340 1.017031
Cr5   Cr    Cr6+3 0.227230 0.458680 0.749340 1.017325
Cr6   Cr    Cr6+3 0.231450 0.772770 0.749340 0.999846
H1    H     H_    0.276778 0.003279 0.870967 0.167097
H2    H     H_    0.146731 0.354898 0.901915 0.174234
H3    H     H_    0.669842 0.810016 0.889850 0.203084
H4    H     H_    0.859297 0.190597 0.110169 0.200132
H5    H     H_    0.273208 0.000759 0.128591 0.164816
H6    H     H_    0.793964 0.650900 0.098814 0.173750
H7    H     H_    0.098869 0.986258 0.933675 0.094714
H8    H     H_    0.131453 0.179565 0.969438 0.141502
H9    H     H_    0.893911 0.918158 0.925867 0.139843
H10   H     H_    0.976611 0.085608 0.074190 0.131921
H11   H     H_    0.116838 0.023236 0.065522 0.088704
H12   H     H_    0.954781 0.826885 0.030812 0.143112
H13   H     H_    0.469184 0.174379 0.455305 0.131870
H14   H     H_    0.787913 0.257249 0.467151 0.149411
H15   H     H_    0.670325 0.432841 0.481884 0.082621
H16   H     H_    0.876257 0.300311 0.589635 0.124651
H17   H     H_    0.462017 0.127582 0.581793 0.152622
H18   H     H_    0.626048 0.485957 0.601387 0.136166
H19   H     H_    0.628267 0.810765 0.591811 0.184087
H20   H     H_    0.226740 0.797747 0.578206 0.175251
H21   H     H_    0.183866 0.393610 0.566574 0.150799
H22   H     H_    0.885763 0.707809 0.402887 0.244110
H23   H     H_    0.551347 0.840694 0.343115 0.142876
H24   H     H_    0.403847 0.552038 0.332925 0.170454
O1    O     O_R   0.910960 0.572410 0.171010 -0.471607
O2    O     O_R   0.427590 0.338550 0.171010 -0.498004
O3    O     O_R   0.661450 0.089040 0.171010 -0.509122
O4    O     O_R   0.572410 0.910960 0.828990 -0.493015
O5    O     O_R   0.338550 0.427590 0.828990 -0.475892
O6    O     O_R   0.089040 0.661450 0.828990 -0.477299
O7    O     O_R   0.639750 0.528530 0.175600 -0.539996
O8    O     O_R   0.471470 0.111220 0.175600 -0.528423
O9    O     O_R   0.888780 0.360250 0.175600 -0.513587
O10   O     O_R   0.528530 0.639750 0.824400 -0.495629
O11   O     O_R   0.111220 0.471470 0.824400 -0.539109
O12   O     O_R   0.360250 0.888780 0.824400 -0.530051
O13   O     O_R   0.909330 0.572400 0.331540 -0.530763
O14   O     O_R   0.427600 0.336930 0.331540 -0.561003
O15   O     O_R   0.663070 0.090670 0.331540 -0.539868
O16   O     O_R   0.572400 0.909330 0.668460 -0.538490
O17   O     O_R   0.336930 0.427600 0.668460 -0.521719
O18   O     O_R   0.090670 0.663070 0.668460 -0.534662
O19   O     O_R   0.638240 0.528520 0.324410 -0.463754
O20   O     O_R   0.471480 0.109720 0.324410 -0.537277
O21   O     O_R   0.890280 0.361760 0.324410 -0.410469
O22   O     O_R   0.528520 0.638240 0.675590 -0.520061
O23   O     O_R   0.109720 0.471480 0.675590 -0.519869
O24   O     O_R   0.361760 0.890280 0.675590 -0.526923
O25   O     O_3   0.666667 0.333333 0.250630 -0.338439
O26   O     O_3   0.333333 0.666667 0.749370 -0.314559
Br1   Br    Br    0.686495 0.909000 0.083692 -0.577449
Br2   Br    Br    0.121318 0.702852 0.058220 -0.519461
Br3   Br    Br    0.259070 0.473081 0.099258 -0.488992
Br4   Br    Br    0.790125 0.535722 0.898197 -0.452894
Br5   Br    Br    0.779100 0.090649 0.916313 -0.550472
Br6   Br    Br    0.427914 0.301525 0.940816 -0.519458
O27   O     O_3   0.783378 0.762171 0.511023 -0.564756
C73   C     C_3   0.834766 0.801749 0.580521 -0.131587
H25   H     H_    0.760082 0.732533 0.620537 0.145249
H26   H     H_    0.868425 0.911869 0.591508 0.092090
H27   H     H_    0.921827 0.787536 0.587372 0.147008
O28   O     O_3   0.224989 0.022209 0.533159 -0.591193
C74   C     C_3   0.190075 0.036876 0.602988 -0.137418
H28   H     H_    0.269925 0.139219 0.623504 0.158454
H29   H     H_    0.182626 0.956578 0.639981 0.144840
H30   H     H_    0.094615 0.037758 0.603453 0.097397
O29   O     O_3   0.021426 0.274289 0.450553 -0.566718
C75   C     C_3   0.003037 0.165441 0.495216 -0.116314
H31   H     H_    0.980941 0.181861 0.550261 0.090633
H32   H     H_    0.092353 0.152616 0.494747 0.201381
H33   H     H_    0.914459 0.067946 0.476040 0.187387
O30   O     O_3   0.056690 0.963629 0.416926 -0.583597
C76   C     C_3   0.163812 0.018447 0.367322 -0.080067
H34   H     H_    0.170379 0.936285 0.337793 0.122333
H35   H     H_    0.261082 0.089729 0.393985 0.188382
H36   H     H_    0.146282 0.079332 0.327493 0.100683
O31   O     O_3   0.743404 0.783641 0.369133 -0.547181
C77   C     C_3   0.802052 0.885977 0.315628 -0.068572
H37   H     H_    0.883542 0.877214 0.289288 0.131189
H38   H     H_    0.849425 0.993104 0.337285 0.138177
H39   H     H_    0.726145 0.867990 0.274412 0.147129
O32   O     O_3   0.141863 0.435296 0.328864 -0.504054
C78   C     C_3   0.124356 0.321224 0.289088 -0.035563
H40   H     H_    0.060539 0.222754 0.318418 0.118762
H41   H     H_    0.222882 0.333252 0.273219 0.144563
H42   H     H_    0.069930 0.314821 0.239649 0.181709

loop_
_geom_bond_atom_site_label_1
_geom_bond_atom_site_label_2
_ccdc_geom_bond_type
C2    C35   S    
C39   C51   A    
C30   O24   A    
C55   C59   A    
C36   C42   A    
Cr3   O15   S    
C26   O15   A    
Cr6   O26   S    
C54   H6    S    
C78   H40   S    
C53   C59   A    
O27   C73   S    
C54   C60   A    
C7    C11   A    
C33   C39   A    
Cr3   O21   S    
C48   Br6   S    
C77   H37   S    
C29   O23   A    
C74   H29   S    
C46   Br4   S    
C10   H16   S    
C44   Br2   S    
Cr6   O6    S    
C18   H24   S    
C76   H36   S    
C17   H23   S    
C9    C66   A    
C6    O12   A    
C1    O7    A    
C4    C33   S    
C66   C72   A    
C63   C69   A    
C3    O9    A    
Cr1   O1    S    
C16   C22   A    
C76   H34   S    
C51   C57   A    
C32   C38   A    
C35   C43   A    
C51   H3    S    
C67   C71   A    
C5    C32   S    
C6    C31   S    
C4    O10   A    
Cr2   O14   S    
C31   C47   A    
C47   Br5   S    
C37   C41   A    
C10   C62   A    
C73   H27   S    
Cr5   O11   S    
C78   H41   S    
C44   C46   A    
C14   H20   S    
C39   C42   A    
C75   H32   S    
C18   C72   A    
C15   C69   A    
C4    O5    A    
C13   C19   A    
Cr4   O22   S    
C14   C20   A    
C25   C66   S    
C43   Br1   S    
C16   C70   A    
O28   C74   S    
C18   C24   A    
C73   H26   S    
C25   O14   A    
C12   C63   A    
C27   O21   A    
C19   C23   A    
C16   H22   S    
C57   C60   A    
C30   O16   A    
C3    C34   S    
C11   C61   A    
C40   C52   A    
Cr4   O16   S    
C31   C37   A    
C50   H2    S    
C59   H11   S    
C21   O29   S    
C55   H7    S    
C69   C72   A    
Cr6   O18   S    
C64   C70   A    
Cr1   O25   S    
C7    C65   A    
C75   H33   S    
C37   C49   A    
C61   C67   A    
C56   H8    S    
Cr2   O25   S    
Cr5   O5    S    
Cr4   O10   S    
C7    H13   S    
C24   O32   S    
C6    O4    A    
C34   C44   A    
C36   C45   A    
C17   C23   A    
C52   H4    S    
C1    O2    A    
C41   C53   A    
Cr5   O26   S    
C52   C58   A    
C8    C64   A    
C8    H14   S    
C68   C70   A    
Cr2   O20   S    
C20   C22   A    
C45   Br3   S    
C43   C47   A    
Cr1   O19   S    
Cr4   O26   S    
C34   C40   A    
C74   H30   S    
C23   O31   S    
C21   C24   A    
Cr6   O24   S    
C9    H15   S    
C29   O18   A    
C49   H1    S    
C78   H42   S    
Cr5   O23   S    
Cr2   O2    S    
C75   H31   S    
C13   C67   A    
C45   C48   A    
C3    O1    A    
C29   C62   S    
Cr6   O12   S    
Cr4   O4    S    
C5    O11   A    
C26   C65   S    
C32   C46   A    
C77   H39   S    
O29   C75   S    
C15   H21   S    
C73   H25   S    
Cr5   O17   S    
C28   O17   A    
C58   H10   S    
Cr2   O8    S    
C28   O22   A    
C17   C71   A    
C38   C50   A    
C60   H12   S    
C2    O3    A    
Cr3   O9    S    
Cr1   O13   S    
C62   C68   A    
C53   H5    S    
O32   C78   S    
C20   O28   S    
C77   H38   S    
C65   C71   A    
C74   H28   S    
C42   C54   A    
C38   C40   A    
C25   O19   A    
C56   C58   A    
Cr3   O25   S    
Cr1   O7    S    
C76   H35   S    
C49   C55   A    
C13   H19   S    
C35   C41   A    
C9    C12   A    
C50   C56   A    
C27   C64   S    
C28   C63   S    
C57   H9    S    
C15   C21   A    
C11   H17   S    
C22   O30   S    
C8    C10   A    
C30   C61   S    
O31   C77   S    
C33   C48   A    
C14   C68   A    
O30   C76   S    
C12   H18   S    
C26   O20   A    
Cr3   O3    S    
C19   O27   S    
C1    C36   S    
C27   O13   A    
C5    O6    A    
C2    O8    A    
