data_mof_unit_21093.cif
_audit_creation_date              2012-10-26T19:29:00-0400
_audit_creation_method            fapswitch 2.2
_symmetry_space_group_name_H-M    P1
_symmetry_Int_Tables_number       1
_space_group_crystal_system       triclinic
_cell_length_a                    9.500673
_cell_length_b                    10.818402
_cell_length_c                    17.424104
_cell_angle_alpha                 88.947041
_cell_angle_beta                  86.209379
_cell_angle_gamma                 89.625855
_cell_volume                      1786.64097094

loop_
_atom_site_label
_atom_site_type_symbol
_atom_type_description
_atom_site_fract_x
_atom_site_fract_y
_atom_site_fract_z
_atom_type_partial_charge
C1    C     C_R   0.499981 0.739640 0.499405 0.557437
C2    C     C_R   0.525334 0.515848 0.265607 -0.007513
C3    C     C_3   0.420132 0.932190 0.433860 -0.236720
C4    C     C_R   0.481807 0.502304 0.649455 0.607368
C5    C     C_3   0.416253 0.074271 0.437715 -0.301220
C6    C     C_3   0.427397 0.921002 0.577645 -0.210496
C7    C     C_3   0.653639 0.926366 0.493875 -0.242052
C8    C     C_3   0.500264 0.876861 0.501006 -0.009233
C9    C     C_3   0.501917 0.120179 0.504585 0.001914
C10   C     C_3   0.437348 0.063723 0.582791 0.141693
C11   C     C_3   0.653322 0.067926 0.490655 -0.199333
C12   C     C_R   0.343183 0.530100 0.773929 -0.077231
C13   C     C_3   0.928988 0.435759 0.429718 0.059970
C14   C     C_3   0.094519 0.429140 0.433104 -0.091465
C15   C     C_3   0.917277 0.626875 0.494908 -0.166400
C16   C     C_R   0.500348 0.259481 0.502537 0.608915
C17   C     C_3   0.904004 0.442987 0.569558 -0.045794
C18   C     C_3   0.084674 0.624742 0.491996 -0.163142
C19   C     C_3   0.069220 0.444374 0.572757 0.245218
C20   C     C_R   0.517787 0.507721 0.350311 0.583228
C21   C     C_R   0.473003 0.508224 0.733291 0.001340
C22   C     C_R   0.596062 0.496701 0.772923 -0.095153
C23   C     C_R   0.417210 0.554097 0.145106 -0.047491
C24   C     C_R   0.590227 0.509445 0.851927 -0.125138
C25   C     C_R   0.461162 0.533092 0.892801 0.010117
C26   C     C_R   0.335964 0.542815 0.853702 0.230805
C27   C     C_2   0.877133 0.308100 0.414726 0.589893
C28   C     C_R   0.416979 0.571273 0.223978 0.264562
C29   C     C_R   0.639703 0.459428 0.224484 -0.158537
C30   C     C_R   0.641436 0.447743 0.145088 -0.105694
C31   C     C_R   0.529340 0.493627 0.105023 -0.008074
C32   C     C_2   0.459723 0.552354 0.975663 -0.075406
C33   C     C_2   0.531975 0.477794 0.021370 -0.118743
Cu1   Cu    Cu3+1 0.357600 0.500140 0.499960 1.028642
Cu2   Cu    Cu3+1 0.642400 0.499860 0.500040 0.973140
H1    H     H_    0.697568 0.479612 0.742895 0.168721
H2    H     H_    0.711035 0.890874 0.440888 0.130386
H3    H     H_    0.695428 0.097228 0.432660 0.153604
H4    H     H_    0.723255 0.102748 0.533902 0.239144
H5    H     H_    0.475263 0.873205 0.626724 0.179038
H6    H     H_    0.907642 0.491192 0.377129 0.140374
H7    H     H_    0.136051 0.333359 0.433955 0.196080
H8    H     H_    0.142762 0.468701 0.378807 0.169491
H9    H     H_    0.882444 0.678041 0.443459 0.142714
H10   H     H_    0.126568 0.669636 0.437546 0.200413
H11   H     H_    0.858467 0.494046 0.620151 0.105942
H12   H     H_    0.730181 0.402251 0.114960 0.157037
H13   H     H_    0.727562 0.422706 0.253532 0.205714
H14   H     H_    0.858326 0.349026 0.576133 0.227594
H15   H     H_    0.092661 0.506627 0.620453 0.106368
H16   H     H_    0.875995 0.680326 0.545638 0.132089
H17   H     H_    0.119779 0.682566 0.539200 0.117787
H18   H     H_    0.596191 0.403238 0.996497 0.143023
H19   H     H_    0.328415 0.589347 0.115574 0.193325
H20   H     H_    0.247930 0.539226 0.743399 0.171008
H21   H     H_    0.397354 0.629071 0.998420 0.192370
H22   H     H_    0.687550 0.503866 0.880928 0.170569
H23   H     H_    0.309982 0.897262 0.436690 0.174567
H24   H     H_    0.203276 0.850811 0.224867 0.373652
H25   H     H_    0.469032 0.116440 0.787978 0.379541
H26   H     H_    0.808567 0.193331 0.334834 0.324229
H27   H     H_    0.079368 0.111384 0.563631 0.368752
H28   H     H_    0.167384 0.393368 0.963770 0.351574
H29   H     H_    0.473604 0.904424 0.378036 0.183125
H30   H     H_    0.460109 0.114338 0.381907 0.131333
H31   H     H_    0.304953 0.105627 0.445040 0.186900
H32   H     H_    0.314363 0.893387 0.581177 0.101570
H33   H     H_    0.328865 0.097735 0.592829 0.205779
H34   H     H_    0.711938 0.893492 0.543782 0.170247
N1    N     N_3   0.856560 0.499750 0.498270 -0.305733
N2    N     N_3   0.143860 0.496700 0.498910 -0.280374
O1    O     O_R   0.379740 0.682430 0.499960 -0.508235
O2    O     O_2   0.324128 0.722264 0.338940 -0.339998
O3    O     O_3   0.277858 0.796666 0.201101 -0.505121
O4    O     O_2   0.657251 0.024525 0.673956 -0.289732
O5    O     O_2   0.573756 0.237706 0.661892 -0.271797
O6    O     O_3   0.418390 0.083514 0.744911 -0.468872
O7    O     O_2   0.900817 0.222942 0.458788 -0.538197
O8    O     O_R   0.818178 0.284511 0.345266 -0.733589
O9    O     O_2   0.257762 0.294394 0.644660 -0.220807
O10   O     O_2   0.010569 0.253670 0.670675 -0.275750
O11   O     O_3   0.123178 0.186429 0.539224 -0.564919
O12   O     O_R   0.620260 0.682190 0.500020 -0.533424
O13   O     O_2   0.160456 0.702117 0.926335 -0.215569
O14   O     O_2   0.051778 0.542940 0.852085 -0.273048
O15   O     O_3   0.151501 0.478615 0.982382 -0.498848
O16   O     O_R   0.365800 0.500150 0.613560 -0.484957
O17   O     O_R   0.606310 0.499910 0.613620 -0.515532
O18   O     O_R   0.379740 0.317810 0.499980 -0.454134
O19   O     O_R   0.620260 0.317570 0.500040 -0.476398
O20   O     O_R   0.393690 0.500090 0.386380 -0.476247
O21   O     O_R   0.634200 0.499850 0.386440 -0.505742
O22   O     O_2   0.146665 0.613013 0.269678 -0.322985
S1    S     S_3+6 0.287692 0.675530 0.262457 -0.021718
S2    S     S_3+6 0.529021 0.104928 0.666503 0.018902
S3    S     S_3+6 0.119395 0.292605 0.608343 0.020906
S4    S     S_3+6 0.169544 0.569196 0.902904 0.028449

loop_
_geom_bond_atom_site_label_1
_geom_bond_atom_site_label_2
_ccdc_geom_bond_type
C15   C18   S    
C16   O19   A    
O22   S1    D    
C1    C8    S    
C14   N2    S    
O3    S1    S    
C19   N2    S    
C27   O7    D    
C13   H6    S    
O4    S2    D    
C7    C8    S    
C4    O16   A    
C3    H29   S    
C7    C11   S    
C20   O21   A    
C5    C9    S    
C2    C29   A    
O13   S4    D    
C9    C16   S    
C15   H9    S    
C27   O8    S    
O5    S2    D    
C30   C31   A    
C13   N1    S    
C28   S1    S    
Cu1   Cu2   S    
O15   S4    S    
Cu1   O20   S    
Cu2   N1    S    
C24   H22   S    
C31   C33   S    
C15   H16   S    
O9    S3    D    
C9    C10   S    
C14   H7    S    
Cu2   O21   S    
C25   C32   S    
H27   O11   S    
C16   O18   A    
C13   C14   S    
O2    S1    D    
C33   H18   S    
C20   O20   A    
H25   O6    S    
C1    O1    A    
O11   S3    S    
C29   H13   S    
C18   H17   S    
C30   H12   S    
C17   H11   S    
C5    H30   S    
C3    C8    S    
C17   H14   S    
O10   S3    D    
Cu2   O12   S    
C6    C8    S    
C25   C26   A    
C2    C20   S    
C12   C21   A    
O6    S2    S    
C12   C26   A    
C23   C31   A    
C11   H3    S    
Cu2   O19   S    
C6    C10   S    
C29   C30   A    
Cu2   O17   S    
C7    H2    S    
C23   C28   A    
C24   C25   A    
C11   H4    S    
C9    C11   S    
H24   O3    S    
C6    H32   S    
H28   O15   S    
C6    H5    S    
C18   H10   S    
Cu1   O1    S    
C23   H19   S    
C18   N2    S    
C15   N1    S    
C5    H31   S    
C3    C5    S    
C7    H34   S    
C4    O17   A    
C10   H33   S    
C1    O12   A    
C22   H1    S    
C32   C33   D    
Cu1   O18   S    
C4    C21   S    
C19   H15   S    
C10   S2    S    
H26   O8    S    
C17   C19   S    
C22   C24   A    
Cu1   O16   S    
C12   H20   S    
O14   S4    D    
C26   S4    S    
C3    H23   S    
C17   N1    S    
C13   C27   S    
C2    C28   A    
C21   C22   A    
Cu1   N2    S    
C32   H21   S    
C19   S3    S    
C14   H8    S    
