data_mof_unit_52948.cif
_audit_creation_date              2012-12-11T14:11:02-0500
_audit_creation_method            fapswitch 2.2
_symmetry_space_group_name_H-M    P1
_symmetry_Int_Tables_number       1
_space_group_crystal_system       triclinic
_cell_length_a                    19.706086
_cell_length_b                    17.189735
_cell_length_c                    15.514014
_cell_angle_alpha                 89.999811
_cell_angle_beta                  52.469011
_cell_angle_gamma                 90.000216
_cell_volume                      4167.54260777

loop_
_atom_site_label
_atom_site_type_symbol
_atom_type_description
_atom_site_fract_x
_atom_site_fract_y
_atom_site_fract_z
_atom_type_partial_charge
C1    C     C_R   0.378255 0.197827 0.989199 -0.111821
C2    C     C_3   0.758868 0.774463 0.438683 -0.153716
C3    C     C_3   0.665219 0.278568 0.464792 -0.153493
C4    C     C_3   0.334826 0.721357 0.535147 -0.153487
C5    C     C_3   0.834852 0.778693 0.535108 -0.153485
C6    C     C_3   0.165185 0.221376 0.464837 -0.153488
C7    C     C_3   0.258891 0.725482 0.438655 -0.153717
C8    C     C_3   0.741075 0.274593 0.561390 -0.153720
C9    C     C_2   0.187493 0.744591 0.098706 -0.211313
C10   C     C_2   0.812506 0.255409 0.901294 -0.211323
C11   C     C_2   0.712006 0.686707 0.047319 -0.195510
C12   C     C_R   0.621744 0.802173 0.010803 -0.111813
C13   C     C_2   0.287993 0.313293 0.952681 -0.195505
C14   C     C_2   0.787998 0.186704 0.952672 -0.195513
C15   C     C_2   0.212003 0.813295 0.047325 -0.195516
C16   C     C_2   0.312505 0.244591 0.901296 -0.211333
C17   C     C_2   0.687494 0.755409 0.098705 -0.211325
C18   C     C_R   0.395565 0.801666 0.211578 0.055328
C19   C     C_R   0.604444 0.198332 0.788418 0.055327
C20   C     C_R   0.649090 0.825381 0.776288 0.076519
C21   C     C_R   0.350903 0.174613 0.223708 0.076526
C22   C     C_R   0.850901 0.325389 0.223705 0.076529
C23   C     C_R   0.661713 0.174265 0.950298 -0.119148
C24   C     C_R   0.149095 0.674615 0.776291 0.076523
C25   C     C_R   0.104437 0.301667 0.788421 0.055330
C26   C     C_R   0.895571 0.698334 0.211575 0.055327
C27   C     C_R   0.329596 0.913357 0.951333 -0.148481
C28   C     C_R   0.670405 0.086642 0.048667 -0.148487
C29   C     C_R   0.633935 0.889910 0.103888 -0.152485
C30   C     C_R   0.366064 0.110090 0.896112 -0.152487
C31   C     C_R   0.866063 0.389910 0.896114 -0.152485
C32   C     C_R   0.133936 0.610090 0.103888 -0.152483
C33   C     C_R   0.170404 0.413357 0.048668 -0.148487
C34   C     C_R   0.338288 0.825734 0.049700 -0.119152
C35   C     C_R   0.829596 0.586644 0.951331 -0.148481
C36   C     C_R   0.358410 0.080338 0.317340 -0.153251
C37   C     C_R   0.641579 0.919654 0.682656 -0.153234
C38   C     C_R   0.599172 0.105876 0.692066 -0.166318
C39   C     C_R   0.400840 0.894121 0.307928 -0.166309
C40   C     C_R   0.900848 0.605879 0.307923 -0.166302
C41   C     C_R   0.099164 0.394122 0.692070 -0.166311
C42   C     C_R   0.141587 0.580341 0.682660 -0.153245
C43   C     C_R   0.858405 0.419664 0.317337 -0.153262
C44   C     C_R   0.349623 0.186388 0.928840 0.145867
C45   C     C_R   0.838289 0.674267 0.049697 -0.119155
C46   C     C_R   0.650376 0.813612 0.071161 0.145864
C47   C     C_R   0.713430 0.147357 0.976005 0.145251
C48   C     C_R   0.286571 0.852641 0.023993 0.145252
C49   C     C_R   0.786573 0.647360 0.023989 0.145251
C50   C     C_R   0.213427 0.352640 0.976010 0.145250
C51   C     C_R   0.150376 0.686388 0.071161 0.145863
C52   C     C_R   0.849621 0.313612 0.928842 0.145866
C53   C     C_R   0.381451 0.817836 0.307932 -0.008386
C54   C     C_R   0.618568 0.182161 0.692058 -0.008383
C55   C     C_R   0.690214 0.858764 0.674491 -0.027973
C56   C     C_R   0.161711 0.325733 0.950303 -0.119151
C57   C     C_R   0.309769 0.141223 0.325503 -0.027980
C58   C     C_R   0.809762 0.358781 0.325499 -0.027983
C59   C     C_R   0.190226 0.641227 0.674496 -0.027977
C60   C     C_R   0.118555 0.317836 0.692065 -0.008387
C61   C     C_R   0.881465 0.682166 0.307924 -0.008387
C62   C     C_3   0.208567 0.151156 0.541691 -0.151498
C63   C     C_3   0.791356 0.848817 0.458313 -0.151502
C64   C     C_3   0.697791 0.204249 0.484942 -0.149074
C65   C     C_3   0.302298 0.795728 0.515037 -0.149085
C66   C     C_3   0.802355 0.704285 0.515022 -0.149092
C67   C     C_R   0.121745 0.697827 0.010801 -0.111821
C68   C     C_3   0.197727 0.295734 0.484956 -0.149080
C69   C     C_3   0.291411 0.651164 0.458311 -0.151499
C70   C     C_3   0.708514 0.348861 0.541692 -0.151497
C71   C     C_3   0.718922 0.745317 0.553774 -0.136617
C72   C     C_3   0.281112 0.254624 0.446253 -0.136623
C73   C     C_3   0.375903 0.692810 0.417741 -0.144987
C74   C     C_3   0.624072 0.307137 0.582209 -0.144998
C75   C     C_3   0.124089 0.192824 0.582246 -0.144988
C76   C     C_3   0.875883 0.807226 0.417709 -0.144978
C77   C     C_3   0.781139 0.245414 0.446278 -0.136628
C78   C     C_R   0.878254 0.302173 0.989201 -0.111828
C79   C     C_3   0.218899 0.754641 0.553754 -0.136622
C80   C     C_3   0.751629 0.819015 0.573082 0.186766
C81   C     C_3   0.248359 0.180976 0.426911 0.186761
C82   C     C_3   0.342008 0.766399 0.400181 0.184435
C83   C     C_3   0.658009 0.233600 0.599810 0.184438
C84   C     C_3   0.157997 0.266399 0.599816 0.184432
C85   C     C_3   0.842019 0.733601 0.400174 0.184432
C86   C     C_3   0.748357 0.319024 0.426905 0.186762
C87   C     C_3   0.251638 0.680979 0.573088 0.186763
C88   C     C_1   0.409542 0.724986 0.166147 -0.020496
C89   C     C_3   0.241100 0.225461 0.561355 -0.153717
C90   C     C_1   0.590461 0.275013 0.833850 -0.020498
C91   C     C_1   0.664662 0.747747 0.795410 -0.004835
C92   C     C_1   0.335341 0.252252 0.204592 -0.004830
C93   C     C_1   0.835346 0.247745 0.204592 -0.004824
C94   C     C_1   0.164661 0.752253 0.795408 -0.004830
C95   C     C_1   0.090457 0.224986 0.833854 -0.020493
C96   C     C_1   0.909546 0.775014 0.166143 -0.020490
H1    H     H_    0.393274 0.253412 0.005491 0.113095
H2    H     H_    0.690627 0.052969 0.088259 0.103220
H3    H     H_    0.638049 0.916581 0.163724 0.094372
H4    H     H_    0.361951 0.083419 0.836276 0.094371
H5    H     H_    0.861949 0.416581 0.836277 0.094370
H6    H     H_    0.138049 0.583419 0.163724 0.094371
H7    H     H_    0.190626 0.447030 0.088261 0.103220
H8    H     H_    0.809374 0.552971 0.911738 0.103220
H9    H     H_    0.347827 0.045559 0.382486 0.106225
H10   H     H_    0.652157 0.954433 0.617513 0.106206
H11   H     H_    0.593756 0.077358 0.634395 0.097570
H12   H     H_    0.606722 0.746588 0.994513 0.113094
H13   H     H_    0.406258 0.922642 0.365595 0.097565
H14   H     H_    0.906266 0.577357 0.365590 0.097562
H15   H     H_    0.093747 0.422642 0.634401 0.097567
H16   H     H_    0.152169 0.545561 0.617515 0.106220
H17   H     H_    0.847819 0.454443 0.382485 0.106237
H18   H     H_    0.653529 0.720659 0.610804 0.119372
H19   H     H_    0.346529 0.279237 0.389249 0.119368
H20   H     H_    0.441629 0.669402 0.358924 0.122286
H21   H     H_    0.558321 0.330499 0.640992 0.122282
H22   H     H_    0.058356 0.169429 0.641055 0.122285
H23   H     H_    0.673181 0.222839 0.899533 0.104988
H24   H     H_    0.941591 0.830665 0.358871 0.122289
H25   H     H_    0.846575 0.220835 0.389299 0.119365
H26   H     H_    0.153489 0.779266 0.610765 0.119369
H27   H     H_    0.213773 0.090967 0.563031 0.111924
H28   H     H_    0.786087 0.908986 0.436978 0.111908
H29   H     H_    0.693461 0.144388 0.461838 0.111033
H30   H     H_    0.306694 0.855571 0.538129 0.111026
H31   H     H_    0.806800 0.644456 0.538108 0.111020
H32   H     H_    0.193350 0.355582 0.461860 0.111028
H33   H     H_    0.286186 0.590980 0.436973 0.111919
H34   H     H_    0.326822 0.777157 0.100462 0.104993
H35   H     H_    0.713676 0.409063 0.563038 0.111935
H36   H     H_    0.271554 0.228196 0.602402 0.113468
H37   H     H_    0.728387 0.771667 0.397674 0.113470
H38   H     H_    0.635838 0.281754 0.422485 0.118653
H39   H     H_    0.364239 0.718106 0.577411 0.118650
H40   H     H_    0.864284 0.781986 0.577345 0.118646
H41   H     H_    0.135779 0.218144 0.422563 0.118650
H42   H     H_    0.228430 0.728236 0.397620 0.113470
H43   H     H_    0.771505 0.271904 0.602470 0.113468
H44   H     H_    0.208472 0.724903 0.145369 0.128741
H45   H     H_    0.826825 0.722844 0.100457 0.104995
H46   H     H_    0.791524 0.275098 0.854635 0.128739
H47   H     H_    0.689554 0.666522 0.002491 0.136384
H48   H     H_    0.310446 0.333478 0.997510 0.136382
H49   H     H_    0.810455 0.166516 0.997495 0.136380
H50   H     H_    0.189549 0.833481 0.002499 0.136382
H51   H     H_    0.291528 0.224904 0.854631 0.128741
H52   H     H_    0.708471 0.775095 0.145371 0.128743
H53   H     H_    0.173175 0.277156 0.899542 0.104992
H54   H     H_    0.106726 0.753412 0.994509 0.113093
H55   H     H_    0.893272 0.246588 0.005494 0.113094
H56   H     H_    0.309373 0.947031 0.911740 0.103219
N1    N     N_R   0.408680 0.130810 0.995780 -0.050070
N2    N     N_R   0.578590 0.132790 0.846380 -0.058666
N3    N     N_R   0.578590 0.867210 0.846380 -0.061898
N4    N     N_R   0.421410 0.132790 0.153620 -0.061898
N5    N     N_R   0.921410 0.367210 0.153620 -0.061898
N6    N     N_R   0.078590 0.632790 0.846380 -0.061898
N7    N     N_R   0.078590 0.367210 0.846380 -0.058668
N8    N     N_R   0.921410 0.632790 0.153620 -0.058670
N9    N     N_R   0.403840 0.921910 0.935760 -0.043820
N10   N     N_R   0.596160 0.078090 0.064240 -0.043821
N11   N     N_R   0.596160 0.921910 0.064240 -0.041092
N12   N     N_R   0.591320 0.869190 0.004220 -0.050069
N13   N     N_R   0.403840 0.078090 0.935760 -0.041092
N14   N     N_R   0.903840 0.421910 0.935760 -0.041092
N15   N     N_R   0.096160 0.578090 0.064240 -0.041091
N16   N     N_R   0.096160 0.421910 0.064240 -0.043821
N17   N     N_R   0.903840 0.578090 0.935760 -0.043821
N18   N     N_R   0.426250 0.076100 0.213650 -0.047553
N19   N     N_R   0.573750 0.923900 0.786350 -0.047552
N20   N     N_R   0.573750 0.076100 0.786350 -0.041584
N21   N     N_R   0.426250 0.923900 0.213650 -0.041586
N22   N     N_R   0.926250 0.576100 0.213650 -0.041587
N23   N     N_R   0.591320 0.130810 0.004220 -0.048404
N24   N     N_R   0.073750 0.423900 0.786350 -0.041585
N25   N     N_R   0.073750 0.576100 0.786350 -0.047553
N26   N     N_R   0.926250 0.423900 0.213650 -0.047554
N27   N     N_1   0.420894 0.663331 0.129697 -0.092773
N28   N     N_1   0.579104 0.336668 0.870301 -0.092769
N29   N     N_1   0.677915 0.684932 0.808522 -0.105399
N30   N     N_1   0.322097 0.315072 0.191483 -0.105398
N31   N     N_1   0.822108 0.184922 0.191483 -0.105397
N32   N     N_1   0.177907 0.815072 0.808517 -0.105398
N33   N     N_1   0.079103 0.163331 0.870305 -0.092771
N34   N     N_R   0.408680 0.869190 0.995780 -0.048404
N35   N     N_1   0.920897 0.836669 0.129692 -0.092775
N36   N     N_R   0.908680 0.630810 0.995780 -0.048403
N37   N     N_R   0.091320 0.369190 0.004220 -0.048403
N38   N     N_R   0.091320 0.630810 0.004220 -0.050069
N39   N     N_R   0.908680 0.369190 0.995780 -0.050069
N40   N     N_R   0.421410 0.867210 0.153620 -0.058669
Ni1   Ni    Ni4+2 0.500000 0.131570 0.000000 0.221795
Ni2   Ni    Ni4+2 0.500000 0.868430 0.000000 0.221794
Ni3   Ni    Ni4+2 1.000000 0.631570 0.000000 0.221794
Ni4   Ni    Ni4+2 0.000000 0.368430 0.000000 0.221795
Ni5   Ni    Ni4+2 0.488900 0.000000 0.862310 0.203412
Ni6   Ni    Ni4+2 0.511100 0.000000 0.137690 0.203408
Ni7   Ni    Ni4+2 0.988900 0.500000 0.862310 0.203411
Ni8   Ni    Ni4+2 0.011100 0.500000 0.137690 0.203407

loop_
_geom_bond_atom_site_label_1
_geom_bond_atom_site_label_2
_ccdc_geom_bond_type
C27   C48   A    
C5    H40   S    
C62   H27   S    
C28   C47   A    
C27   H56   S    
C65   C79   S    
C20   N3    A    
C36   N18   A    
N5    Ni4   S    
C93   N31   T    
C64   C77   S    
C29   N11   A    
C62   C81   S    
N11   N12   A    
C9    C51   S    
C74   C83   S    
C39   N21   A    
C10   C52   S    
C66   C85   S    
C79   C87   S    
C63   H28   S    
C67   N38   A    
C28   N10   A    
C6    C75   S    
C43   N26   A    
C4    C87   S    
C3    C64   S    
C72   H19   S    
C18   N40   A    
C76   H24   S    
C89   H36   S    
C38   N20   A    
C16   H51   S    
C31   H5    S    
N6    N25   A    
C24   C94   S    
C23   H23   S    
C4    C65   S    
C9    H44   S    
C24   N6    A    
C75   C84   S    
C23   N23   A    
C63   C76   S    
C42   N25   A    
C8    C83   S    
C62   C89   S    
C30   H4    S    
C66   H31   S    
C2    C85   S    
N14   N39   A    
C10   H46   S    
C13   H48   S    
C38   H11   S    
C34   N34   A    
C3    C74   S    
C42   H16   S    
C70   C74   S    
C71   C80   S    
N26   Ni8   S    
C18   C53   A    
N39   Ni4   S    
N2    Ni1   S    
N36   Ni3   S    
C35   C49   A    
N15   Ni8   S    
C26   N8    A    
C25   C60   A    
C14   H49   S    
C50   C56   A    
C16   C44   S    
C72   C81   S    
C69   C87   S    
N17   Ni7   S    
C15   H50   S    
C6    C68   S    
N21   Ni6   S    
C6    C81   S    
C3    C86   S    
C45   H45   S    
C96   N35   T    
C30   C44   A    
C75   H22   S    
C94   N32   T    
C15   C48   S    
C20   C55   A    
C52   C78   A    
C58   C86   S    
C54   C83   S    
C20   C91   S    
C78   H55   S    
C63   C80   S    
C26   C96   S    
N7    Ni4   S    
C79   H26   S    
C90   N28   T    
C2    H37   S    
C23   C47   A    
N14   Ni7   S    
C68   C84   S    
C17   H52   S    
C17   C46   S    
N17   N36   A    
C12   C46   A    
C36   C57   A    
C10   C14   D    
C1    H1    S    
C12   H12   S    
C29   H3    S    
C25   N7    A    
C40   H14   S    
N10   N23   A    
C33   C50   A    
C18   C88   S    
N16   N37   A    
C71   H18   S    
C53   C82   S    
N40   Ni2   S    
C1    N1    A    
C64   C83   S    
C21   C57   A    
N9    N34   A    
C11   C49   S    
N13   Ni5   S    
C12   N12   A    
C1    C44   A    
C66   C71   S    
C38   C54   A    
C31   N14   A    
C45   C49   A    
C68   C72   S    
N2    N20   A    
N20   Ni5   S    
C74   H21   S    
C51   C67   A    
C5    C80   S    
C69   C73   S    
C73   H20   S    
C4    C73   S    
C61   C85   S    
N38   Ni3   S    
C4    H39   S    
C19   C54   A    
C41   N24   A    
C77   C86   S    
C35   H8    S    
N7    N24   A    
C8    H43   S    
N25   Ni7   S    
C8    C77   S    
C35   N17   A    
C22   C93   S    
C57   C81   S    
C62   C75   S    
C13   C16   D    
C33   N16   A    
C34   C48   A    
C84   C89   S    
N24   Ni7   S    
C2    C71   S    
C70   C86   S    
C67   H54   S    
C73   C82   S    
N18   Ni6   S    
C2    C63   S    
C95   N33   T    
C88   N27   T    
C7    C79   S    
C22   C58   A    
C32   C51   A    
C28   H2    S    
N15   N38   A    
C68   H32   S    
C56   N37   A    
C11   C17   D    
N16   Ni8   S    
N1    N13   A    
C36   H9    S    
C33   H7    S    
N8    N22   A    
N34   Ni2   S    
C78   N39   A    
C41   C60   A    
C5    C66   S    
C42   C59   A    
C37   N19   A    
C7    H42   S    
N8    Ni3   S    
C45   N36   A    
C25   C95   S    
C14   C47   S    
C22   N5    A    
N10   Ni6   S    
N21   N40   A    
N22   Ni8   S    
N6    Ni3   S    
C8    C70   S    
C31   C52   A    
N9    Ni5   S    
C29   C46   A    
C3    H38   S    
C65   H30   S    
C6    H41   S    
C91   N29   T    
C7    C69   S    
C9    C15   D    
C37   H10   S    
N19   Ni5   S    
N3    Ni2   S    
C92   N30   T    
C32   H6    S    
C27   N9    A    
C40   N22   A    
C55   C80   S    
C60   C84   S    
N37   Ni4   S    
C65   C82   S    
C39   C53   A    
C5    C76   S    
C24   C59   A    
N11   Ni6   S    
N4    N18   A    
C70   H35   S    
C21   N4    A    
N4    Ni1   S    
N12   Ni2   S    
N5    N26   A    
C59   C87   S    
C77   H25   S    
C40   C61   A    
C13   C50   S    
C37   C55   A    
N3    N19   A    
C39   H13   S    
C7    C82   S    
N1    Ni1   S    
C34   H34   S    
C69   H33   S    
C64   H29   S    
C41   H15   S    
C32   N15   A    
C19   C90   S    
C19   N2    A    
C43   C58   A    
C72   C89   S    
C30   N13   A    
C56   H53   S    
C11   H47   S    
C76   C85   S    
N23   Ni1   S    
C43   H17   S    
C26   C61   A    
C21   C92   S    
