data_mof_unit_51569.cif
_audit_creation_date              2012-12-11T16:36:25-0500
_audit_creation_method            fapswitch 2.2
_symmetry_space_group_name_H-M    P1
_symmetry_Int_Tables_number       1
_space_group_crystal_system       triclinic
_cell_length_a                    25.767679
_cell_length_b                    7.253739
_cell_length_c                    23.343165
_cell_angle_alpha                 90.001477
_cell_angle_beta                  104.671169
_cell_angle_gamma                 89.995867
_cell_volume                      4220.8600003

loop_
_atom_site_label
_atom_site_type_symbol
_atom_type_description
_atom_site_fract_x
_atom_site_fract_y
_atom_site_fract_z
_atom_type_partial_charge
O1    O     O_R   0.438720 0.630760 0.439780 -0.528592
O2    O     O_R   0.061280 0.869240 0.060220 -0.534189
O3    O     O_R   0.561280 0.130760 0.560220 -0.528767
O4    O     O_R   0.938720 0.369240 0.939780 -0.534066
O5    O     O_R   0.546380 0.956770 0.446270 -0.548482
O6    O     O_R   0.953620 0.543230 0.053730 -0.545300
O7    O     O_R   0.453620 0.456770 0.553730 -0.548478
O8    O     O_R   0.046380 0.043230 0.946270 -0.545335
C1    C     C_R   0.561622 0.792219 0.433270 0.695902
C2    C     C_R   0.938371 0.707785 0.066726 0.694075
C3    C     C_R   0.438375 0.292228 0.566728 0.696137
C4    C     C_R   0.061630 0.207776 0.933274 0.693842
O9    O     O_R   0.438210 0.960230 0.432810 -0.533937
O10   O     O_R   0.061790 0.539770 0.067190 -0.537565
O11   O     O_R   0.561790 0.460230 0.567190 -0.534110
O12   O     O_R   0.938210 0.039770 0.932810 -0.537467
O13   O     O_R   0.452340 0.134240 0.546660 -0.536253
O14   O     O_R   0.047660 0.365760 0.953340 -0.536746
O15   O     O_R   0.547660 0.634240 0.453340 -0.536261
O16   O     O_R   0.952340 0.865760 0.046660 -0.536722
C5    C     C_R   0.418903 0.791833 0.416835 0.705542
C6    C     C_R   0.081216 0.708165 0.083436 0.708827
C7    C     C_R   0.581107 0.291823 0.583165 0.705691
C8    C     C_R   0.918788 0.208169 0.916572 0.708767
O17   O     O_3   0.504760 0.798440 0.537370 -0.375801
O18   O     O_3   0.995240 0.701560 0.962630 -0.376395
O19   O     O_3   0.495240 0.298440 0.462630 -0.375693
O20   O     O_3   0.004760 0.201560 0.037370 -0.376451
V1    V     V_3+5 0.499120 0.071860 0.493070 1.441886
V2    V     V_3+5 0.000880 0.428140 0.006930 1.409357
V3    V     V_3+5 0.500880 0.571860 0.506930 1.441768
V4    V     V_3+5 0.999120 0.928140 0.993070 1.409368
C9    C     C_R   0.723571 0.175677 0.667849 0.533183
C10   C     C_R   0.783655 0.083537 0.812489 0.496494
C11   C     C_R   0.276114 0.678896 0.332531 0.532335
C12   C     C_R   0.216070 0.582651 0.187998 0.495138
C13   C     C_R   0.675694 0.186661 0.622679 -0.211633
C14   C     C_R   0.831495 0.073486 0.857817 -0.252920
C15   C     C_R   0.323989 0.689824 0.377708 -0.211915
C16   C     C_R   0.168252 0.572627 0.142634 -0.253549
H1    H     H_    0.673576 0.125556 0.579817 0.159583
H2    H     H_    0.838700 0.955504 0.887142 0.151604
H3    H     H_    0.325865 0.631099 0.420838 0.159175
H4    H     H_    0.160853 0.453859 0.113644 0.152341
C17   C     C_R   0.630873 0.281621 0.631491 -0.116216
C18   C     C_R   0.869274 0.217516 0.867157 -0.116850
C19   C     C_R   0.369145 0.781693 0.368521 -0.115240
C20   C     C_R   0.130727 0.717520 0.132876 -0.117204
C21   C     C_R   0.634141 0.366209 0.686284 -0.122982
C22   C     C_R   0.858588 0.372787 0.830034 -0.137398
C23   C     C_R   0.366231 0.863244 0.313361 -0.123215
C24   C     C_R   0.141650 0.873580 0.169640 -0.137232
H5    H     H_    0.600109 0.441143 0.693816 0.132701
H6    H     H_    0.886732 0.486403 0.836239 0.149107
H7    H     H_    0.400543 0.935737 0.305541 0.131363
H8    H     H_    0.113708 0.987846 0.163142 0.149424
C25   C     C_R   0.680857 0.350146 0.732347 -0.044730
C26   C     C_R   0.811891 0.382155 0.783844 -0.046459
C27   C     C_R   0.319488 0.847257 0.267331 -0.042634
C28   C     C_R   0.188334 0.882987 0.215846 -0.044181
H9    H     H_    0.682165 0.413344 0.774740 0.185182
H10   H     H_    0.804996 0.502432 0.755389 0.205805
H11   H     H_    0.318437 0.908084 0.224666 0.183004
H12   H     H_    0.195410 0.003912 0.244010 0.206990
C29   C     C_R   0.725629 0.253371 0.724028 -0.015794
C30   C     C_R   0.774289 0.238204 0.774174 -0.008372
C31   C     C_R   0.274365 0.753540 0.276027 -0.014834
C32   C     C_R   0.225691 0.738263 0.225900 -0.008820
C33   C     C_R   0.368184 0.129053 0.604626 -0.154128
C34   C     C_R   0.131706 0.371253 0.895262 -0.177006
C35   C     C_R   0.631834 0.629072 0.395388 -0.154166
C36   C     C_R   0.868268 0.871235 0.104713 -0.176913
H13   H     H_    0.369847 0.015559 0.574987 0.135656
H14   H     H_    0.129984 0.484828 0.924851 0.130828
H15   H     H_    0.630193 0.515616 0.425046 0.135674
H16   H     H_    0.869972 0.984773 0.075107 0.130852
C37   C     C_R   0.331760 0.118305 0.639939 -0.120895
C38   C     C_R   0.168097 0.382162 0.859913 -0.129989
C39   C     C_R   0.668258 0.618327 0.360073 -0.121046
C40   C     C_R   0.831874 0.882143 0.140059 -0.129829
H17   H     H_    0.307065 0.996215 0.637161 0.126207
H18   H     H_    0.192713 0.504426 0.862618 0.122116
H19   H     H_    0.692975 0.496274 0.362869 0.126124
H20   H     H_    0.807237 0.004372 0.137335 0.122187
C41   C     C_R   0.327537 0.262406 0.678678 0.026800
C42   C     C_R   0.172393 0.237987 0.821233 0.028875
C43   C     C_R   0.672452 0.762385 0.321311 0.026816
C44   C     C_R   0.827603 0.738010 0.178761 0.028830
C45   C     C_R   0.361034 0.416476 0.681775 -0.098573
C46   C     C_R   0.139018 0.083647 0.818240 -0.104444
C47   C     C_R   0.638927 0.916404 0.318191 -0.098785
C48   C     C_R   0.861006 0.583716 0.181779 -0.104271
H21   H     H_    0.358233 0.529995 0.711011 0.130930
H22   H     H_    0.141889 0.970065 0.789053 0.132102
H23   H     H_    0.641704 0.029887 0.288935 0.130935
H24   H     H_    0.858154 0.470167 0.210982 0.132122
C49   C     C_R   0.397595 0.429627 0.646628 0.191780
C50   C     C_R   0.102503 0.070297 0.853438 0.191858
C51   C     C_R   0.602366 0.929550 0.353339 0.191633
C52   C     C_R   0.897523 0.570367 0.146583 0.191918
C53   C     C_R   0.401286 0.284692 0.606609 -0.099954
C54   C     C_R   0.098714 0.215364 0.893380 -0.100390
C55   C     C_R   0.598706 0.784666 0.393383 -0.099898
C56   C     C_R   0.901287 0.715388 0.106620 -0.100419
C57   C     C_R   0.301420 0.319524 0.774090 -0.145448
C58   C     C_R   0.198486 0.181016 0.725804 -0.142936
C59   C     C_R   0.698560 0.819429 0.225890 -0.145460
C60   C     C_R   0.801519 0.681122 0.274199 -0.142945
H25   H     H_    0.341310 0.371353 0.794029 0.120895
H26   H     H_    0.158598 0.129136 0.705878 0.124933
H27   H     H_    0.658660 0.871179 0.205944 0.120872
H28   H     H_    0.841417 0.629322 0.294133 0.124943
C61   C     C_R   0.263880 0.315846 0.808155 -0.139928
C62   C     C_R   0.236023 0.184724 0.691734 -0.131401
C63   C     C_R   0.736101 0.815764 0.191826 -0.139805
C64   C     C_R   0.763981 0.684817 0.308267 -0.131526
H29   H     H_    0.275868 0.364243 0.853477 0.119479
H30   H     H_    0.224031 0.136329 0.646412 0.130263
H31   H     H_    0.724105 0.864091 0.146498 0.119655
H32   H     H_    0.775982 0.636493 0.353596 0.130139
C65   C     C_R   0.211944 0.246370 0.784478 0.086262
C66   C     C_R   0.287965 0.254164 0.715414 0.085730
C67   C     C_R   0.788050 0.746388 0.215514 0.086236
C68   C     C_R   0.712026 0.754155 0.284576 0.085746
S1    S     S_3+6 0.781089 0.075983 0.651752 0.033852
O21   O     O_2   0.803114 0.925060 0.695197 -0.308206
O22   O     O_2   0.767557 0.998085 0.590063 -0.319956
O23   O     O_3   0.828009 0.240680 0.657304 -0.500918
H33   H     H_    0.860431 0.174908 0.652800 0.372829
S2    S     S_3+6 0.734977 0.907324 0.807419 0.003351
O24   O     O_2   0.686370 0.987024 0.822798 -0.340831
O25   O     O_2   0.718287 0.832246 0.745503 -0.294807
O26   O     O_3   0.759287 0.732995 0.854079 -0.511227
H34   H     H_    0.755591 0.774522 0.893279 0.334038
S3    S     S_3+6 0.218246 0.583236 0.348973 0.034732
O27   O     O_2   0.195608 0.431820 0.305975 -0.307035
O28   O     O_2   0.231524 0.507141 0.410889 -0.319727
O29   O     O_3   0.171978 0.750398 0.342985 -0.500583
H35   H     H_    0.139387 0.686826 0.347975 0.373048
S4    S     S_3+6 0.264346 0.404725 0.193814 0.001831
O30   O     O_2   0.313685 0.482564 0.179586 -0.341437
O31   O     O_2   0.279809 0.329137 0.255715 -0.294273
O32   O     O_3   0.240183 0.231282 0.146727 -0.512313
H36   H     H_    0.244349 0.273206 0.107751 0.333810
N1    N     N_3   0.430873 0.590618 0.653936 -0.660550
H37   H     H_    0.471055 0.550313 0.662299 0.236758
H38   H     H_    0.420284 0.669931 0.615366 0.245675
N2    N     N_3   0.069392 0.908916 0.846277 -0.659394
H39   H     H_    0.029170 0.948749 0.837867 0.242997
H40   H     H_    0.080057 0.829973 0.884922 0.243794
N3    N     N_3   0.569055 0.090480 0.346006 -0.660651
H41   H     H_    0.528882 0.050101 0.337662 0.236649
H42   H     H_    0.579635 0.169874 0.384559 0.245736
N4    N     N_3   0.930662 0.409037 0.153768 -0.659201
H43   H     H_    0.970877 0.448932 0.162165 0.243151
H44   H     H_    0.920008 0.330023 0.115138 0.243814

loop_
_geom_bond_atom_site_label_1
_geom_bond_atom_site_label_2
_ccdc_geom_bond_type
C26   H10   S    
S3    O29   S    
C51   C55   A    
O1    C5    A    
C7    C17   S    
C43   C47   A    
C34   C38   A    
O13   V1    S    
O3    C7    A    
S4    O32   S    
C48   H24   S    
C36   H16   S    
O15   V3    S    
O23   H33   S    
C10   C30   A    
C39   C43   A    
N1    H37   S    
C9    C29   A    
S3    O27   D    
O7    C3    A    
O5    C1    A    
C22   H6    S    
C58   C62   A    
C57   C61   A    
S4    O31   D    
C14   H2    S    
C20   C24   A    
C58   H26   S    
C43   C68   S    
O4    C8    A    
O19   V1    S    
O32   H36   S    
O1    V3    S    
C21   C25   A    
O2    V4    S    
O3    V1    S    
C16   C20   A    
C34   H14   S    
C35   C55   A    
C24   C28   A    
C27   C31   A    
C33   C37   A    
C1    O15   A    
C52   C56   A    
C44   C48   A    
C2    O16   A    
C39   H19   S    
O2    C6    A    
S1    O23   S    
N3    H41   S    
C33   H13   S    
S2    O25   D    
O14   V2    S    
C11   C31   A    
N4    H44   S    
C40   H20   S    
C38   C42   A    
O11   C7    A    
C37   C41   A    
O12   C8    A    
C45   H21   S    
C59   H27   S    
C59   C68   A    
O10   V2    S    
C44   C67   S    
C35   C39   A    
N1    H38   S    
C26   C30   A    
C46   H22   S    
O5    V1    S    
O7    V3    S    
C31   C32   S    
O8    V4    S    
C12   C16   A    
C63   C67   A    
N2    H39   S    
C42   C46   A    
C11   S3    S    
C41   C45   A    
O18   V4    S    
C10   S2    S    
C19   C23   A    
C36   C56   A    
C50   C54   A    
C51   N3    S    
C9    C13   A    
C60   H28   S    
C45   C49   A    
C22   C26   A    
C11   C15   A    
C4    C54   S    
C38   H18   S    
C37   H17   S    
O8    C4    A    
C25   C29   A    
C42   C65   S    
C9    S1    S    
C17   C21   A    
O9    C5    A    
C41   C66   S    
C3    C53   S    
S4    O30   D    
O11   V3    S    
C12   S4    S    
C59   C63   A    
N4    H43   S    
C62   H30   S    
C61   H29   S    
O6    V2    S    
C6    C20   S    
C63   H31   S    
S1    O21   D    
S2    O26   S    
C23   C27   A    
O9    V1    S    
C60   C67   A    
C13   C17   A    
C48   C52   A    
C15   C19   A    
O16   V4    S    
C52   N4    S    
S3    O28   D    
C57   H25   S    
C3    O13   A    
C64   C68   A    
C10   C14   A    
C49   N1    S    
O17   V3    S    
N2    H40   S    
O6    C2    A    
C15   H3    S    
C12   C32   A    
C25   H9    S    
C33   C53   A    
O12   V4    S    
C18   C22   A    
C27   H11   S    
C28   H12   S    
C8    C18   S    
O10   C6    A    
C2    C56   S    
S2    O24   D    
C36   C40   A    
C35   H15   S    
C60   C64   A    
C34   C54   A    
O26   H34   S    
C50   N2    S    
C21   H5    S    
C58   C65   A    
O20   V2    S    
C1    C55   S    
C57   C66   A    
C23   H7    S    
N3    H42   S    
C13   H1    S    
O4    V2    S    
C14   C18   A    
O29   H35   S    
C47   H23   S    
C62   C66   A    
C64   H32   S    
C16   H4    S    
C61   C65   A    
C28   C32   A    
C40   C44   A    
C29   C30   S    
C4    O14   A    
S1    O22   D    
C47   C51   A    
C46   C50   A    
C49   C53   A    
C24   H8    S    
C5    C19   S    
