data_mof_unit_18419.cif
_audit_creation_date              2012-12-10T17:55:06-0500
_audit_creation_method            fapswitch 2.2
_symmetry_space_group_name_H-M    P1
_symmetry_Int_Tables_number       1
_space_group_crystal_system       triclinic
_cell_length_a                    8.727836
_cell_length_b                    10.828539
_cell_length_c                    9.532168
_cell_angle_alpha                 89.499789
_cell_angle_beta                  97.912733
_cell_angle_gamma                 90.09334
_cell_volume                      892.270972068

loop_
_atom_site_label
_atom_site_type_symbol
_atom_type_description
_atom_site_fract_x
_atom_site_fract_y
_atom_site_fract_z
_atom_type_partial_charge
C1    C     C_R   0.503024 0.261990 0.501479 0.837871
C2    C     C_R   0.503238 0.737612 0.499957 0.822008
C3    C     C_R   0.203771 0.500588 0.463737 0.888786
C4    C     C_R   0.796218 0.500333 0.536244 0.854789
C5    C     C_2   0.037901 0.501565 0.443754 -0.377547
C6    C     C_2   0.962062 0.500874 0.556176 -0.371448
C7    C     C_R   0.564163 0.065912 0.393428 -0.324329
C8    C     C_R   0.462142 0.932813 0.614669 -0.344799
C9    C     C_R   0.576640 0.937984 0.396151 0.489933
C10   C     C_R   0.473256 0.059968 0.623722 0.463685
C11   C     C_R   0.512650 0.871074 0.501577 -0.200273
C12   C     C_R   0.511446 0.127823 0.506008 -0.213653
C13   C     C_R   0.394693 0.431483 0.061722 -0.032520
C14   C     C_R   0.605121 0.568685 0.938236 -0.030181
C15   C     C_R   0.394453 0.431797 0.912981 -0.038888
C16   C     C_R   0.605088 0.568584 0.086915 0.000497
Cu1   Cu    Cu3+1 0.500000 0.500020 0.640660 0.938109
Cu2   Cu    Cu3+1 0.500000 0.499980 0.359340 0.945398
H1    H     H_    0.977959 0.502486 0.335908 0.168011
H2    H     H_    0.021993 0.500204 0.664018 0.173906
H3    H     H_    0.604412 0.116916 0.307275 0.184747
H4    H     H_    0.418384 0.882309 0.699480 0.194927
H5    H     H_    0.310666 0.376137 0.107535 0.128727
H6    H     H_    0.689193 0.624011 0.892434 0.121661
H7    H     H_    0.310349 0.376573 0.846989 0.145981
H8    H     H_    0.689274 0.623513 0.152832 0.122941
N1    N     N_R   0.500040 0.500030 0.852080 -0.165824
N2    N     N_R   0.499960 0.499970 0.147920 -0.162012
O1    O     O_R   0.499990 0.319660 0.618740 -0.560920
O2    O     O_R   0.500010 0.680340 0.381260 -0.549599
O3    O     O_R   0.499990 0.319630 0.381170 -0.591186
O4    O     O_R   0.500010 0.680370 0.618830 -0.595070
O5    O     O_R   0.274840 0.500010 0.591370 -0.577846
O6    O     O_R   0.725160 0.499990 0.408630 -0.589453
O7    O     O_R   0.274830 0.499980 0.353800 -0.592769
O8    O     O_R   0.725170 0.500020 0.646200 -0.598652
O9    O     O_3   0.651901 0.881480 0.295113 -0.609409
C17   C     C_3   0.799417 0.838065 0.357761 0.068737
H9    H     H_    0.848147 0.783183 0.276562 0.156374
H10   H     H_    0.791411 0.774123 0.448344 0.125478
C18   C     C_3   0.912751 0.943600 0.404989 -0.408594
H11   H     H_    0.911935 0.013087 0.318782 0.231168
H12   H     H_    0.877113 0.990177 0.498758 0.211885
C19   C     C_3   0.077229 0.895316 0.444782 -0.875077
H13   H     H_    0.082064 0.827339 0.533259 0.254494
H14   H     H_    0.155097 0.973743 0.478880 0.267491
H15   H     H_    0.118523 0.850823 0.352334 0.253978
O10   O     O_3   0.441960 0.115699 0.746819 -0.605405
C20   C     C_3   0.583061 0.134758 0.837627 0.094766
H16   H     H_    0.563740 0.209673 0.911932 0.169288
H17   H     H_    0.678275 0.167251 0.779239 0.133083
C21   C     C_3   0.634342 0.018890 0.925404 -0.379416
H18   H     H_    0.542381 0.990629 0.989018 0.249408
H19   H     H_    0.655722 0.941699 0.854908 0.213765
C22   C     C_3   0.784189 0.042686 0.023770 -0.888900
H20   H     H_    0.876221 0.074713 0.962276 0.247399
H21   H     H_    0.823506 0.955467 0.078977 0.274136
H22   H     H_    0.765639 0.113566 0.103215 0.250343

loop_
_geom_bond_atom_site_label_1
_geom_bond_atom_site_label_2
_ccdc_geom_bond_type
C16   N2    A    
C8    H4    S    
C22   H20   S    
C21   C22   S    
C13   N2    A    
O9    C17   S    
C5    H1    S    
Cu1   O8    S    
C14   N1    A    
Cu1   O1    S    
C18   H11   S    
C15   N1    A    
C19   H15   S    
C3    O7    A    
C2    O2    A    
C20   C21   S    
C1    O1    A    
Cu1   Cu2   S    
Cu2   N2    S    
C21   H18   S    
C17   H10   S    
C18   H12   S    
C9    C11   A    
C17   H9    S    
C1    C12   S    
Cu1   O5    S    
Cu2   O6    S    
C8    C11   A    
Cu2   O2    S    
C2    C11   S    
C10   C12   A    
C8    C10   A    
O10   C20   S    
C21   H19   S    
C10   O10   S    
C4    O6    A    
C22   H21   S    
C13   C15   A    
C16   H8    S    
C5    C6    D    
C18   C19   S    
C4    O8    A    
C7    C12   A    
C15   H7    S    
C4    C6    S    
C3    O5    A    
Cu1   N1    S    
C1    O3    A    
C6    H2    S    
C19   H13   S    
C13   H5    S    
C17   C18   S    
C2    O4    A    
C20   H16   S    
Cu2   O7    S    
C22   H22   S    
C14   H6    S    
C7    C9    A    
Cu1   O4    S    
Cu2   O3    S    
C3    C5    S    
C14   C16   A    
C7    H3    S    
C19   H14   S    
C20   H17   S    
C9    O9    S    
