data_mof_unit_44019.cif
_audit_creation_date              2012-10-26T17:11:05-0400
_audit_creation_method            fapswitch 2.2
_symmetry_space_group_name_H-M    P1
_symmetry_Int_Tables_number       1
_space_group_crystal_system       triclinic
_cell_length_a                    27.863931
_cell_length_b                    18.805725
_cell_length_c                    16.88004
_cell_angle_alpha                 90.010404
_cell_angle_beta                  62.521624
_cell_angle_gamma                 90.01337
_cell_volume                      7847.29780515

loop_
_atom_site_label
_atom_site_type_symbol
_atom_type_description
_atom_site_fract_x
_atom_site_fract_y
_atom_site_fract_z
_atom_type_partial_charge
C1    C     C_R   0.296261 0.731074 0.328781 0.566866
C2    C     C_R   0.475313 0.125179 0.414147 -0.137181
C3    C     C_R   0.925820 0.096060 0.067180 0.554329
C4    C     C_R   0.425908 0.403888 0.067060 0.553784
C5    C     C_R   0.574159 0.596095 0.932839 0.555003
C6    C     C_R   0.574060 0.403826 0.932954 0.553766
C7    C     C_R   0.425848 0.596097 0.067159 0.555103
C8    C     C_R   0.048795 0.501611 0.506845 0.037863
C9    C     C_R   0.951255 0.498368 0.493003 0.038545
C10   C     C_R   0.560720 0.997569 0.467605 0.038778
C11   C     C_R   0.467520 0.998776 0.441293 0.039725
C12   C     C_R   0.012807 0.560251 0.537759 0.012470
C13   C     C_R   0.467778 0.870732 0.437491 -0.132653
C14   C     C_R   0.987243 0.439727 0.462085 0.012389
C15   C     C_R   0.963174 0.557798 0.532805 0.013132
C16   C     C_R   0.036879 0.442179 0.467039 0.010214
C17   C     C_R   0.546147 0.060508 0.437518 0.012420
C18   C     C_R   0.488911 0.933886 0.452659 0.012067
C19   C     C_R   0.496822 0.062408 0.430751 0.012544
C20   C     C_R   0.531584 0.934200 0.475901 0.012598
C21   C     C_R   0.131102 0.441986 0.492498 -0.012913
C22   C     C_R   0.868937 0.557996 0.507393 -0.008566
C23   C     C_R   0.887019 0.435833 0.454610 -0.006896
C24   C     C_R   0.581652 0.118727 0.415394 -0.139547
C25   C     C_R   0.113011 0.564148 0.545286 -0.005505
C26   C     C_R   0.618519 0.935199 0.520428 -0.006231
C27   C     C_R   0.391293 0.064423 0.440045 -0.005996
C28   C     C_R   0.390059 0.934512 0.443492 -0.004252
C29   C     C_R   0.635231 0.060324 0.478019 -0.008026
C30   C     C_R   0.172359 0.437731 0.520037 -0.031671
C31   C     C_R   0.827658 0.562257 0.479906 -0.034792
C32   C     C_R   0.836286 0.434492 0.453777 -0.051996
C33   C     C_R   0.163730 0.565494 0.546161 -0.058520
C34   C     C_R   0.664996 0.934806 0.535352 -0.051007
C35   C     C_R   0.076334 0.388270 0.430484 -0.130464
C36   C     C_R   0.334733 0.064968 0.462982 -0.027009
C37   C     C_R   0.334183 0.934899 0.463891 -0.024480
C38   C     C_R   0.673264 0.063188 0.513267 -0.033899
C39   C     C_R   0.187191 0.500445 0.549981 -0.036600
C40   C     C_R   0.812818 0.499542 0.449977 -0.038177
C41   C     C_R   0.686058 0.999994 0.545135 -0.040934
C42   C     C_R   0.306129 0.000082 0.484607 -0.031940
C43   C     C_R   0.097366 0.502430 0.515577 0.033778
C44   C     C_R   0.902676 0.497551 0.484294 0.033198
C45   C     C_R   0.604711 0.997817 0.489128 0.031760
C46   C     C_R   0.923722 0.611704 0.569371 -0.136820
C47   C     C_R   0.416112 0.999379 0.441886 0.035163
C48   C     C_R   0.584508 0.875551 0.537834 -0.101698
C49   C     C_R   0.424259 0.125870 0.417234 -0.118079
C50   C     C_R   0.421282 0.871839 0.426798 -0.107534
C51   C     C_R   0.626179 0.117512 0.432183 -0.114879
C52   C     C_R   0.122304 0.388379 0.442703 -0.106846
C53   C     C_R   0.877747 0.611597 0.557175 -0.113240
C54   C     C_R   0.922855 0.378144 0.425002 -0.106666
C55   C     C_R   0.077172 0.621832 0.574891 -0.114381
C56   C     C_2   0.222248 0.498847 0.594711 0.294730
C57   C     C_R   0.971727 0.379961 0.428439 -0.128512
C58   C     C_2   0.777730 0.501128 0.405302 0.289030
C59   C     C_2   0.716223 0.001434 0.598251 0.284446
C60   C     C_2   0.246504 0.000371 0.541474 0.296180
C61   C     C_2   0.248790 0.701324 0.784654 0.256768
C62   C     C_2   0.756468 0.305922 0.210747 0.241131
C63   C     C_2   0.751002 0.701552 0.215415 0.256730
C64   C     C_2   0.242259 0.307739 0.789741 0.244780
C65   C     C_2   0.748530 0.200916 0.784821 0.257631
C66   C     C_2   0.256827 0.806389 0.210527 0.243993
C67   C     C_2   0.249202 0.204294 0.216366 0.248361
C68   C     C_R   0.028315 0.620016 0.571418 -0.135769
C69   C     C_2   0.743177 0.806478 0.789417 0.241932
C70   C     C_R   0.219048 0.768439 0.957610 0.065348
C71   C     C_R   0.781344 0.234713 0.043728 0.008343
C72   C     C_R   0.780909 0.768537 0.042399 0.065420
C73   C     C_R   0.704140 0.269683 0.671146 0.534344
C74   C     C_R   0.217606 0.236652 0.956986 0.007888
C75   C     C_R   0.718787 0.268025 0.957834 0.065277
C76   C     C_R   0.281656 0.735180 0.043446 0.008125
C77   C     C_R   0.280160 0.270087 0.042837 0.066233
C78   C     C_R   0.718371 0.735264 0.956462 0.008152
C79   C     C_R   0.216652 0.700123 0.992505 -0.075802
C80   C     C_R   0.783824 0.302996 0.008672 -0.100688
C81   C     C_R   0.783436 0.700282 0.007256 -0.077138
C82   C     C_R   0.215493 0.305165 0.991288 -0.105205
C83   C     C_R   0.716186 0.199790 0.993062 -0.076391
C84   C     C_R   0.703742 0.731074 0.671217 0.551099
C85   C     C_R   0.283958 0.803539 0.008678 -0.102791
C86   C     C_R   0.282312 0.201617 0.008498 -0.075537
C87   C     C_R   0.715945 0.803568 0.991462 -0.101557
C88   C     C_R   0.247952 0.683538 0.034995 -0.102075
C89   C     C_R   0.752525 0.319628 0.966216 -0.081104
C90   C     C_R   0.752176 0.683692 0.964696 -0.105078
C91   C     C_R   0.246813 0.321866 0.033714 -0.083017
C92   C     C_R   0.747456 0.183180 0.035604 -0.104667
C93   C     C_R   0.252630 0.820145 0.966256 -0.080488
C94   C     C_R   0.251057 0.184953 0.965981 -0.101102
C95   C     C_R   0.295704 0.269975 0.328903 0.523792
C96   C     C_R   0.747239 0.820182 0.033946 -0.081336
C97   C     C_R   0.146128 0.832171 0.942952 -0.146294
C98   C     C_R   0.853974 0.168832 0.057470 -0.124004
C99   C     C_R   0.853859 0.832182 0.057044 -0.149238
C100  C     C_R   0.145327 0.170075 0.943046 -0.123897
C101  C     C_R   0.645948 0.331868 0.943106 -0.148673
C102  C     C_R   0.354199 0.669170 0.057285 -0.124672
C103  C     C_R   0.353407 0.333111 0.057340 -0.147785
C104  C     C_R   0.645820 0.669220 0.942685 -0.124446
C105  C     C_R   0.118769 0.852735 0.894747 -0.012557
C106  C     C_R   0.796229 0.231020 0.328794 0.546939
C107  C     C_R   0.881369 0.147649 0.105423 -0.020528
C108  C     C_R   0.881251 0.852692 0.105219 -0.016999
C109  C     C_R   0.118373 0.148055 0.894720 -0.016129
C110  C     C_R   0.618670 0.352576 0.894828 -0.016828
C111  C     C_R   0.381476 0.647797 0.105347 -0.020201
C112  C     C_R   0.381058 0.353029 0.105314 -0.016914
C113  C     C_R   0.618542 0.647798 0.894634 -0.020537
C114  C     C_R   0.136679 0.828370 0.807696 -0.135534
C115  C     C_R   0.863695 0.172025 0.192471 -0.155332
C116  C     C_R   0.863367 0.828276 0.192242 -0.147643
C117  C     C_R   0.204174 0.769757 0.671130 0.535829
C118  C     C_R   0.136265 0.171996 0.807445 -0.137105
C119  C     C_R   0.636601 0.328244 0.807754 -0.146767
C120  C     C_R   0.363761 0.672098 0.192440 -0.154623
C121  C     C_R   0.363260 0.328379 0.192217 -0.149204
C122  C     C_R   0.636269 0.672058 0.807528 -0.154095
C123  C     C_R   0.181090 0.782784 0.768240 -0.043387
C124  C     C_R   0.820168 0.219099 0.231445 -0.004062
C125  C     C_R   0.818893 0.782774 0.231746 -0.048119
C126  C     C_R   0.179508 0.219545 0.768654 0.001466
C127  C     C_R   0.680990 0.282612 0.768307 -0.048216
C128  C     C_R   0.203694 0.231153 0.671218 0.580083
C129  C     C_R   0.320288 0.719263 0.231374 -0.002674
C130  C     C_R   0.318472 0.283419 0.231933 -0.047137
C131  C     C_R   0.679730 0.719258 0.768596 -0.004304
C132  C     C_R   0.206210 0.757195 0.819746 0.014447
C133  C     C_R   0.796469 0.246932 0.178993 0.012838
C134  C     C_R   0.793698 0.757292 0.180286 0.013806
C135  C     C_R   0.202680 0.248247 0.821445 0.013920
C136  C     C_R   0.706022 0.256883 0.819885 0.013325
C137  C     C_R   0.296728 0.747292 0.178808 0.017362
C138  C     C_R   0.292755 0.258866 0.180842 0.014464
C139  C     C_R   0.795831 0.769736 0.328861 0.532339
C140  C     C_R   0.703291 0.747338 0.821142 0.011936
C141  C     C_R   0.189625 0.784999 0.906243 -0.009415
C142  C     C_R   0.811537 0.217736 0.093770 -0.042047
C143  C     C_R   0.810317 0.785078 0.093782 -0.010513
C144  C     C_R   0.187497 0.219404 0.906884 -0.040278
C145  C     C_R   0.689397 0.284621 0.906431 -0.010331
C146  C     C_R   0.311833 0.718178 0.093522 -0.041478
C147  C     C_R   0.309530 0.286581 0.094292 -0.010278
C148  C     C_R   0.688188 0.718241 0.906419 -0.042012
C149  C     C_R   0.195841 0.632280 0.530625 0.532925
C150  C     C_R   0.543248 0.874209 0.513461 -0.127838
C151  C     C_R   0.804164 0.367715 0.469354 0.551196
C152  C     C_R   0.800565 0.630732 0.481696 0.532315
C153  C     C_R   0.199439 0.369265 0.518291 0.549492
C154  C     C_R   0.699723 0.130911 0.516662 0.533304
C155  C     C_R   0.302772 0.868357 0.475321 0.562255
C156  C     C_R   0.303126 0.131679 0.474444 0.547560
C157  C     C_R   0.696360 0.868211 0.527262 0.552341
C158  C     C_R   0.925926 0.903847 0.067052 0.552854
C159  C     C_R   0.074132 0.096138 0.932856 0.559779
C160  C     C_R   0.074090 0.903873 0.932928 0.557984
Cu1   Cu    Cu3+1 0.209920 0.785290 0.495070 0.977112
Cu2   Cu    Cu3+1 0.504760 0.500000 0.075850 0.949404
Cu3   Cu    Cu3+1 0.995240 0.000000 0.924150 0.953774
Cu4   Cu    Cu3+1 0.004760 0.000000 0.075850 0.949444
Cu5   Cu    Cu3+1 0.790080 0.214710 0.504930 1.012037
Cu6   Cu    Cu3+1 0.790080 0.785290 0.504930 1.022239
Cu7   Cu    Cu3+1 0.209920 0.214710 0.495070 0.960110
Cu8   Cu    Cu3+1 0.709920 0.285290 0.495070 1.019616
Cu9   Cu    Cu3+1 0.290080 0.714710 0.504930 1.008478
Cu10  Cu    Cu3+1 0.290080 0.285290 0.504930 1.031822
Cu11  Cu    Cu3+1 0.709920 0.714710 0.495070 1.008557
Cu12  Cu    Cu3+1 0.495240 0.500000 0.924150 0.953770
H1    H     H_    0.587137 0.830179 0.574763 0.149488
H2    H     H_    0.496263 0.175397 0.401624 0.107111
H3    H     H_    0.488002 0.820276 0.430491 0.119204
H4    H     H_    0.576707 0.165427 0.382759 0.103968
H5    H     H_    0.073380 0.345247 0.390856 0.121617
H6    H     H_    0.926677 0.654723 0.609002 0.102525
H7    H     H_    0.996041 0.332657 0.405354 0.112707
H8    H     H_    0.004004 0.667324 0.594493 0.104653
H9    H     H_    0.255181 0.872900 0.938821 0.119730
H10   H     H_    0.744863 0.130429 0.063074 0.110859
H11   H     H_    0.744597 0.872887 0.061575 0.115033
H12   H     H_    0.412140 0.175587 0.400364 0.149509
H13   H     H_    0.253332 0.132003 0.939183 0.116914
H14   H     H_    0.755220 0.372321 0.938544 0.115036
H15   H     H_    0.245512 0.630714 0.062194 0.111395
H16   H     H_    0.244421 0.374725 0.060808 0.112838
H17   H     H_    0.754712 0.630919 0.937294 0.110454
H18   H     H_    0.191102 0.659657 0.985772 0.102415
H19   H     H_    0.809694 0.343307 0.014779 0.126676
H20   H     H_    0.809062 0.659871 0.013839 0.102628
H21   H     H_    0.189908 0.345584 0.984607 0.124732
H22   H     H_    0.690502 0.159410 0.986553 0.103711
H23   H     H_    0.411090 0.822519 0.405948 0.154979
H24   H     H_    0.309704 0.843929 0.014994 0.127656
H25   H     H_    0.307654 0.161092 0.015670 0.104870
H26   H     H_    0.690122 0.843900 0.985296 0.126727
H27   H     H_    0.133948 0.853050 0.009372 0.136815
H28   H     H_    0.865418 0.147343 0.991570 0.154360
H29   H     H_    0.866043 0.853064 0.990629 0.136315
H30   H     H_    0.133782 0.148858 0.009099 0.151757
H31   H     H_    0.633753 0.352713 0.009546 0.136584
H32   H     H_    0.365666 0.647728 0.991355 0.153698
H33   H     H_    0.365653 0.354003 0.990912 0.138316
H34   H     H_    0.653551 0.161921 0.406678 0.151967
H35   H     H_    0.634353 0.647805 0.008621 0.153744
H36   H     H_    0.117090 0.847193 0.769175 0.163202
H37   H     H_    0.882711 0.152075 0.231360 0.161390
H38   H     H_    0.883016 0.847014 0.230715 0.163303
H39   H     H_    0.117659 0.151341 0.768255 0.166212
H40   H     H_    0.617061 0.347152 0.769197 0.164043
H41   H     H_    0.382683 0.651997 0.231401 0.161427
H42   H     H_    0.383239 0.346517 0.230435 0.161718
H43   H     H_    0.617356 0.651914 0.768562 0.162534
H44   H     H_    0.203977 0.502551 0.666908 0.101418
H45   H     H_    0.151573 0.346901 0.409574 0.166294
H46   H     H_    0.795973 0.497349 0.333113 0.105514
H47   H     H_    0.694103 0.998906 0.670524 0.101396
H48   H     H_    0.219647 0.997363 0.511164 0.131864
H49   H     H_    0.243158 0.654745 0.751871 0.115563
H50   H     H_    0.720673 0.303602 0.200880 0.100035
H51   H     H_    0.756542 0.654927 0.248202 0.119848
H52   H     H_    0.277814 0.306353 0.800331 0.106976
H53   H     H_    0.742922 0.154485 0.751785 0.122726
H54   H     H_    0.221117 0.804312 0.200405 0.102615
H55   H     H_    0.254346 0.156852 0.248255 0.121150
H56   H     H_    0.848480 0.653068 0.590325 0.146800
H57   H     H_    0.778889 0.804449 0.799536 0.099748
H58   H     H_    0.914919 0.332078 0.394530 0.143190
H59   H     H_    0.085093 0.667891 0.605391 0.139140
H60   H     H_    0.518549 0.826799 0.529508 0.118854
O1    O     O_R   0.255040 0.869590 0.478480 -0.501751
O2    O     O_R   0.817950 0.203450 0.375560 -0.526442
O3    O     O_R   0.817950 0.796550 0.375560 -0.507463
O4    O     O_R   0.182050 0.203450 0.624440 -0.509605
O5    O     O_R   0.682050 0.296550 0.624440 -0.505196
O6    O     O_R   0.317950 0.703450 0.375560 -0.520544
O7    O     O_R   0.317950 0.296550 0.375560 -0.514875
O8    O     O_R   0.682050 0.703450 0.624440 -0.522724
O9    O     O_R   0.250530 0.763330 0.367210 -0.466361
O10   O     O_R   0.749470 0.236670 0.632790 -0.506517
O11   O     O_R   0.749470 0.763330 0.632790 -0.479752
O12   O     O_R   0.744960 0.130410 0.521520 -0.460471
O13   O     O_R   0.250530 0.236670 0.367210 -0.523820
O14   O     O_R   0.750530 0.263330 0.367210 -0.482835
O15   O     O_R   0.249470 0.736670 0.632790 -0.509020
O16   O     O_R   0.249470 0.263330 0.632790 -0.464377
O17   O     O_R   0.750530 0.736670 0.367210 -0.508683
O18   O     O_R   0.177260 0.690030 0.513710 -0.526409
O19   O     O_R   0.822740 0.309970 0.486290 -0.518771
O20   O     O_R   0.822740 0.690030 0.486290 -0.533947
O21   O     O_R   0.177260 0.309970 0.513710 -0.525946
O22   O     O_R   0.677260 0.190030 0.513710 -0.536528
O23   O     O_R   0.744960 0.869590 0.521520 -0.440547
O24   O     O_R   0.322740 0.809970 0.486290 -0.519192
O25   O     O_R   0.322740 0.190030 0.486290 -0.526619
O26   O     O_R   0.677260 0.809970 0.513710 -0.525759
O27   O     O_R   0.051640 0.926880 0.885090 -0.508107
O28   O     O_R   0.948360 0.073120 0.114910 -0.508677
O29   O     O_R   0.948360 0.926880 0.114910 -0.510284
O30   O     O_R   0.051640 0.073120 0.885090 -0.503559
O31   O     O_R   0.551640 0.426880 0.885090 -0.509229
O32   O     O_R   0.448360 0.573120 0.114910 -0.507463
O33   O     O_R   0.448360 0.426880 0.114910 -0.510636
O34   O     O_R   0.255040 0.130410 0.478480 -0.515510
O35   O     O_R   0.551640 0.573120 0.885090 -0.507235
O36   O     O_R   0.940620 0.926560 0.986760 -0.516167
O37   O     O_R   0.059380 0.073440 0.013240 -0.512866
O38   O     O_R   0.059380 0.926560 0.013240 -0.514667
O39   O     O_R   0.940620 0.073440 0.986760 -0.511899
O40   O     O_R   0.440620 0.426560 0.986760 -0.513884
O41   O     O_R   0.559380 0.573440 0.013240 -0.511652
O42   O     O_R   0.559380 0.426560 0.013240 -0.514911
O43   O     O_R   0.440620 0.573440 0.986760 -0.511594
O44   O     O_2   0.271455 0.496444 0.551153 -0.447134
O45   O     O_R   0.755040 0.369590 0.478480 -0.444921
O46   O     O_2   0.728526 0.503561 0.448902 -0.447376
O47   O     O_2   0.765616 0.002948 0.561606 -0.443649
O48   O     O_2   0.227514 0.004494 0.622528 -0.498776
O49   O     O_2   0.290755 0.707482 0.790228 -0.486112
O50   O     O_2   0.764754 0.359261 0.243899 -0.494271
O51   O     O_2   0.709050 0.707863 0.209838 -0.488473
O52   O     O_2   0.233880 0.360468 0.755723 -0.493700
O53   O     O_2   0.790412 0.206823 0.790708 -0.485784
O54   O     O_2   0.265111 0.859567 0.243945 -0.494815
O55   O     O_2   0.207012 0.212483 0.212001 -0.503335
O56   O     O_R   0.244960 0.630410 0.521520 -0.464832
O57   O     O_2   0.734883 0.859627 0.755984 -0.487669
O58   O     O_R   0.244960 0.369590 0.521520 -0.440996
O59   O     O_R   0.755040 0.630410 0.478480 -0.462220
O60   O     O_R   0.182050 0.796550 0.624440 -0.514006

loop_
_geom_bond_atom_site_label_1
_geom_bond_atom_site_label_2
_ccdc_geom_bond_type
C4    O40   A    
C91   H16   S    
C28   C47   A    
C128  O4    A    
C89   H14   S    
C36   C42   A    
C74   C94   A    
C94   H13   S    
C51   H34   S    
C119  H40   S    
C13   C18   A    
C99   C143  A    
C48   C150  A    
C157  O23   A    
C16   C35   A    
Cu1   O18   S    
Cu2   O41   S    
C155  O1    A    
C150  H60   S    
C122  H43   S    
C65   O53   D    
C37   C42   A    
C67   C138  S    
C97   H27   S    
C74   C144  S    
C131  C140  A    
C61   C132  S    
C134  C143  A    
C93   H9    S    
C113  C122  A    
C10   C20   A    
Cu7   Cu10  S    
C77   C147  S    
Cu1   O9    S    
C78   C148  S    
C97   C105  A    
C24   C51   A    
C70   C79   A    
C76   C146  S    
C100  C109  A    
C8    C16   A    
Cu6   O11   S    
Cu9   O24   S    
Cu10  O16   S    
C102  C111  A    
C139  O17   A    
C109  C118  A    
C40   C58   S    
C137  C146  A    
C70   C93   A    
C127  C136  A    
C100  C144  A    
C4    O33   A    
Cu6   O20   S    
C82   C91   A    
C29   C45   A    
C103  C112  A    
C61   O49   D    
C49   H12   S    
C50   H23   S    
C39   C56   S    
C153  O58   A    
Cu8   O22   S    
C65   H53   S    
C95   O7    A    
C81   C90   A    
C124  C133  A    
C5    O35   A    
Cu9   O6    S    
C117  O60   A    
C139  O3    A    
C5    O41   A    
C24   H4    S    
Cu12  O43   S    
C149  O18   A    
C13   H3    S    
C14   C57   A    
C153  O21   A    
C77   C91   A    
C5    C113  S    
C2    C19   A    
Cu11  O26   S    
C25   C55   A    
Cu11  O17   S    
Cu2   O33   S    
C1    C129  S    
C9    C15   A    
Cu7   O34   S    
C92   H10   S    
C121  H42   S    
C159  O30   A    
C46   C53   A    
C72   C96   A    
C156  O34   A    
C106  C124  S    
C33   C149  S    
C87   H26   S    
C76   C85   A    
C78   C87   A    
C159  O37   A    
Cu4   O37   S    
C11   C18   A    
Cu7   O21   S    
Cu3   O36   S    
Cu9   O56   S    
C121  C130  A    
C25   C43   A    
C103  C147  A    
C99   C108  A    
C12   C68   A    
C101  C145  A    
C133  C142  A    
C105  C160  S    
Cu3   O27   S    
C3    O39   A    
C104  H35   S    
C82   H21   S    
C102  H32   S    
C26   C45   A    
C85   C93   A    
C71   C92   A    
C7    C111  S    
C29   C38   A    
C56   O44   D    
C95   C130  S    
Cu2   O32   S    
C84   O11   A    
Cu1   Cu9   S    
C98   C142  A    
C129  C137  A    
C120  C129  A    
C63   H51   S    
C66   O54   D    
C38   C41   A    
C101  H31   S    
C120  H41   S    
C160  O27   A    
Cu9   O15   S    
Cu3   O39   S    
C118  H39   S    
C69   H57   S    
C155  O24   A    
C64   O52   D    
C67   H55   S    
C8    C12   A    
C10   C45   A    
Cu6   O23   S    
Cu1   O1    S    
C114  C123  A    
C116  C125  A    
C96   H11   S    
C109  C159  S    
C122  C131  A    
C152  O20   A    
C156  O25   A    
C29   C51   A    
C27   C47   A    
C132  C141  A    
C70   C141  S    
C126  C128  S    
C106  O2    A    
C103  H33   S    
C110  C119  A    
C112  C121  A    
C95   O13   A    
Cu2   O42   S    
C28   C37   A    
C20   C150  A    
C30   C39   A    
C62   H50   S    
C6    O42   A    
C56   H44   S    
C75   C89   A    
C104  C113  A    
C34   C157  S    
Cu2   Cu12  S    
C15   C46   A    
C54   H58   S    
C27   C49   A    
C25   C33   A    
C54   C57   A    
C119  C127  A    
C125  C134  A    
C35   H5    S    
Cu10  O7    S    
C59   O47   D    
C104  C148  A    
C11   C47   A    
C8    C43   A    
Cu12  O40   S    
C55   C68   A    
C78   C90   A    
C11   C19   A    
C62   C133  S    
C60   H48   S    
C123  C132  A    
Cu11  O8    S    
C31   C40   A    
C64   H52   S    
C80   C89   A    
C37   C155  S    
C116  H38   S    
C100  H30   S    
C88   H15   S    
C72   C81   A    
C26   C48   A    
C69   C140  S    
Cu5   O2    S    
C99   H29   S    
C34   C41   A    
C74   C82   A    
C79   C88   A    
Cu8   O45   S    
Cu7   O4    S    
C154  O12   A    
C115  H37   S    
C63   C134  S    
C55   H59   S    
C57   H7    S    
C151  O19   A    
C73   C127  S    
C75   C145  S    
C23   C44   A    
C9    C14   A    
C12   C15   A    
Cu4   O29   S    
Cu1   O60   S    
C52   H45   S    
C97   C141  A    
C126  C135  A    
C130  C138  A    
C80   H19   S    
C36   C156  S    
C154  O22   A    
Cu4   O38   S    
C115  C124  A    
C62   O50   D    
Cu10  O58   S    
C85   H24   S    
C27   C36   A    
C21   C30   A    
C98   H28   S    
C23   C32   A    
C108  C116  A    
Cu12  O31   S    
C101  C110  A    
C75   C83   A    
Cu3   O30   S    
C114  H36   S    
Cu10  O25   S    
C117  C123  S    
C61   H49   S    
C65   C136  S    
C98   C107  A    
C86   H25   S    
C60   O48   D    
C35   C52   A    
Cu5   O10   S    
C2    H2    S    
C72   C143  S    
Cu8   O14   S    
C58   H46   S    
C46   H6    S    
Cu3   Cu4   S    
C140  C148  A    
C63   O51   D    
C125  C139  S    
C83   C92   A    
C32   C151  S    
C33   C39   A    
Cu12  O35   S    
C7    O43   A    
C53   H56   S    
C108  C158  S    
C10   C17   A    
C3    O28   A    
C67   O55   D    
C86   C94   A    
C17   C19   A    
C21   C43   A    
C28   C50   A    
C26   C34   A    
C30   C153  S    
C22   C44   A    
C58   O46   D    
C79   H18   S    
C6    O31   A    
C76   C88   A    
C136  C145  A    
C4    C112  S    
C64   C135  S    
Cu6   Cu11  S    
C6    C110  S    
C66   H54   S    
C84   O8    A    
C71   C80   A    
C22   C53   A    
C117  O15   A    
C17   C24   A    
C158  O36   A    
C22   C31   A    
C73   O10   A    
C128  O16   A    
C105  C114  A    
C41   C59   S    
C42   C60   S    
C3    C107  S    
Cu7   O13   S    
C68   H8    S    
C13   C50   A    
C111  C120  A    
C81   H20   S    
C73   O5    A    
C2    C49   A    
C157  O26   A    
C138  C147  A    
C158  O29   A    
C87   C96   A    
C7    O32   A    
Cu5   O12   S    
C106  O14   A    
C107  C115  A    
C1    O9    A    
C71   C142  S    
C135  C144  A    
C77   C86   A    
Cu5   Cu8   S    
Cu4   O28   S    
C14   C16   A    
C152  O59   A    
C38   C154  S    
C23   C54   A    
C48   H1    S    
Cu6   O3    S    
C9    C44   A    
Cu5   O19   S    
Cu8   O5    S    
C1    O6    A    
C84   C131  S    
C160  O38   A    
C83   H22   S    
C151  O45   A    
C59   H47   S    
C102  C146  A    
C31   C152  S    
C66   C137  S    
C149  O56   A    
C69   O57   D    
C18   C20   A    
C32   C40   A    
C118  C126  A    
C21   C52   A    
C90   H17   S    
Cu11  O59   S    
