data_mof_unit_67347.cif
_audit_creation_date              2013-03-05T16:08:10-0500
_audit_creation_method            fapswitch 2.2
_symmetry_space_group_name_H-M    P1
_symmetry_Int_Tables_number       1
_space_group_crystal_system       triclinic
_cell_length_a                    20.370345
_cell_length_b                    23.338638
_cell_length_c                    8.926876
_cell_angle_alpha                 90.232463
_cell_angle_beta                  105.528482
_cell_angle_gamma                 90.010184
_cell_volume                      4089.02751826

loop_
_atom_site_label
_atom_site_type_symbol
_atom_site_description
_atom_site_fract_x
_atom_site_fract_y
_atom_site_fract_z
_atom_type_partial_charge
P1    P     P_3+3 0.853370 0.434890 0.996520 0.726846
P2    P     P_3+3 0.853370 0.565110 0.496520 0.745394
P3    P     P_3+3 0.353370 0.934890 0.996520 0.746847
P4    P     P_3+3 0.353370 0.065110 0.496520 0.720035
O1    O     O_2   0.860260 0.414960 0.826400 -0.239552
O2    O     O_2   0.860260 0.585040 0.326400 -0.229029
O3    O     O_2   0.360260 0.914960 0.826400 -0.231155
O4    O     O_2   0.360260 0.085040 0.326400 -0.234304
O5    O     O_3   0.918600 0.470180 0.098890 -0.332854
O6    O     O_3   0.918600 0.529820 0.598890 -0.308703
O7    O     O_3   0.418600 0.970180 0.098890 -0.314205
O8    O     O_3   0.418600 0.029820 0.598890 -0.324876
O9    O     O_3   0.975750 0.362410 0.628650 -0.320066
O10   O     O_3   0.975750 0.637590 0.128650 -0.318538
O11   O     O_3   0.475750 0.862410 0.628650 -0.291374
O12   O     O_3   0.475750 0.137590 0.128650 -0.316960
O13   O     O_2   0.869992 0.314507 0.679443 -0.197502
O14   O     O_2   0.869138 0.682364 0.181954 -0.197828
O15   O     O_2   0.369200 0.815725 0.679300 -0.210793
O16   O     O_2   0.368267 0.181174 0.181872 -0.199564
O17   O     O_3   0.771837 0.469627 0.958632 -0.531824
O18   O     O_3   0.771957 0.529644 0.459787 -0.567506
O19   O     O_3   0.271365 0.968420 0.956509 -0.542778
O20   O     O_3   0.272536 0.029455 0.464179 -0.569139
O21   O     O_3   0.960165 0.242908 0.637614 -0.468287
O22   O     O_3   0.954970 0.757345 0.149793 -0.477158
O23   O     O_3   0.458703 0.743285 0.643157 -0.461269
O24   O     O_3   0.454500 0.257568 0.151465 -0.523454
C1    C     C_3   0.030121 0.166205 0.578296 0.387950
C2    C     C_3   0.011884 0.841458 0.096117 0.370867
C3    C     C_3   0.527489 0.666021 0.581994 0.285277
C4    C     C_3   0.515971 0.341702 0.100907 0.335987
H1    H     H_    0.041572 0.146451 0.695280 0.134936
H2    H     H_    0.021332 0.855411 0.218563 0.057588
H3    H     H_    0.536863 0.645769 0.697691 0.124442
H4    H     H_    0.534532 0.356882 0.222582 0.070544
P5    P     P_3+3 0.146350 0.434230 0.693140 0.634699
P6    P     P_3+3 0.146350 0.565770 0.193140 0.568301
P7    P     P_3+3 0.646350 0.934230 0.693140 0.604230
P8    P     P_3+3 0.646350 0.065770 0.193140 0.604924
P9    P     P_3+3 0.086474 0.308673 0.117848 0.669918
P10   P     P_3+3 0.087888 0.690032 0.618761 0.685047
P11   P     P_3+3 0.586790 0.808792 0.117905 0.685670
P12   P     P_3+3 0.588880 0.189637 0.620201 0.683863
O25   O     O_2   0.139400 0.414340 0.863230 -0.284973
O26   O     O_2   0.139400 0.585660 0.363230 -0.286307
O27   O     O_2   0.639400 0.914340 0.863230 -0.287100
O28   O     O_2   0.639400 0.085660 0.363230 -0.295652
O29   O     O_3   0.023740 0.362300 0.060930 -0.294978
O30   O     O_3   0.023740 0.637700 0.560930 -0.259418
O31   O     O_3   0.523740 0.862300 0.060930 -0.255241
O32   O     O_3   0.523740 0.137700 0.560930 -0.278475
O33   O     O_2   0.139515 0.326948 0.032085 -0.260996
O34   O     O_2   0.139551 0.670610 0.530661 -0.245582
O35   O     O_2   0.639388 0.826225 0.030137 -0.262190
O36   O     O_2   0.639928 0.172099 0.528411 -0.241203
O37   O     O_3   0.219859 0.477045 0.741428 -0.548607
O38   O     O_3   0.218708 0.521793 0.240470 -0.561994
O39   O     O_3   0.720082 0.976902 0.741632 -0.590776
O40   O     O_3   0.718204 0.021425 0.241372 -0.585892
O41   O     O_3   0.049346 0.245604 0.012917 -0.471477
O42   O     O_3   0.054205 0.754837 0.521849 -0.497215
O43   O     O_3   0.549061 0.744878 0.018200 -0.480541
O44   O     O_3   0.554433 0.256318 0.534475 -0.513339
C5    C     C_3   0.001303 0.219399 0.080744 0.655316
C6    C     C_3   0.006295 0.779859 0.592082 0.628798
C7    C     C_3   0.500604 0.720112 0.087567 0.654771
C8    C     C_3   0.507187 0.277085 0.612948 0.484124
H5    H     H_    0.026836 0.209597 0.202903 0.054451
H6    H     H_    0.032396 0.788919 0.715364 0.053336
H7    H     H_    0.526596 0.708973 0.208198 0.009731
H8    H     H_    0.535407 0.282941 0.735152 0.073967
C9    C     C_3   0.967946 0.163055 0.000076 0.456017
C10   C     C_3   0.975696 0.837460 0.519728 0.416731
C11   C     C_3   0.463818 0.665044 0.005511 0.457763
C12   C     C_3   0.472332 0.335503 0.561489 0.404864
C13   C     C_3   0.203698 0.465994 0.277265 0.720049
C14   C     C_3   0.204687 0.534683 0.759034 0.767211
C15   C     C_3   0.701222 0.964457 0.262713 0.725560
C16   C     C_3   0.705538 0.034351 0.764569 0.724870
H9    H     H_    0.170190 0.444679 0.172251 0.057854
H10   H     H_    0.177728 0.552614 0.644177 0.128287
H11   H     H_    0.673520 0.945530 0.149214 0.105886
H12   H     H_    0.678201 0.053791 0.651930 0.099875
C17   C     C_3   0.270850 0.431823 0.332760 0.428858
C18   C     C_3   0.271790 0.567871 0.825575 0.318607
C19   C     C_3   0.767382 0.930312 0.331149 0.333802
C20   C     C_3   0.773089 0.066808 0.832517 0.339318
H13   H     H_    0.287155 0.432253 0.462663 0.101246
H14   H     H_    0.286725 0.563893 0.954834 0.086202
H15   H     H_    0.778959 0.930956 0.460750 0.073096
H16   H     H_    0.788744 0.061122 0.961287 0.089801
Ba1   Ba    Ba6+2 0.999900 0.457470 0.844900 1.872704
Ba2   Ba    Ba6+2 0.999900 0.542530 0.344900 1.894049
Ba3   Ba    Ba6+2 0.499900 0.957470 0.844900 1.897235
Ba4   Ba    Ba6+2 0.499900 0.042530 0.344900 1.903834
C21   C     C_3   0.757170 0.527396 0.914462 0.710795
C22   C     C_3   0.754874 0.472184 0.413439 0.690446
C23   C     C_3   0.254401 0.025598 0.909261 0.682391
C24   C     C_3   0.254505 0.971991 0.419556 0.729745
C25   C     C_3   0.681695 0.539435 0.912873 0.449980
C26   C     C_3   0.679576 0.461874 0.422156 0.472798
C27   C     C_3   0.176862 0.034168 0.901584 0.462027
C28   C     C_3   0.181393 0.962054 0.439101 0.438108
H17   H     H_    0.677992 0.533940 0.032937 0.115501
H18   H     H_    0.681903 0.455798 0.547446 0.063841
H19   H     H_    0.172808 0.035083 0.023033 0.114983
H20   H     H_    0.186090 0.958651 0.565663 0.067447
O45   O     O_3   0.081330 0.529680 0.090830 -0.416544
O46   O     O_3   0.081330 0.470320 0.590830 -0.379655
O47   O     O_3   0.581330 0.029680 0.090830 -0.356705
O48   O     O_3   0.581330 0.970320 0.590830 -0.366190
P13   P     P_3+3 0.915628 0.691972 0.073461 0.730861
P14   P     P_3+3 0.916552 0.307613 0.569571 0.733933
P15   P     P_3+3 0.415128 0.191745 0.074448 0.727897
P16   P     P_3+3 0.416180 0.807814 0.570762 0.783643
C29   C     C_3   0.021206 0.232049 0.593879 0.818444
C30   C     C_3   0.011803 0.774798 0.097267 0.843741
C31   C     C_3   0.519684 0.732258 0.600599 0.865880
C32   C     C_3   0.512680 0.274598 0.102012 0.803576
H21   H     H_    0.918869 0.157603 0.031892 0.020629
H22   H     H_    0.938139 0.851387 0.583161 0.068156
H23   H     H_    0.412839 0.663279 0.029934 0.013354
H24   H     H_    0.431352 0.340012 0.621515 0.110548
C33   C     C_R   0.137073 0.690669 0.834348 0.148026
C34   C     C_R   0.137888 0.308199 0.333794 0.199083
C35   C     C_R   0.638478 0.189552 0.835239 0.155879
C36   C     C_R   0.638475 0.808895 0.332711 0.120066
C37   C     C_R   0.188602 0.732073 0.902155 -0.184854
C38   C     C_R   0.190037 0.267231 0.402060 -0.238704
C39   C     C_R   0.689674 0.231085 0.903252 -0.172363
C40   C     C_R   0.690004 0.767276 0.401283 -0.273753
C41   C     C_R   0.785031 0.321025 0.041368 -0.078932
C42   C     C_R   0.787150 0.678696 0.544784 -0.111305
C43   C     C_R   0.284948 0.821501 0.041841 -0.088972
C44   C     C_R   0.288538 0.179635 0.543627 -0.109804
C45   C     C_R   0.744088 0.323815 0.887152 0.582842
C46   C     C_R   0.744642 0.673544 0.394202 0.547512
C47   C     C_R   0.245100 0.823964 0.886378 0.591155
C48   C     C_R   0.246587 0.174664 0.392544 0.550126
C49   C     C_R   0.206076 0.776904 0.814291 0.184881
C50   C     C_R   0.204317 0.218926 0.319806 0.237278
C51   C     C_R   0.706798 0.275920 0.815641 0.169872
C52   C     C_R   0.703168 0.718148 0.319897 0.235656
C53   C     C_R   0.836418 0.364462 0.106164 0.230942
C54   C     C_R   0.837780 0.635124 0.609705 0.248492
C55   C     C_R   0.336390 0.865072 0.107684 0.234504
C56   C     C_R   0.338207 0.135663 0.609048 0.238106
C57   C     C_R   0.869064 0.359173 0.268653 0.265777
C58   C     C_R   0.870990 0.641082 0.771647 0.257020
C59   C     C_R   0.369729 0.859355 0.269933 0.250963
C60   C     C_R   0.368410 0.140079 0.772949 0.283104
C61   C     C_R   0.162208 0.636470 0.084830 0.191428
C62   C     C_R   0.164323 0.363958 0.584498 0.242689
C63   C     C_R   0.663088 0.136079 0.085908 0.194631
C64   C     C_R   0.663491 0.863679 0.584420 0.171995
C65   C     C_R   0.215535 0.678121 0.147981 -0.154095
C66   C     C_R   0.217118 0.322231 0.649868 -0.162966
C67   C     C_R   0.716514 0.177520 0.148914 -0.153812
C68   C     C_R   0.716540 0.821983 0.649449 -0.155086
C69   C     C_R   0.224787 0.728212 0.061658 0.016048
C70   C     C_R   0.227732 0.272781 0.561669 0.001429
C71   C     C_R   0.725704 0.227478 0.062447 0.021564
C72   C     C_R   0.727132 0.772456 0.561404 -0.005956
C73   C     C_R   0.262377 0.670177 0.292581 0.409898
C74   C     C_R   0.259616 0.327875 0.801958 0.437648
C75   C     C_R   0.763632 0.169409 0.292775 0.401913
C76   C     C_R   0.759088 0.827577 0.801519 0.446730
C77   C     C_R   0.808933 0.213114 0.365197 0.538115
C78   C     C_R   0.800807 0.781996 0.876275 0.488599
C79   C     C_R   0.307629 0.713850 0.365353 0.542835
C80   C     C_R   0.301011 0.282145 0.876832 0.495128
C81   C     C_R   0.814922 0.265426 0.287768 -0.168319
C82   C     C_R   0.812984 0.733079 0.792385 -0.155051
C83   C     C_R   0.314354 0.765846 0.287664 -0.189571
C84   C     C_R   0.313198 0.233266 0.792797 -0.171325
C85   C     C_R   0.775420 0.271515 0.130928 -0.048430
C86   C     C_R   0.776799 0.728495 0.632454 -0.012859
C87   C     C_R   0.274777 0.772110 0.130829 -0.049128
C88   C     C_R   0.277659 0.229045 0.632259 -0.026011
C89   C     C_R   0.860930 0.310565 0.359161 0.285137
C90   C     C_R   0.860487 0.688969 0.862697 0.281973
C91   C     C_R   0.361443 0.810356 0.358995 0.329466
C92   C     C_R   0.359207 0.188368 0.864133 0.282124
C93   C     C_R   0.121552 0.647148 0.930012 0.198390
C94   C     C_R   0.124664 0.353359 0.428528 0.142662
C95   C     C_R   0.622873 0.146384 0.931180 0.201734
C96   C     C_R   0.622919 0.852559 0.429276 0.264714
N1    N     N_R   0.079154 0.255516 0.714034 0.200236
O49   O     O_R   0.123285 0.222632 0.806205 -0.318111
O50   O     O_R   0.082518 0.309885 0.742589 -0.377365
N2    N     N_R   0.075083 0.753775 0.205153 0.197783
O51   O     O_R   0.129912 0.785066 0.243034 -0.327296
O52   O     O_R   0.079778 0.700431 0.245901 -0.367040
N3    N     N_R   0.576900 0.755057 0.722393 0.202081
O53   O     O_R   0.621104 0.721966 0.813464 -0.301146
O54   O     O_R   0.582947 0.809759 0.743594 -0.362793
N4    N     N_R   0.575180 0.252531 0.210418 0.198169
O55   O     O_R   0.631516 0.281883 0.241888 -0.358487
O56   O     O_R   0.578537 0.199018 0.248988 -0.360182
O57   O     O_3   0.260090 0.375022 0.280663 -0.801646
H25   H     H_    0.299118 0.352450 0.343100 0.351836
O58   O     O_3   0.261958 0.625742 0.785710 -0.755013
H26   H     H_    0.301007 0.646922 0.853657 0.328165
O59   O     O_3   0.758695 0.873536 0.278170 -0.787926
H27   H     H_    0.794842 0.850705 0.349723 0.327737
O60   O     O_3   0.763593 0.125162 0.798471 -0.759115
H28   H     H_    0.803385 0.145456 0.866527 0.331516
N5    N     N_R   0.325302 0.457125 0.275731 0.280500
O61   O     O_R   0.315367 0.468220 0.128719 -0.338151
O62   O     O_R   0.382409 0.472302 0.373324 -0.207684
N6    N     N_R   0.326527 0.544647 0.765626 0.252495
O63   O     O_R   0.320104 0.542881 0.616865 -0.317295
O64   O     O_R   0.380404 0.522598 0.860446 -0.240632
N7    N     N_R   0.824598 0.956064 0.285785 0.256461
O65   O     O_R   0.820531 0.964831 0.139896 -0.337676
O66   O     O_R   0.875530 0.977600 0.391350 -0.240128
N8    N     N_R   0.827035 0.044584 0.768390 0.248533
O67   O     O_R   0.819492 0.044502 0.619191 -0.334619
O68   O     O_R   0.881757 0.022483 0.859876 -0.245993
N9    N     N_R   0.764662 0.534539 0.762150 0.151473
O69   O     O_R   0.729705 0.572687 0.668515 -0.386710
O70   O     O_R   0.818388 0.512343 0.737132 -0.450057
N10   N     N_R   0.761156 0.465527 0.259290 0.175568
O71   O     O_R   0.726861 0.426194 0.167239 -0.356179
O72   O     O_R   0.819103 0.482416 0.243230 -0.381918
N11   N     N_R   0.265568 0.033441 0.760477 0.157754
O73   O     O_R   0.233738 0.074202 0.671773 -0.387745
O74   O     O_R   0.324720 0.017346 0.750174 -0.371790
N12   N     N_R   0.255346 0.965403 0.261204 0.174463
O75   O     O_R   0.223616 0.923240 0.176423 -0.338069
O76   O     O_R   0.307789 0.987832 0.230408 -0.459173
N13   N     N_R   0.801216 0.568183 0.019116 0.198775
O77   O     O_R   0.866567 0.565041 0.044554 -0.355924
O78   O     O_R   0.775824 0.615877 0.053552 -0.307110
N14   N     N_R   0.798740 0.429926 0.512070 0.205290
O79   O     O_R   0.774985 0.378612 0.517734 -0.420884
O80   O     O_R   0.864174 0.435646 0.545733 -0.270647
N15   N     N_R   0.295420 0.067775 0.015295 0.213901
O81   O     O_R   0.361133 0.064615 0.049040 -0.277088
O82   O     O_R   0.268848 0.116807 0.035089 -0.367422
N16   N     N_R   0.299201 0.929145 0.512598 0.188063
O83   O     O_R   0.276174 0.877135 0.509056 -0.368493
O84   O     O_R   0.364460 0.935978 0.549781 -0.344112
N17   N     N_R   0.633888 0.500274 0.810829 0.263096
O85   O     O_R   0.575228 0.519358 0.729548 -0.199816
O86   O     O_R   0.642672 0.445420 0.826825 -0.286371
N18   N     N_R   0.634786 0.510245 0.367206 0.279355
O87   O     O_R   0.618149 0.522806 0.220538 -0.287314
O88   O     O_R   0.594731 0.526836 0.449982 -0.192926
N19   N     N_R   0.133831 0.987376 0.821601 0.274942
O89   O     O_R   0.071245 0.998187 0.744781 -0.156966
O90   O     O_R   0.149715 0.935051 0.863336 -0.275536
N20   N     N_R   0.135208 0.009274 0.378196 0.246969
O91   O     O_R   0.119127 0.020775 0.230780 -0.294052
O92   O     O_R   0.097618 0.029489 0.462794 -0.210984
O93   O     O_3   0.664629 0.596069 0.865444 -0.617565
H29   H     H_    0.620676 0.604689 0.885844 0.402454
O94   O     O_3   0.649934 0.413597 0.336128 -0.640599
H30   H     H_    0.653789 0.381265 0.407984 0.397376
O95   O     O_3   0.151235 0.085300 0.825841 -0.638582
H31   H     H_    0.152367 0.114995 0.904572 0.415718
O96   O     O_3   0.153658 0.910366 0.369034 -0.620490
H32   H     H_    0.104855 0.910355 0.365346 0.379170
O97   O     O_3   0.019441 0.255234 0.449164 -0.813473
H33   H     H_    0.025189 0.296817 0.462316 0.313302
O98   O     O_3   0.006875 0.755385 0.946913 -0.791595
H34   H     H_    0.025485 0.716116 0.955306 0.309002
O99   O     O_3   0.518414 0.758582 0.460489 -0.771968
H35   H     H_    0.563015 0.751185 0.441872 0.263007
O100  O     O_3   0.507483 0.254915 0.952501 -0.795871
H36   H     H_    0.528003 0.216326 0.961274 0.309047
N21   N     N_R   0.087447 0.154202 0.512430 0.243369
O101  O     O_R   0.077636 0.135699 0.371095 -0.330549
O102  O     O_R   0.149527 0.162264 0.594858 -0.349006
N22   N     N_R   0.065109 0.867269 0.036903 0.273462
O103  O     O_R   0.072470 0.922561 0.047113 -0.206503
O104  O     O_R   0.101341 0.837490 0.964995 -0.359517
N23   N     N_R   0.585707 0.652468 0.520259 0.220736
O105  O     O_R   0.576841 0.634933 0.378298 -0.344567
O106  O     O_R   0.647452 0.661528 0.603526 -0.349896
N24   N     N_R   0.563520 0.366050 0.021156 0.283495
O107  O     O_R   0.569688 0.421465 0.020185 -0.166634
O108  O     O_R   0.603879 0.334581 0.964801 -0.396025
O109  O     O_3   0.744310 0.372007 0.800446 -0.658546
H37   H     H_    0.701817 0.373419 0.715517 0.370564
O110  O     O_3   0.740390 0.623092 0.315207 -0.654906
H38   H     H_    0.694194 0.608032 0.307255 0.378772
O111  O     O_3   0.249615 0.870668 0.798200 -0.669911
H39   H     H_    0.207962 0.874607 0.713136 0.391081
O112  O     O_3   0.242661 0.124391 0.312396 -0.650132
H40   H     H_    0.197256 0.108158 0.307732 0.381299
N25   N     N_R   0.206408 0.766304 0.657346 0.264035
O113  O     O_R   0.251369 0.730907 0.633639 -0.323551
O114  O     O_R   0.175279 0.799736 0.545077 -0.254328
N26   N     N_R   0.178734 0.212593 0.157012 0.269291
O115  O     O_R   0.137282 0.170409 0.106256 -0.375651
O116  O     O_R   0.217113 0.230026 0.071591 -0.292773
N27   N     N_R   0.709500 0.264544 0.661253 0.268531
O117  O     O_R   0.755359 0.229301 0.641188 -0.312102
O118  O     O_R   0.676662 0.295731 0.546014 -0.329047
N28   N     N_R   0.679003 0.712006 0.156242 0.279986
O119  O     O_R   0.638509 0.669428 0.101607 -0.347221
O120  O     O_R   0.718122 0.730663 0.073960 -0.279370
O121  O     O_3   0.849545 0.203430 0.512401 -0.658563
H41   H     H_    0.836599 0.168518 0.560078 0.390724
O122  O     O_3   0.829570 0.785670 0.034265 -0.671255
H42   H     H_    0.802300 0.811082 0.083167 0.379254
O123  O     O_3   0.347750 0.704363 0.513264 -0.665921
H43   H     H_    0.334632 0.669513 0.560911 0.388766
O124  O     O_3   0.328864 0.285348 0.035233 -0.665471
H44   H     H_    0.301276 0.310724 0.083389 0.381777
O125  O     O_3   0.268118 0.617549 0.361357 -0.660508
H45   H     H_    0.315451 0.604564 0.371557 0.378022
O126  O     O_3   0.261742 0.379059 0.879187 -0.669205
H46   H     H_    0.308311 0.385328 0.945751 0.396586
O127  O     O_3   0.769614 0.116594 0.360654 -0.668363
H47   H     H_    0.817079 0.103855 0.371185 0.381445
O128  O     O_3   0.761202 0.878692 0.878852 -0.670177
H48   H     H_    0.808099 0.885296 0.942971 0.389492
O129  O     O_3   0.918150 0.397916 0.337612 -0.688122
H49   H     H_    0.949559 0.398901 0.271184 0.350521
O130  O     O_3   0.926469 0.607786 0.836162 -0.713922
H50   H     H_    0.912681 0.567555 0.828307 0.374661
O131  O     O_3   0.422546 0.895315 0.337828 -0.700012
H51   H     H_    0.405843 0.934815 0.325234 0.365941
O132  O     O_3   0.416184 0.100808 0.844055 -0.680818
H52   H     H_    0.447859 0.097703 0.778900 0.355536
O133  O     O_3   0.065742 0.613935 0.865999 -0.650323
H53   H     H_    0.042420 0.609416 0.948194 0.368028
O134  O     O_3   0.069248 0.386578 0.364805 -0.766996
H54   H     H_    0.044934 0.390781 0.445685 0.342117
O135  O     O_3   0.567275 0.113102 0.868358 -0.697171
H55   H     H_    0.542790 0.110889 0.949375 0.338863
O136  O     O_3   0.565884 0.884561 0.367071 -0.641518
H56   H     H_    0.542076 0.887857 0.449008 0.375744
N29   N     N_R   0.968009 0.139172 0.482842 0.262144
O137  O     O_R   0.945336 0.092604 0.531238 -0.256630
O138  O     O_R   0.939697 0.157206 0.342805 -0.419818
N30   N     N_R   0.946652 0.864764 0.008561 0.243561
O139  O     O_R   0.925637 0.911651 0.059540 -0.268512
O140  O     O_R   0.922834 0.851433 0.862451 -0.422510
N31   N     N_R   0.465326 0.640629 0.482622 0.270716
O141  O     O_R   0.436972 0.661906 0.346316 -0.431940
O142  O     O_R   0.442250 0.592872 0.523530 -0.253463
N32   N     N_R   0.448979 0.366256 0.033675 0.250216
O143  O     O_R   0.419871 0.359704 0.886231 -0.418956
O144  O     O_R   0.425912 0.404756 0.111915 -0.242249
N33   N     N_R   0.946555 0.258907 0.076257 0.187491
O145  O     O_R   0.954698 0.294895 0.188690 -0.513812
O146  O     O_R   0.897950 0.266483 0.950089 -0.388340
N34   N     N_R   0.950208 0.740925 0.583030 0.194395
O147  O     O_R   0.957089 0.704313 0.692829 -0.467206
O148  O     O_R   0.903163 0.732891 0.454152 -0.362530
N35   N     N_R   0.448231 0.761544 0.087293 0.175839
O149  O     O_R   0.459555 0.797033 0.201716 -0.437251
O150  O     O_R   0.402772 0.773714 0.959042 -0.398348
N36   N     N_R   0.452899 0.236177 0.597293 0.201558
O151  O     O_R   0.459878 0.198895 0.705454 -0.525651
O152  O     O_R   0.409627 0.227015 0.463338 -0.369379
O153  O     O_3   0.952504 0.167725 0.838665 -0.687916
H57   H     H_    0.921133 0.135681 0.794959 0.362519
O154  O     O_3   0.941485 0.830245 0.362698 -0.702960
H58   H     H_    0.910965 0.863689 0.331688 0.360548
O155  O     O_3   0.452759 0.668535 0.844802 -0.697309
H59   H     H_    0.419320 0.638183 0.798214 0.359428
O156  O     O_3   0.439455 0.338102 0.403414 -0.667252
H60   H     H_    0.472908 0.323989 0.351874 0.352831
N37   N     N_R   0.008042 0.111419 0.051886 0.273784
O157  O     O_R   0.988462 0.077139 0.146239 -0.199392
O158  O     O_R   0.043378 0.089608 0.964419 -0.270328
N38   N     N_R   0.026128 0.882721 0.536708 0.237790
O159  O     O_R   0.088063 0.874903 0.619642 -0.382443
O160  O     O_R   0.007321 0.933382 0.481771 -0.248814
N39   N     N_R   0.498393 0.611365 0.063850 0.270272
O161  O     O_R   0.476787 0.582544 0.165735 -0.203384
O162  O     O_R   0.527977 0.582537 0.975796 -0.278125
N40   N     N_R   0.517926 0.383872 0.607978 0.275044
O163  O     O_R   0.500323 0.425331 0.686707 -0.184428
O164  O     O_R   0.569716 0.390245 0.551171 -0.364041
O165  O     O_3   0.172758 0.467726 0.398575 -0.789895
H61   H     H_    0.123657 0.474379 0.351273 0.355277
O166  O     O_3   0.163446 0.539949 0.860119 -0.764201
H62   H     H_    0.184310 0.515440 0.950531 0.321049
O167  O     O_3   0.659815 0.961966 0.363767 -0.757543
H63   H     H_    0.682124 0.986631 0.453183 0.315229
O168  O     O_3   0.664984 0.038358 0.867239 -0.752100
H64   H     H_    0.686557 0.013289 0.955709 0.317637

loop_
_geom_bond_atom_site_label_1
_geom_bond_atom_site_label_2
_geom_bond_distance
_ccdc_geom_bond_type
C40   C52   1.418477 A    
C23   C27   1.575367 S    
O40   C15   1.400316 S    
C41   C45   1.407485 A    
C19   H15   1.117191 S    
C9    O153  1.394849 S    
O112  H40   0.989891 S    
P9    O41   1.795854 S    
C44   C48   1.394381 A    
C15   C19   1.545336 S    
N29   O137  1.300631 A    
P11   O43   1.797362 S    
O135  H55   0.983846 S    
P12   O44   1.795112 S    
C43   C47   1.409137 A    
C80   O124  1.377141 S    
N24   O107  1.299677 A    
C83   C91   1.439416 A    
C62   C66   1.454125 A    
C50   N26   1.413526 S    
O100  H36   0.987503 S    
P4    C56   1.992157 S    
P16   C91   1.921662 S    
C1    H1    1.109526 S    
C24   C28   1.562588 S    
N38   O159  1.293910 A    
C84   C92   1.438101 A    
C19   O59   1.400304 S    
N20   O92   1.298495 A    
C54   C58   1.428826 A    
N36   O151  1.281776 A    
C73   O125  1.366376 S    
C60   O132  1.365386 S    
O2    Ba2   2.975510 S    
C25   O93   1.404650 S    
P2    O18   1.802532 S    
C35   C95   1.415003 A    
P4    O8    1.623387 S    
Ba1   O46   3.163101 S    
C25   N17   1.459939 S    
N17   O85   1.300490 A    
P5    C62   1.985405 S    
P9    O29   1.765146 S    
N18   O88   1.297052 A    
C42   C54   1.455610 A    
O130  H50   0.976858 S    
O96   H32   0.985847 S    
N30   O139  1.299324 A    
C18   H14   1.116034 S    
C79   O123  1.372955 S    
O42   C6    1.418254 S    
C22   C26   1.574985 S    
N7    O65   1.299691 A    
O17   C21   1.415591 S    
C14   H10   1.109073 S    
N35   O149  1.284323 A    
C64   C68   1.456303 A    
C8    H8    1.096447 S    
N34   O147  1.282092 A    
C27   O95   1.404132 S    
P6    O45   1.625886 S    
N12   O76   1.284149 A    
C77   O121  1.372108 S    
N26   O115  1.295692 A    
C9    H21   1.117402 S    
O165  H61   0.988571 S    
C75   O127  1.366747 S    
C41   C53   1.458999 A    
P5    O25   1.631497 D    
O166  H62   0.989638 S    
C15   O167  1.391550 S    
O12   P15   1.744166 S    
C47   O111  1.364504 S    
C39   C51   1.407433 A    
P7    O27   1.631497 D    
C78   C82   1.420684 A    
P8    O28   1.628001 D    
O28   Ba4   2.977203 S    
O20   C24   1.417514 S    
O37   C14   1.397927 S    
C9    N37   1.461484 S    
C18   N6    1.463136 S    
C17   N5    1.463829 S    
O39   C16   1.399199 S    
N39   O161  1.300992 A    
P14   C89   1.917846 S    
Ba2   O45   3.161409 S    
C27   N19   1.459083 S    
C16   C20   1.544083 S    
C16   O168  1.391378 S    
C63   C95   1.426060 A    
P3    C55   1.989027 S    
C48   O112  1.362876 S    
C6    H6    1.106047 S    
C79   C83   1.424781 A    
C67   C75   1.395844 A    
C31   N3    1.462947 S    
C68   C76   1.406991 A    
C35   C39   1.432353 A    
C11   O155  1.394084 S    
P3    O7    1.619380 S    
O136  H56   0.982665 S    
C33   C37   1.434094 A    
C11   N39   1.464910 S    
N6    O63   1.299552 A    
P1    Ba1   3.631454 S    
O129  H49   0.982226 S    
O131  H51   0.979146 S    
P3    Ba3   3.631454 S    
O29   Ba1   2.902069 S    
N40   O163  1.299347 A    
O155  H59   0.992222 S    
P5    O37   1.754104 S    
O31   Ba3   2.902069 S    
C73   C79   1.408654 A    
C1    N29   1.463913 S    
N33   O145  1.282303 A    
O18   C22   1.417360 S    
P1    C53   1.993188 S    
O25   Ba1   2.977993 S    
C82   C90   1.438925 A    
P15   C92   1.918942 S    
C75   C77   1.408839 A    
C62   C94   1.430826 A    
N9    O69   1.298444 A    
O44   C8    1.417844 S    
O95   H31   0.980891 S    
C58   O130  1.366807 S    
C6    C10   1.550698 S    
N14   O79   1.297818 A    
C33   C93   1.418592 A    
O93   H29   0.980982 S    
N1    O50   1.291418 A    
O38   C13   1.398000 S    
N32   O144  1.298754 A    
C22   N10   1.423605 S    
O8    Ba3   2.915558 S    
C45   O109  1.368599 S    
C69   C87   1.457986 A    
N13   O77   1.291279 A    
P10   O42   1.788820 S    
C70   C88   1.461438 A    
C38   C70   1.431482 A    
N23   O106  1.295088 A    
C13   C17   1.547049 S    
P4    Ba4   3.630015 S    
N12   O75   1.300267 A    
O14   P13   1.542054 D    
O111  H39   0.980110 S    
C1    N21   1.467742 S    
C31   O99   1.389744 S    
Ba4   O47   3.161409 S    
N28   O120  1.296148 A    
O12   Ba4   2.901260 S    
C2    H2    1.105592 S    
C63   C67   1.450402 A    
C12   H24   1.110900 S    
P2    Ba2   3.630015 S    
O24   C32   1.427860 S    
C65   C73   1.397700 A    
O30   Ba2   2.889934 S    
C2    C30   1.555830 S    
C46   O110  1.360796 S    
N3    O53   1.296744 A    
N2    O52   1.294793 A    
C55   C59   1.432388 A    
N25   O113  1.291783 A    
O41   C5    1.420746 S    
N13   O78   1.297537 A    
N16   O84   1.290749 A    
O26   Ba2   2.977203 S    
O154  H58   0.991031 S    
P9    O33   1.543003 D    
N5    O61   1.300323 A    
C37   C69   1.420541 A    
N15   O82   1.297503 A    
N36   O152  1.298503 A    
P7    Ba3   3.631503 S    
C44   C56   1.451465 A    
C29   N1    1.470003 S    
P10   O30   1.760356 S    
P11   O35   1.542498 D    
N35   O150  1.297688 A    
C43   C55   1.463760 A    
N31   O142  1.300637 A    
C7    C11   1.564583 S    
C72   C86   1.463074 A    
N11   O74   1.288669 A    
O22   C30   1.420599 S    
C8    N36   1.438679 S    
O16   P15   1.543910 D    
N4    O56   1.293811 A    
O98   H34   0.987283 S    
C4    H4    1.106876 S    
C59   C91   1.430915 A    
C8    C12   1.550728 S    
N24   O108  1.298852 A    
C12   N40   1.448659 S    
C46   C52   1.394019 A    
C47   C49   1.404425 A    
O15   P16   1.543947 D    
C14   O166  1.392907 S    
C76   C78   1.414799 A    
N21   O102  1.294820 A    
N38   O160  1.299808 A    
O21   P14   1.776986 S    
C38   C50   1.415094 A    
P6    O26   1.628001 D    
C84   C88   1.425097 A    
N22   O103  1.299114 A    
C77   C81   1.426584 A    
P6    C61   1.985395 S    
C57   O129  1.364525 S    
C18   O58   1.398854 S    
C23   N11   1.418818 S    
C80   C84   1.420772 A    
C24   N16   1.456336 S    
Ba1   O45   2.903534 S    
N3    O54   1.290900 A    
C22   N14   1.460313 S    
O7    Ba4   2.904877 S    
C14   C18   1.543490 S    
P12   C35   1.915024 S    
C2    N22   1.458429 S    
N15   O81   1.293187 A    
C16   H12   1.109504 S    
C10   N38   1.452280 S    
N10   O71   1.300861 A    
C51   N27   1.417965 S    
N19   O89   1.301040 A    
C58   C90   1.428745 A    
C74   C80   1.414634 A    
P1    O1    1.628107 D    
C68   C72   1.443577 A    
N30   O140  1.300473 A    
P3    O3    1.628107 D    
Ba3   O48   3.163101 S    
O11   Ba3   2.889122 S    
P4    O20   1.797269 S    
C37   C49   1.411622 A    
C34   C38   1.439614 A    
C13   O165  1.391650 S    
O57   H25   0.992720 S    
P6    O38   1.753597 S    
C30   N2    1.472826 S    
O156  H60   0.975325 S    
N34   O148  1.298079 A    
C71   C85   1.455580 A    
C32   N4    1.472157 S    
N23   O105  1.295871 A    
P8    C63   1.977997 S    
C82   C86   1.424186 A    
O9    P14   1.738192 S    
C17   O57   1.400723 S    
C23   N15   1.460049 S    
N26   O116  1.296072 A    
C81   C89   1.438313 A    
O126  H46   0.985806 S    
O99   H35   0.981601 S    
C57   C89   1.430467 A    
C76   O128  1.370734 S    
P8    Ba4   3.632984 S    
C4    N24   1.462944 S    
N29   O138  1.300317 A    
C64   C96   1.432698 A    
C2    N30   1.456052 S    
O60   H28   0.992123 S    
C56   C60   1.430614 A    
C34   C94   1.418966 A    
P1    O5    1.619380 S    
C17   H13   1.117510 S    
O6    Ba1   2.915558 S    
O59   H27   0.992548 S    
Ba2   O46   2.914197 S    
O122  H42   0.989310 S    
O9    Ba1   2.889122 S    
O134  H54   0.983438 S    
C40   C72   1.431598 A    
O109  H37   0.986901 S    
O24   P15   1.780909 S    
P12   O36   1.540760 D    
C49   N25   1.423513 S    
O110  H38   0.988949 S    
C39   C71   1.416985 A    
P7    O39   1.755822 S    
N16   O83   1.298450 A    
C42   C86   1.445268 A    
C3    C31   1.566754 S    
P5    O46   1.629962 S    
P7    O48   1.629962 S    
C10   H22   1.114526 S    
N6    O64   1.300808 A    
N17   O86   1.295875 A    
C3    H3    1.106781 S    
C20   O60   1.398768 S    
N40   O164  1.295879 A    
C65   C69   1.442566 A    
C28   H20   1.111190 S    
N18   O87   1.296371 A    
C66   C74   1.406877 A    
O167  H63   0.988420 S    
C52   N28   1.417879 S    
C36   C96   1.421705 A    
P9    C34   1.931911 S    
C4    N32   1.454453 S    
P11   C36   1.924696 S    
O10   P13   1.742431 S    
N8    O68   1.300676 A    
C24   N12   1.425959 S    
O22   P13   1.770050 S    
O132  H52   0.980032 S    
P10   O34   1.540123 D    
C15   H11   1.109170 S    
P11   O31   1.767401 S    
O125  H45   0.991528 S    
C41   C85   1.450475 A    
C5    H5    1.100192 S    
N14   O80   1.292250 A    
C7    H7    1.097531 S    
C61   C65   1.452613 A    
N1    O49   1.297484 A    
C3    N31   1.461364 S    
O128  H48   0.985115 S    
N9    O70   1.283013 A    
O121  H41   0.988638 S    
C19   N7    1.462214 S    
O11   P16   1.738228 S    
O10   Ba2   2.901260 S    
C53   C57   1.430560 A    
O19   C23   1.415903 S    
N31   O141  1.299786 A    
P1    O17   1.797777 S    
Ba1   Ba2   4.892354 S    
O133  H53   0.981059 S    
P3    O19   1.792671 S    
Ba3   Ba4   4.892354 S    
O4    Ba4   2.975510 S    
P4    O4    1.631611 D    
N8    O67   1.299202 A    
C28   N20   1.458289 S    
O123  H43   0.988664 S    
Ba4   O48   2.914197 S    
N20   O91   1.297382 A    
C32   O100  1.386688 S    
C11   H23   1.117552 S    
C6    N34   1.444690 S    
N7    O66   1.299827 A    
N19   O90   1.293873 A    
C74   O126  1.371661 S    
C5    C9    1.561869 S    
C26   O94   1.402978 S    
P10   C33   1.917074 S    
N11   O73   1.297641 A    
C20   N8    1.462503 S    
C96   O136  1.369036 S    
O32   Ba4   2.889934 S    
N4    O55   1.300256 A    
C28   O96   1.403585 S    
C13   H9    1.116081 S    
C60   C92   1.429051 A    
C3    N23   1.469290 S    
O97   H33   0.980308 S    
C59   O131  1.369539 S    
O23   P16   1.773341 S    
C95   O135  1.362566 S    
C45   C51   1.402957 A    
N33   O146  1.297953 A    
P2    O2    1.631611 D    
C4    C32   1.567730 S    
C12   O156  1.392169 S    
P5    Ba1   3.631503 S    
O13   P14   1.544106 D    
P8    O47   1.625886 S    
N39   O162  1.297390 A    
C25   H17   1.102400 S    
O43   C7    1.421926 S    
C20   H16   1.116092 S    
C26   N18   1.453512 S    
N27   O117  1.292270 A    
C83   C87   1.424364 A    
O124  H44   0.989327 S    
C1    C29   1.557484 S    
P13   C90   1.916731 S    
C81   C85   1.423512 A    
C78   O122  1.377064 S    
C21   N13   1.458642 S    
P6    Ba2   3.632984 S    
N21   O101  1.295680 A    
N27   O118  1.293569 A    
N22   O104  1.300013 A    
C94   O134  1.363456 S    
C67   C71   1.440436 A    
O94   H30   0.981823 S    
P2    O6    1.623387 S    
N37   O157  1.301460 A    
O21   C29   1.421981 S    
N28   O119  1.298500 A    
C36   C40   1.442607 A    
C10   O154  1.397858 S    
N10   O72   1.288475 A    
C42   C46   1.395207 A    
O1    Ba1   2.974726 S    
C48   C50   1.391609 A    
O23   C31   1.416213 S    
P2    C54   1.987557 S    
O3    Ba3   2.974726 S    
O153  H57   0.991918 S    
C44   C88   1.446195 A    
C7    N35   1.439515 S    
P7    C64   1.985870 S    
C27   H19   1.109245 S    
N2    O51   1.300222 A    
C5    N33   1.439549 S    
C43   C87   1.448518 A    
N25   O114  1.296766 A    
Ba3   O47   2.903534 S    
C30   O98   1.392743 S    
P12   O32   1.768691 S    
N32   O143  1.299173 A    
C61   C93   1.431101 A    
C93   O133  1.366789 S    
O5    Ba2   2.904877 S    
N5    O62   1.300932 A    
C21   N9    1.418707 S    
C26   H18   1.116322 S    
O127  H47   0.991834 S    
C29   O97   1.394194 S    
C66   C70   1.443070 A    
P8    O40   1.750882 S    
O27   Ba3   2.977993 S    
O58   H26   0.991999 S    
N37   O158  1.297981 A    
C21   C25   1.559288 S    
O168  H64   0.988508 S    
