data_mof_unit_34634.cif
_audit_creation_date              2012-12-10T20:39:09-0500
_audit_creation_method            fapswitch 2.2
_symmetry_space_group_name_H-M    P1
_symmetry_Int_Tables_number       1
_space_group_crystal_system       triclinic
_cell_length_a                    18.883566
_cell_length_b                    10.665624
_cell_length_c                    9.975282
_cell_angle_alpha                 88.678112
_cell_angle_beta                  89.245034
_cell_angle_gamma                 92.797289
_cell_volume                      2005.93807717

loop_
_atom_site_label
_atom_site_type_symbol
_atom_type_description
_atom_site_fract_x
_atom_site_fract_y
_atom_site_fract_z
_atom_type_partial_charge
C1    C     C_R   0.507196 0.260745 0.500297 0.884977
C2    C     C_R   0.291746 0.539804 0.499413 -0.092420
C3    C     C_R   0.931466 0.553477 0.575786 0.311195
C4    C     C_R   0.073323 0.577085 0.543702 0.364772
C5    C     C_R   0.815467 0.435508 0.628009 0.183678
C6    C     C_R   0.744177 0.411413 0.591201 0.160506
C7    C     C_R   0.711343 0.498732 0.506083 -0.024229
C8    C     C_R   0.749878 0.603480 0.453043 -0.157989
C9    C     C_R   0.820890 0.622606 0.481642 -0.171905
C10   C     C_R   0.854337 0.539516 0.567764 0.036010
C11   C     C_R   0.531437 0.061927 0.618578 0.055216
C12   C     C_R   0.365803 0.507906 0.500206 0.908508
C13   C     C_R   0.528363 0.131547 0.498968 -0.250077
C14   C     C_R   0.546274 0.069889 0.378812 0.381726
C15   C     C_R   0.538068 0.939178 0.377837 -0.291308
C16   C     C_R   0.522923 0.872057 0.497845 -0.190983
C17   C     C_R   0.531987 0.933643 0.618283 0.154469
C18   C     C_3   0.491808 0.918719 0.748205 -0.071589
C19   C     C_3   0.488993 0.060361 0.745290 -0.475892
C20   C     C_R   0.438256 0.490567 0.074136 0.022799
C21   C     C_R   0.560490 0.530571 0.065094 0.514829
C22   C     C_R   0.560458 0.520162 0.923740 -0.209349
C23   C     C_R   0.504521 0.740181 0.498807 0.894570
C24   C     C_R   0.436893 0.493558 0.932119 0.126283
C25   C     C_3   0.378519 0.388749 0.943165 0.527740
C26   C     C_3   0.382347 0.391696 0.095137 -0.440058
C27   C     C_R   0.634547 0.498572 0.500058 0.891648
C28   C     C_R   0.266663 0.621935 0.594651 -0.084914
C29   C     C_R   0.194661 0.642475 0.603199 -0.190941
C30   C     C_R   0.148366 0.586337 0.511582 -0.093449
C31   C     C_R   0.175128 0.520314 0.402503 0.462706
C32   C     C_R   0.246535 0.493749 0.400327 -0.242194
H1    H     H_    0.302394 0.665494 0.665754 0.188380
H2    H     H_    0.541187 0.891512 0.283569 0.223147
H3    H     H_    0.438901 0.869094 0.739250 0.181717
H4    H     H_    0.434290 0.088400 0.726789 0.196114
H5    H     H_    0.519047 0.107105 0.826638 0.242462
H6    H     H_    0.608919 0.536031 0.865764 0.212533
H7    H     H_    0.335994 0.430563 0.145226 0.229529
H8    H     H_    0.174683 0.695967 0.685362 0.191551
H9    H     H_    0.401369 0.305833 0.145060 0.217351
H10   H     H_    0.266180 0.434572 0.323369 0.184619
H11   H     H_    0.724588 0.673407 0.393037 0.198446
H12   H     H_    0.850047 0.702364 0.434801 0.187097
N1    N     N_R   0.039935 0.461939 0.552103 -0.109204
N2    N     N_R   0.970112 0.450366 0.566841 -0.125038
N3    N     N_R   0.965206 0.669017 0.570974 -0.150207
N4    N     N_R   0.035336 0.680763 0.555919 -0.132956
N5    N     N_R   0.499530 0.499140 0.142800 -0.125751
N6    N     N_R   0.499530 0.499180 0.857150 -0.158020
O1    O     O_R   0.500010 0.316790 0.614690 -0.623598
O2    O     O_R   0.500000 0.316760 0.385350 -0.546964
O3    O     O_R   0.398140 0.500000 0.614710 -0.569806
O4    O     O_R   0.398130 0.499970 0.385370 -0.636682
O5    O     O_R   0.500000 0.683240 0.614650 -0.634370
O6    O     O_R   0.499990 0.683210 0.385310 -0.577644
O7    O     O_R   0.601870 0.500030 0.614630 -0.639526
O8    O     O_R   0.601860 0.500000 0.385290 -0.489367
Zn1   Zn    Zn3+2 0.500000 0.500020 0.653130 0.962670
Zn2   Zn    Zn3+2 0.500000 0.499980 0.346870 1.075157
C33   C     C_3   0.536594 0.867871 0.862350 -0.711614
H13   H     H_    0.588930 0.919920 0.867345 0.271318
H14   H     H_    0.508002 0.876489 0.959437 0.232777
H15   H     H_    0.545729 0.767526 0.846733 0.252003
S1    S     S_3+6 0.639403 0.604540 0.125619 0.038054
O9    O     O_2   0.687385 0.507281 0.178662 -0.228276
O10   O     O_2   0.678062 0.675319 0.012261 -0.340838
O11   O     O_3   0.621158 0.708054 0.243905 -0.586742
H16   H     H_    0.654010 0.781918 0.225716 0.380859
S2    S     S_3+6 0.291233 0.425896 0.890265 0.029973
O12   O     O_2   0.237873 0.358391 0.982845 -0.251529
O13   O     O_2   0.282361 0.564839 0.896458 -0.309975
O14   O     O_3   0.276621 0.374569 0.734720 -0.567299
H17   H     H_    0.224426 0.371742 0.724986 0.386042
C34   C     C_3   0.399995 0.265972 0.886472 -0.839741
H18   H     H_    0.454664 0.248260 0.916971 0.231369
H19   H     H_    0.363555 0.187359 0.923278 0.247783
H20   H     H_    0.397500 0.273581 0.775869 0.281481
S3    S     S_3+6 0.122950 0.474155 0.263939 0.062805
O15   O     O_2   0.118636 0.333333 0.257985 -0.247962
O16   O     O_2   0.049439 0.521899 0.271455 -0.286937
O17   O     O_3   0.163301 0.533906 0.123871 -0.482734
H21   H     H_    0.129291 0.516267 0.051104 0.406095
C35   C     C_3   0.848156 0.353077 0.734002 -0.795802
H22   H     H_    0.861067 0.261919 0.690638 0.253388
H23   H     H_    0.896695 0.397801 0.776948 0.248004
H24   H     H_    0.810852 0.335963 0.820089 0.260334
C36   C     C_3   0.703508 0.294004 0.643973 -0.805455
H25   H     H_    0.735878 0.210799 0.631964 0.250683
H26   H     H_    0.689664 0.304142 0.751529 0.255018
H27   H     H_    0.654106 0.274003 0.588121 0.227554
S4    S     S_3+6 0.582082 0.146804 0.232152 0.039068
O18   O     O_2   0.628498 0.258640 0.269203 -0.222165
O19   O     O_2   0.625873 0.058750 0.154322 -0.299398
O20   O     O_3   0.516234 0.193722 0.134917 -0.577342
H28   H     H_    0.487807 0.115745 0.115983 0.333225

loop_
_geom_bond_atom_site_label_1
_geom_bond_atom_site_label_2
_ccdc_geom_bond_type
C8    C9    A    
O5    Zn1   S    
O14   H17   S    
O20   H28   S    
C8    H11   S    
C2    C12   S    
C21   N5    A    
O3    Zn1   S    
C7    C27   S    
C7    C8    A    
O4    Zn2   S    
N1    N2    A    
C11   C19   S    
C20   N5    A    
N5    Zn2   S    
N6    Zn1   S    
C28   C29   A    
C35   H23   S    
C19   H4    S    
C4    N4    A    
C5    C6    A    
C26   H7    S    
O7    Zn1   S    
O8    Zn2   S    
C15   C16   A    
C22   H6    S    
C6    C36   S    
C2    C32   A    
C18   C19   S    
C33   H14   S    
O2    Zn2   S    
C20   C24   A    
C16   C17   A    
S1    O10   D    
C35   H24   S    
S2    O12   D    
C19   H5    S    
C9    C10   A    
C15   H2    S    
C12   O3    A    
C22   N6    A    
C13   C14   A    
C1    O2    A    
C4    N1    A    
C24   N6    A    
N3    N4    A    
C23   O6    A    
C24   C25   S    
C27   O7    A    
S3    O16   D    
C5    C35   S    
O11   H16   S    
C25   C26   S    
S4    O20   S    
O6    Zn2   S    
C25   C34   S    
C33   H15   S    
C34   H18   S    
C29   C30   A    
C34   H19   S    
C31   C32   A    
C36   H27   S    
S1    O11   S    
S2    O14   S    
S4    O19   D    
C17   C18   S    
C35   H22   S    
C31   S3    S    
C1    O1    A    
C14   S4    S    
C36   H26   S    
C28   H1    S    
S1    O9    D    
C16   C23   S    
C1    C13   S    
C18   H3    S    
C11   C17   A    
C9    H12   S    
C21   S1    S    
C27   O8    A    
S3    O17   S    
S2    O13   D    
C18   C33   S    
C23   O5    A    
C6    C7    A    
C3    N2    A    
C5    C10   A    
C3    C10   S    
C11   C13   A    
C30   C31   A    
C20   C26   S    
C29   H8    S    
C3    N3    A    
S4    O18   D    
C33   H13   S    
C34   H20   S    
C4    C30   S    
S3    O15   D    
O1    Zn1   S    
C36   H25   S    
O17   H21   S    
C32   H10   S    
C14   C15   A    
C2    C28   A    
C25   S2    S    
C21   C22   A    
C12   O4    A    
C26   H9    S    
