data_mof_unit_34512.cif
_audit_creation_date              2012-12-10T16:53:02-0500
_audit_creation_method            fapswitch 2.2
_symmetry_space_group_name_H-M    P1
_symmetry_Int_Tables_number       1
_space_group_crystal_system       triclinic
_cell_length_a                    7.840975
_cell_length_b                    8.574027
_cell_length_c                    11.513219
_cell_angle_alpha                 91.600468
_cell_angle_beta                  84.885026
_cell_angle_gamma                 93.6617
_cell_volume                      769.170431688

loop_
_atom_site_label
_atom_site_type_symbol
_atom_type_description
_atom_site_fract_x
_atom_site_fract_y
_atom_site_fract_z
_atom_type_partial_charge
C1    C     C_R   0.545537 0.794471 0.497044 0.944758
C2    C     C_2   0.430629 0.041884 0.504128 -0.389541
C3    C     C_3   0.955695 0.306862 0.308936 0.186183
C4    C     C_3   0.065462 0.193864 0.234907 -0.388347
C5    C     C_3   0.994676 0.158392 0.117091 -0.962798
C6    C     C_3   0.047348 0.714170 0.683353 0.148355
C7    C     C_3   0.993910 0.605698 0.785706 -0.345901
C8    C     C_3   0.068792 0.667635 0.897169 -0.955316
C9    C     C_R   0.454452 0.205519 0.502636 0.941641
C10   C     C_R   0.500354 0.499328 0.717770 0.879927
C11   C     C_R   0.499373 0.499205 0.282215 0.872740
C12   C     C_1   0.500678 0.496824 0.838233 -0.211585
C13   C     C_1   0.498347 0.497526 0.161706 -0.198717
C14   C     C_1   0.500013 0.495769 0.940554 -0.007992
C15   C     C_1   0.498757 0.496208 0.059360 0.001267
C16   C     C_2   0.569333 0.958089 0.494992 -0.379117
H1    H     H_    0.700382 0.009041 0.486053 0.191533
H2    H     H_    0.001534 0.831584 0.707865 0.127954
H3    H     H_    0.187399 0.732239 0.668254 0.179113
H4    H     H_    0.852294 0.597835 0.801858 0.234887
H5    H     H_    0.036846 0.486448 0.764621 0.235331
H6    H     H_    0.210515 0.684298 0.883180 0.273188
H7    H     H_    0.035050 0.582977 0.968084 0.269870
H8    H     H_    0.015611 0.781250 0.924677 0.260580
H9    H     H_    0.299577 0.990934 0.512965 0.187192
H10   H     H_    0.952707 0.416481 0.259472 0.145437
H11   H     H_    0.824816 0.250730 0.325168 0.167908
H12   H     H_    0.198927 0.245810 0.220164 0.234481
H13   H     H_    0.068648 0.082895 0.282180 0.230121
H14   H     H_    0.861848 0.104509 0.129576 0.264921
H15   H     H_    0.076508 0.075428 0.065848 0.270863
H16   H     H_    0.994420 0.267411 0.067147 0.268453
N1    N     N_2   0.950330 0.457960 0.469510 0.168541
N2    N     N_2   0.049670 0.542040 0.530490 0.176386
O1    O     O_R   0.389250 0.738570 0.507480 -0.643471
O2    O     O_3   0.968856 0.663435 0.582506 -0.555388
O3    O     O_R   0.610750 0.261430 0.492520 -0.635409
O4    O     O_R   0.678390 0.711630 0.487940 -0.570961
O5    O     O_R   0.321610 0.288370 0.512060 -0.576479
O6    O     O_R   0.355420 0.513450 0.675320 -0.648061
O7    O     O_R   0.644580 0.486550 0.324680 -0.660564
O8    O     O_R   0.644570 0.486510 0.655780 -0.597075
O9    O     O_R   0.355430 0.513490 0.344220 -0.588848
O10   O     O_3   0.028819 0.337835 0.414736 -0.559732
Zn1   Zn    Zn3+2 0.306940 0.517990 0.513050 1.006933
Zn2   Zn    Zn3+2 0.693060 0.482010 0.486950 1.006739

loop_
_geom_bond_atom_site_label_1
_geom_bond_atom_site_label_2
_ccdc_geom_bond_type
C2    C9    S    
C8    H6    S    
O7    Zn2   S    
C11   O9    A    
C6    C7    S    
C6    H3    S    
C10   O8    A    
C11   C13   S    
C4    H13   S    
O5    Zn1   S    
C5    H16   S    
C9    O3    A    
N1    N2    D    
C7    C8    S    
C1    C16   S    
N1    Zn2   S    
O9    Zn1   S    
C10   C12   S    
C1    O4    A    
C3    H11   S    
C8    H8    S    
C6    O2    S    
C11   O7    A    
C2    H9    S    
N2    O2    S    
C13   C15   T    
O6    Zn1   S    
C6    H2    S    
C3    O10   S    
O4    Zn2   S    
C3    C4    S    
O1    Zn1   S    
C9    O5    A    
C8    H7    S    
C2    C16   D    
C1    O1    A    
C10   O6    A    
C7    H4    S    
O8    Zn2   S    
N2    Zn1   S    
C14   C15   S    
C16   H1    S    
C4    H12   S    
O3    Zn2   S    
C7    H5    S    
N1    O10   S    
C3    H10   S    
C5    H14   S    
C12   C14   T    
C4    C5    S    
C5    H15   S    
