data_mof_unit_40252.cif
_audit_creation_date              2012-12-10T18:50:01-0500
_audit_creation_method            fapswitch 2.2
_symmetry_space_group_name_H-M    P1
_symmetry_Int_Tables_number       1
_space_group_crystal_system       triclinic
_cell_length_a                    10.768805
_cell_length_b                    9.959984
_cell_length_c                    10.870372
_cell_angle_alpha                 88.449575
_cell_angle_beta                  94.184869
_cell_angle_gamma                 90.38113
_cell_volume                      1162.37774551

loop_
_atom_site_label
_atom_site_type_symbol
_atom_type_description
_atom_site_fract_x
_atom_site_fract_y
_atom_site_fract_z
_atom_type_partial_charge
C1    C     C_R   0.260254 0.499730 0.504363 0.912221
C2    C     C_R   0.566731 0.926139 0.590243 -0.090881
C3    C     C_R   0.440796 0.933917 0.407177 -0.062091
C4    C     C_R   0.419908 0.071741 0.422277 0.019935
C5    C     C_R   0.491331 0.501219 0.257436 0.962225
C6    C     C_R   0.739915 0.500244 0.512996 0.901723
C7    C     C_R   0.500063 0.498296 0.741638 0.799579
C8    C     C_3   0.394064 0.605194 0.053886 -0.271604
C9    C     C_3   0.457338 0.355000 0.071694 -0.271827
C10   C     C_3   0.404787 0.606348 0.913105 -0.275446
C11   C     C_3   0.445758 0.358713 0.929381 -0.326962
C12   C     C_3   0.639836 0.523396 0.938707 0.170787
C13   C     C_3   0.631895 0.541631 0.085781 -0.162441
C14   C     C_3   0.491652 0.500585 0.120113 -0.204546
C15   C     C_3   0.502050 0.496914 0.877780 -0.040454
C16   C     C_2   0.397446 0.878987 0.289567 1.000177
C17   C     C_2   0.287501 0.111022 0.401150 0.919307
C18   C     C_2   0.254312 0.596056 0.072284 0.960863
C19   C     C_2   0.340820 0.289330 0.120499 1.048686
C20   C     C_2   0.397666 0.748289 0.855064 0.961165
C21   C     C_2   0.477275 0.222359 0.877647 1.034354
C22   C     C_2   0.662082 0.686595 0.130173 0.911254
C23   C     C_R   0.072864 0.402447 0.594605 0.068255
C24   C     C_2   0.736447 0.457481 0.157472 0.884607
C25   C     C_3   0.704828 0.644110 0.874195 -0.695727
C26   C     C_3   0.725327 0.402767 0.910038 -0.733472
C27   C     C_3   0.145731 0.318736 0.692755 -0.648724
C28   C     C_3   0.097730 0.699466 0.367682 -0.558573
C29   C     C_2   0.885989 0.260960 0.614061 0.930450
C30   C     C_2   0.892182 0.757850 0.530971 0.988395
C31   C     C_R   0.055719 0.608185 0.467863 -0.024329
C32   C     C_R   0.943359 0.391276 0.583028 -0.033134
C33   C     C_R   0.936486 0.621766 0.502777 0.024099
C34   C     C_R   0.873964 0.503649 0.535600 -0.250678
C35   C     C_R   0.128202 0.501030 0.520104 -0.052124
C36   C     C_R   0.573078 0.069551 0.585532 -0.082551
H1    H     H_    0.422449 0.703834 0.088751 0.203834
H2    H     H_    0.190308 0.310104 0.219934 0.366001
H3    H     H_    0.312319 0.870114 0.722918 0.345447
H4    H     H_    0.416538 0.069912 0.770442 0.353864
H5    H     H_    0.739345 0.804617 0.263824 0.379527
H6    H     H_    0.790114 0.299210 0.268382 0.381983
H7    H     H_    0.729940 0.617497 0.780606 0.240855
H8    H     H_    0.646626 0.733808 0.860134 0.283699
H9    H     H_    0.793067 0.671873 0.927085 0.260391
H10   H     H_    0.825777 0.430262 0.920598 0.261806
H11   H     H_    0.715762 0.315711 0.973079 0.279919
H12   H     H_    0.534092 0.286211 0.102602 0.220799
H13   H     H_    0.707290 0.369745 0.813957 0.246826
H14   H     H_    0.135761 0.210135 0.674715 0.293681
H15   H     H_    0.245145 0.346697 0.702283 0.243644
H16   H     H_    0.108878 0.336983 0.783588 0.241194
H17   H     H_    0.156331 0.639953 0.310761 0.269599
H18   H     H_    0.018234 0.734231 0.304201 0.273182
H19   H     H_    0.146894 0.787699 0.408617 0.263657
H20   H     H_    0.824137 0.082555 0.551194 0.348593
H21   H     H_    0.835884 0.877806 0.662508 0.337337
H22   H     H_    0.315908 0.567320 0.868242 0.152274
H23   H     H_    0.344563 0.362714 0.901555 0.173648
H24   H     H_    0.630696 0.121393 0.654897 0.178266
H25   H     H_    0.617470 0.871040 0.664331 0.172980
H26   H     H_    0.368262 0.917216 0.106403 0.400487
H27   H     H_    0.125619 0.094214 0.296337 0.364846
H28   H     H_    0.090162 0.499912 0.036330 0.374114
N1    N     N_R   0.499970 0.857200 0.499970 -0.121750
N2    N     N_R   0.499970 0.142800 0.499970 -0.103964
O1    O     O_R   0.316750 0.614620 0.499990 -0.579689
O2    O     O_R   0.421455 0.949067 0.180644 -0.716004
O3    O     O_2   0.233434 0.151688 0.487157 -0.604039
O4    O     O_R   0.217889 0.076197 0.293018 -0.770814
O5    O     O_2   0.200227 0.695852 0.102598 -0.581938
O6    O     O_R   0.182438 0.488199 0.026953 -0.817133
O7    O     O_2   0.301283 0.184500 0.076226 -0.537187
O8    O     O_R   0.276674 0.348682 0.212390 -0.806935
O9    O     O_2   0.459055 0.841202 0.898484 -0.580742
O10   O     O_R   0.311633 0.773414 0.754084 -0.771527
O11   O     O_2   0.569532 0.159070 0.915834 -0.583984
O12   O     O_R   0.316750 0.385380 0.499990 -0.569801
O13   O     O_R   0.390949 0.162909 0.793259 -0.775592
O14   O     O_2   0.627026 0.785802 0.069832 -0.548149
O15   O     O_R   0.728626 0.706151 0.244087 -0.767494
O16   O     O_2   0.845333 0.491158 0.149426 -0.613684
O17   O     O_R   0.711835 0.342666 0.228371 -0.775015
O18   O     O_2   0.871461 0.228914 0.721342 -0.646789
O19   O     O_R   0.856173 0.171601 0.519489 -0.748287
O20   O     O_2   0.896544 0.851219 0.456106 -0.630132
O21   O     O_R   0.852367 0.779756 0.648107 -0.820991
O22   O     O_R   0.499970 0.614670 0.314790 -0.600559
O23   O     O_R   0.499970 0.385330 0.314790 -0.562824
O24   O     O_R   0.683220 0.614710 0.500010 -0.594588
O25   O     O_R   0.683220 0.385290 0.500010 -0.588404
O26   O     O_R   0.500010 0.614660 0.685200 -0.615924
O27   O     O_R   0.500010 0.385340 0.685200 -0.635609
O28   O     O_2   0.330724 0.781165 0.287392 -0.620326
Zn1   Zn    Zn3+2 0.499980 0.653120 0.500000 1.021535
Zn2   Zn    Zn3+2 0.499980 0.346880 0.500000 1.043372

loop_
_geom_bond_atom_site_label_1
_geom_bond_atom_site_label_2
_ccdc_geom_bond_type
C17   O3    D    
C2    N1    A    
C25   H7    S    
O24   Zn1   S    
C10   H22   S    
C24   O17   S    
C29   C32   S    
C10   C15   S    
C36   N2    A    
C6    O25   A    
C20   O10   S    
C24   O16   D    
O25   Zn2   S    
C5    O22   A    
C11   C15   S    
C9    C19   S    
C10   C20   S    
C31   C33   A    
C16   O2    S    
C23   C27   S    
C30   O20   D    
C29   O19   S    
C27   H14   S    
C7    C15   S    
O22   Zn1   S    
C17   O4    S    
C13   C14   S    
O1    Zn1   S    
C1    O12   A    
C3    N1    A    
C11   H23   S    
C25   H8    S    
C28   H19   S    
C27   H15   S    
C19   O8    S    
C18   O6    S    
C7    O27   A    
H27   O4    S    
C22   O15   S    
C19   O7    D    
C29   O18   D    
C26   H13   S    
O12   Zn2   S    
C28   H18   S    
C6    O24   A    
C11   C21   S    
O26   Zn1   S    
C8    C18   S    
H21   O21   S    
C13   C24   S    
C12   C26   S    
C32   C34   A    
C9    C14   S    
C12   C15   S    
H5    O15   S    
C21   O13   S    
C33   C34   A    
H4    O13   S    
H3    O10   S    
C9    C11   S    
C5    C14   S    
C26   H11   S    
C4    C17   S    
O27   Zn2   S    
C23   C35   A    
C31   C35   A    
C8    H1    S    
C3    C4    A    
C25   H9    S    
C27   H16   S    
C1    C35   S    
N2    Zn2   S    
H2    O8    S    
C2    C36   A    
C18   O5    D    
C8    C14   S    
C30   C33   S    
C28   C31   S    
H6    O17   S    
C36   H24   S    
C28   H17   S    
C2    H25   S    
C16   O28   D    
H26   O2    S    
C12   C25   S    
C23   C32   A    
O23   Zn2   S    
C22   O14   D    
C4    N2    A    
H20   O19   S    
C7    O26   A    
C1    O1    A    
C13   C22   S    
H28   O6    S    
C26   H10   S    
C6    C34   S    
N1    Zn1   S    
C12   C13   S    
C20   O9    D    
C9    H12   S    
C8    C10   S    
C21   O11   D    
C30   O21   S    
C5    O23   A    
C3    C16   S    
