data_mof_unit_23743.cif
_audit_creation_date              2012-12-11T15:28:41-0500
_audit_creation_method            fapswitch 2.2
_symmetry_space_group_name_H-M    P1
_symmetry_Int_Tables_number       1
_space_group_crystal_system       triclinic
_cell_length_a                    6.956339
_cell_length_b                    19.614955
_cell_length_c                    23.242062
_cell_angle_alpha                 95.748031
_cell_angle_beta                  91.097211
_cell_angle_gamma                 88.755637
_cell_volume                      3154.19024462

loop_
_atom_site_label
_atom_site_type_symbol
_atom_type_description
_atom_site_fract_x
_atom_site_fract_y
_atom_site_fract_z
_atom_type_partial_charge
O1    O     O_R   0.617180 0.809390 0.808140 -0.517341
O2    O     O_R   0.382820 0.190610 0.191860 -0.517341
O3    O     O_R   0.293300 0.672410 0.795490 -0.544052
O4    O     O_R   0.706700 0.327590 0.204510 -0.544053
O5    O     O_R   0.117220 0.690610 0.691850 -0.527435
O6    O     O_R   0.882780 0.309390 0.308150 -0.527431
C1    C     C_R   0.464013 0.647626 0.805083 0.730065
C2    C     C_R   0.535987 0.352374 0.194917 0.730068
O7    O     O_R   0.287840 0.807750 0.814460 -0.528382
O8    O     O_R   0.712160 0.192250 0.185540 -0.528382
O9    O     O_R   0.111720 0.826910 0.710960 -0.525007
O10   O     O_R   0.888280 0.173090 0.289040 -0.525007
C3    C     C_R   0.456466 0.830781 0.833168 0.727464
C4    C     C_R   0.543534 0.169219 0.166832 0.727463
O11   O     O_R   0.622680 0.673080 0.789040 -0.524637
O12   O     O_R   0.377320 0.326920 0.210960 -0.524641
O13   O     O_3   0.448820 0.756130 0.716020 -0.351232
O14   O     O_3   0.551180 0.243870 0.283980 -0.351230
V1    V     V_3+5 0.176220 0.748860 0.756300 1.501246
V2    V     V_3+5 0.823780 0.251140 0.243700 1.501249
O15   O     O_R   0.781670 0.827580 0.704500 -0.520691
O16   O     O_R   0.218330 0.172420 0.295500 -0.520691
C5    C     C_R   0.947592 0.852086 0.694000 0.774054
C6    C     C_R   0.052408 0.147913 0.306000 0.774056
O17   O     O_R   0.787130 0.692240 0.685530 -0.512861
O18   O     O_R   0.212870 0.307760 0.314470 -0.512864
C7    C     C_R   0.956083 0.669173 0.666830 0.727308
C8    C     C_R   0.043917 0.330827 0.333170 0.727303
V3    V     V_3+5 0.675510 0.751130 0.743690 1.554574
V4    V     V_3+5 0.324490 0.248870 0.256310 1.554572
O19   O     O_3   0.952780 0.743870 0.783980 -0.369804
O20   O     O_3   0.047220 0.256130 0.216020 -0.369805
C9    C     C_1   0.966617 0.617060 0.614812 -0.146140
C10   C     C_1   0.033383 0.382940 0.385188 -0.146145
C11   C     C_1   0.978209 0.573551 0.571994 0.040288
C12   C     C_1   0.021790 0.426449 0.428005 0.040285
C13   C     C_1   0.993433 0.521820 0.521343 0.038924
C14   C     C_1   0.006567 0.478180 0.478656 0.038925
C15   C     C_R   0.942291 0.915600 0.664106 -0.161313
C16   C     C_R   0.057709 0.084400 0.335894 -0.161313
C17   C     C_R   0.812465 0.031298 0.659290 0.339493
C18   C     C_R   0.187535 0.968702 0.340710 0.339492
C19   C     C_R   0.858147 0.975783 0.691411 0.220032
C20   C     C_R   0.141852 0.024217 0.308589 0.220032
C21   C     C_R   0.002984 0.915128 0.606716 -0.133812
C22   C     C_R   0.997016 0.084872 0.393284 -0.133811
C23   C     C_R   0.969791 0.972638 0.574888 0.075055
C24   C     C_R   0.030209 0.027361 0.425112 0.075055
C25   C     C_R   0.843212 0.025118 0.598709 -0.093581
C26   C     C_R   0.156788 0.974881 0.401291 -0.093582
C27   C     C_R   0.044604 0.976866 0.518368 -0.033583
C28   C     C_R   0.955395 0.023133 0.481632 -0.033583
C29   C     C_R   0.786891 0.059888 0.501344 0.242086
C30   C     C_R   0.213109 0.940112 0.498657 0.242086
C31   C     C_R   0.738782 0.064533 0.560344 0.314356
C32   C     C_R   0.261218 0.935467 0.439656 0.314356
H1    H     H_    0.936955 0.132096 0.414184 0.160744
H2    H     H_    0.063045 0.867904 0.585816 0.160744
C33   C     C_R   0.476723 0.583467 0.833315 -0.120251
C34   C     C_R   0.523278 0.416533 0.166685 -0.120250
C35   C     C_R   0.467017 0.458812 0.828999 -0.075429
C36   C     C_R   0.533016 0.541187 0.171000 -0.075433
C37   C     C_R   0.462880 0.519319 0.800460 -0.080426
C38   C     C_R   0.537153 0.480680 0.199539 -0.080427
C39   C     C_R   0.488402 0.587363 0.893717 -0.220433
C40   C     C_R   0.511576 0.412638 0.106283 -0.220437
C41   C     C_R   0.487864 0.527925 0.923821 0.094307
C42   C     C_R   0.512125 0.472075 0.076179 0.094306
C43   C     C_R   0.482529 0.463115 0.890462 0.049786
C44   C     C_R   0.517480 0.536884 0.109538 0.049788
C45   C     C_R   0.494866 0.530895 0.985998 0.067128
C46   C     C_R   0.505120 0.469105 0.014002 0.067129
C47   C     C_R   0.510674 0.406297 0.978845 -0.181844
C48   C     C_R   0.489317 0.593702 0.021155 -0.181845
C49   C     C_R   0.498470 0.403485 0.919072 -0.138987
C50   C     C_R   0.501533 0.596514 0.080928 -0.138980
H3    H     H_    0.505268 0.353129 0.895483 0.160660
H4    H     H_    0.494742 0.646870 0.104517 0.160664
H5    H     H_    0.501607 0.361862 0.084231 0.098203
H6    H     H_    0.498345 0.638139 0.915770 0.098201
H7    H     H_    0.526551 0.357501 0.995988 0.128489
H8    H     H_    0.473442 0.642498 0.004012 0.128489
C51   C     C_1   0.467127 0.882872 0.885207 -0.155780
C52   C     C_1   0.532873 0.117128 0.114793 -0.155780
C53   C     C_1   0.478593 0.926388 0.928028 0.049049
C54   C     C_1   0.521407 0.073611 0.071971 0.049049
C55   C     C_1   0.493553 0.978159 0.978665 0.040176
C56   C     C_1   0.506447 0.021841 0.021334 0.040176
Br1   Br    Br    0.496879 0.109356 0.583044 -0.348798
Br2   Br    Br    0.503120 0.890644 0.416956 -0.348796
Br3   Br    Br    0.198903 0.018884 0.227231 -0.457178
Br4   Br    Br    0.801097 0.981116 0.772769 -0.457177
Br5   Br    Br    0.747506 0.118512 0.701358 -0.313576
Br6   Br    Br    0.252494 0.881488 0.298642 -0.313574
Br7   Br    Br    0.594984 0.090052 0.446967 -0.489962
Br8   Br    Br    0.405015 0.909948 0.553033 -0.489962
C57   C     C_2   0.563509 0.484237 0.263576 0.784122
O21   O     O_2   0.460563 0.451269 0.292131 -0.557179
O22   O     O_R   0.707102 0.525100 0.291048 -0.636711
H9    H     H_    0.711635 0.522973 0.334463 0.313425
C58   C     C_2   0.436556 0.515761 0.736423 0.784111
O23   O     O_2   0.539508 0.548732 0.707871 -0.557180
O24   O     O_R   0.292987 0.474892 0.708944 -0.636708
H10   H     H_    0.288475 0.477019 0.665528 0.313427
C59   C     C_2   0.457014 0.391113 0.794135 0.842198
O25   O     O_2   0.576049 0.375135 0.756875 -0.507707
O26   O     O_R   0.309679 0.346335 0.803479 -0.640482
H11   H     H_    0.317699 0.302077 0.776994 0.341397
C60   C     C_2   0.543054 0.608886 0.205863 0.842195
O27   O     O_2   0.424053 0.624866 0.243133 -0.507705
O28   O     O_R   0.690385 0.653660 0.196508 -0.640491
H12   H     H_    0.682394 0.697918 0.222996 0.341393

loop_
_geom_bond_atom_site_label_1
_geom_bond_atom_site_label_2
_ccdc_geom_bond_type
C40   C42   A    
C55   C56   T    
C58   O23   D    
C29   Br7   S    
C47   C49   A    
O28   H12   S    
C4    C52   S    
C37   C58   S    
V1    O19   S    
C57   O21   D    
C23   C25   A    
C7    C9    S    
C16   C22   A    
C40   H5    S    
C59   O26   S    
O9    V1    S    
C48   C50   A    
C11   C13   S    
C52   C54   T    
O3    C1    A    
C60   O28   S    
C9    C11   T    
C54   C56   S    
O12   V4    S    
O13   V3    S    
C36   C44   A    
C2    O12   A    
C21   C23   A    
C47   H7    S    
C35   C37   A    
O7    C3    A    
C36   C38   A    
C6    C16   S    
O5    C7    A    
O7    V1    S    
O6    C8    A    
O8    V2    S    
C39   C41   A    
O26   H11   S    
O3    V1    S    
O14   V4    S    
C35   C59   S    
O14   V2    S    
O4    C2    A    
C15   C21   A    
C24   C26   A    
C34   C40   A    
C58   O24   S    
C39   H6    S    
C17   C19   A    
C18   C20   A    
C48   H8    S    
O2    C4    A    
C1    C33   S    
C57   O22   S    
O11   V3    S    
C22   C24   A    
C29   C31   A    
O17   V3    S    
C30   C32   A    
C21   H2    S    
C53   C55   S    
C27   C28   A    
C32   Br2   S    
O8    C4    A    
C15   C19   A    
C1    O11   A    
C25   C31   A    
O15   V3    S    
C26   C32   A    
C41   C43   A    
C13   C14   T    
O22   H9    S    
C16   C20   A    
C42   C46   A    
O10   V2    S    
O1    V3    S    
C49   H3    S    
C20   Br3   S    
C18   C26   A    
C38   C57   S    
C51   C53   T    
O18   V4    S    
O15   C5    A    
C22   H1    S    
C44   C50   A    
O16   C6    A    
C33   C37   A    
O1    C3    A    
C28   C29   A    
V2    O20   S    
C35   C43   A    
O10   C6    A    
O16   V4    S    
C18   Br6   S    
C30   Br8   S    
C50   H4    S    
C46   C47   A    
C45   C48   A    
C23   C27   A    
O5    V1    S    
O17   C7    A    
C17   C25   A    
O6    V2    S    
C59   O25   D    
C3    C51   S    
O18   C8    A    
C19   Br4   S    
C34   C38   A    
O2    V4    S    
C27   C30   A    
C17   Br5   S    
C12   C14   S    
C45   C46   A    
V3    O19   S    
C60   O27   D    
C33   C39   A    
V4    O20   S    
C36   C60   S    
C5    C15   S    
O9    C5    A    
O13   V1    S    
C10   C12   T    
C43   C49   A    
C41   C45   A    
C31   Br1   S    
C8    C10   S    
O4    V2    S    
C24   C28   A    
C42   C44   A    
O24   H10   S    
C2    C34   S    
