data_mof_unit_65942.cif
_audit_creation_date              2012-12-10T19:35:17-0500
_audit_creation_method            fapswitch 2.2
_symmetry_space_group_name_H-M    P1
_symmetry_Int_Tables_number       1
_space_group_crystal_system       triclinic
_cell_length_a                    30.634506
_cell_length_b                    31.830428
_cell_length_c                    21.649577
_cell_angle_alpha                 89.506545
_cell_angle_beta                  135.065122
_cell_angle_gamma                 90.623793
_cell_volume                      14909.65188

loop_
_atom_site_label
_atom_site_type_symbol
_atom_type_description
_atom_site_fract_x
_atom_site_fract_y
_atom_site_fract_z
_atom_type_partial_charge
C1    C     C_R   0.500099 0.999782 0.379953 0.887053
C2    C     C_R   0.000099 0.499782 0.379953 0.887060
C3    C     C_3   0.465598 0.735496 0.512493 -0.162841
C4    C     C_3   0.480319 0.263409 0.536017 -0.162543
C5    C     C_3   0.964103 0.235495 0.509901 -0.162813
C6    C     C_3   0.977449 0.763401 0.531996 -0.162738
C7    C     C_3   0.499538 0.708940 0.498589 0.201524
C8    C     C_3   0.500545 0.291065 0.501444 0.201830
C9    C     C_3   0.999538 0.208940 0.498588 0.201524
C10   C     C_3   0.000545 0.791064 0.501444 0.201790
C11   C     C_3   0.523870 0.763702 0.576373 -0.161479
C12   C     C_3   0.538167 0.235919 0.583959 -0.160858
C13   C     C_3   0.022175 0.263687 0.575422 -0.161514
C14   C     C_3   0.035738 0.735891 0.583437 -0.160820
C15   C     C_3   0.557811 0.736359 0.562470 -0.160621
C16   C     C_3   0.558391 0.264376 0.549383 -0.162090
C17   C     C_3   0.057610 0.236344 0.564110 -0.160600
C18   C     C_3   0.058833 0.764355 0.552881 -0.161967
C19   C     C_1   0.499298 0.836588 0.498887 -0.073921
C20   C     C_1   0.500794 0.163414 0.501132 -0.072731
C21   C     C_1   0.999298 0.336588 0.498887 -0.073919
C22   C     C_1   0.000794 0.663414 0.501133 -0.072734
C23   C     C_1   0.499709 0.663427 0.498763 -0.074133
C24   C     C_1   0.500343 0.336577 0.501261 -0.075670
C25   C     C_1   0.999709 0.163427 0.498762 -0.074132
C26   C     C_1   0.000343 0.836577 0.501260 -0.075682
C27   C     C_R   0.449548 0.011474 0.229850 0.059417
C28   C     C_R   0.949549 0.511474 0.229851 0.059434
C29   C     C_R   0.500798 0.999217 0.314830 -0.078895
C30   C     C_R   0.000798 0.499217 0.314830 -0.078892
C31   C     C_R   0.553877 0.986388 0.335435 -0.198739
C32   C     C_R   0.053876 0.486388 0.335435 -0.198733
C33   C     C_R   0.553410 0.986161 0.270292 -0.217053
C34   C     C_R   0.053410 0.486161 0.270291 -0.217041
C35   C     C_R   0.499835 0.918711 0.499818 0.905891
C36   C     C_R   0.500209 0.081289 0.500180 0.910533
C37   C     C_R   0.999835 0.418711 0.499818 0.905891
C38   C     C_R   0.000209 0.581289 0.500180 0.910536
C39   C     C_R   0.500335 0.999363 0.185354 -0.070544
C40   C     C_R   0.000335 0.499363 0.185354 -0.070547
C41   C     C_R   0.449465 0.011873 0.167858 0.062912
C42   C     C_R   0.949466 0.511873 0.167858 0.062915
C43   C     C_3   0.384262 0.026349 0.098392 0.259602
C44   C     C_3   0.884262 0.526349 0.098393 0.259597
C45   C     C_3   0.384724 0.026444 0.170088 -0.483119
C46   C     C_3   0.884725 0.526445 0.170088 -0.483132
C47   C     C_R   0.464916 0.028820 0.682691 0.111800
C48   C     C_R   0.964915 0.528820 0.682691 0.111764
C49   C     C_R   0.501530 0.000437 0.687589 -0.089774
C50   C     C_R   0.001530 0.500437 0.687589 -0.089770
C51   C     C_R   0.544742 0.975947 0.763142 -0.211397
C52   C     C_R   0.044742 0.475948 0.763143 -0.211402
C53   C     C_R   0.544598 0.975846 0.827266 -0.222036
C54   C     C_R   0.044598 0.475846 0.827267 -0.222043
C55   C     C_R   0.502575 0.001252 0.816526 -0.085649
C56   C     C_R   0.002575 0.501251 0.816526 -0.085640
C57   C     C_R   0.466064 0.029621 0.747293 0.142277
C58   C     C_R   0.966063 0.529621 0.747292 0.142258
C59   C     C_R   0.500144 0.999567 0.620300 0.875040
C60   C     C_R   0.000144 0.499567 0.620300 0.875034
C61   C     C_3   0.398014 0.036616 0.683347 -0.513834
C62   C     C_3   0.898013 0.536615 0.683347 -0.513834
C63   C     C_3   0.396719 0.035558 0.611962 -0.461490
C64   C     C_3   0.896718 0.535557 0.611961 -0.461468
C65   C     C_R   0.380019 0.500135 0.380037 0.879265
C66   C     C_R   0.880019 0.000136 0.380037 0.879264
C67   C     C_R   0.499973 0.581303 0.499730 0.901404
C68   C     C_R   0.499969 0.418698 0.500197 0.905243
C69   C     C_R   0.999973 0.081303 0.499730 0.901404
C70   C     C_R   0.999969 0.918698 0.500197 0.905239
C71   C     C_R   0.619884 0.500157 0.619954 0.878723
C72   C     C_R   0.119884 0.000157 0.619954 0.878718
C73   C     C_R   0.620119 0.000155 0.120246 0.879331
C74   C     C_R   0.120119 0.500155 0.120246 0.879332
C75   C     C_R   0.499138 0.999818 0.119062 0.912237
C76   C     C_R   0.999139 0.499818 0.119062 0.912235
C77   C     C_R   0.379542 0.999878 0.879182 0.899977
C78   C     C_R   0.879542 0.499878 0.879182 0.899978
C79   C     C_R   0.499795 0.000219 0.879481 0.871905
C80   C     C_R   0.999795 0.500219 0.879481 0.871903
C81   C     C_R   0.280580 0.476567 0.240796 0.132414
C82   C     C_R   0.780580 0.976570 0.240793 0.132404
C83   C     C_3   0.474967 0.736306 0.420865 -0.161076
C84   C     C_3   0.463184 0.264068 0.418862 -0.161185
C85   C     C_3   0.976661 0.236322 0.421814 -0.161138
C86   C     C_3   0.965612 0.764097 0.419384 -0.161165
C87   C     C_R   0.314530 0.501166 0.314884 -0.097976
C88   C     C_R   0.814530 0.001166 0.314884 -0.097975
C89   C     C_R   0.282714 0.526787 0.324954 -0.213503
C90   C     C_R   0.782714 0.026785 0.324957 -0.213506
C91   C     C_R   0.717962 0.027045 0.259907 -0.220783
C92   C     C_R   0.217963 0.527047 0.259904 -0.220779
C93   C     C_R   0.685516 0.000690 0.186640 -0.094812
C94   C     C_R   0.185516 0.500690 0.186640 -0.094822
C95   C     C_R   0.718705 0.975701 0.180173 0.132528
C96   C     C_R   0.218705 0.475699 0.180176 0.132536
C97   C     C_3   0.713492 0.944218 0.124737 -0.498496
C98   C     C_3   0.213493 0.444212 0.124745 -0.498498
C99   C     C_3   0.284723 0.444854 0.194970 -0.482024
C100  C     C_3   0.784723 0.944859 0.194963 -0.482006
C101  C     C_R   0.717023 0.464311 0.700051 0.117319
C102  C     C_R   0.217023 0.964311 0.700050 0.117262
C103  C     C_R   0.685470 0.499981 0.686763 -0.084555
C104  C     C_R   0.185470 0.999982 0.686764 -0.084537
C105  C     C_R   0.717466 0.533531 0.745650 -0.195536
C106  C     C_R   0.217466 0.033531 0.745650 -0.195523
C107  C     C_3   0.533242 0.764521 0.484752 -0.161720
C108  C     C_3   0.521026 0.236587 0.466795 -0.158614
C109  C     C_3   0.034737 0.264522 0.487343 -0.161805
C110  C     C_3   0.023895 0.736595 0.470816 -0.158846
C111  C     C_R   0.281725 0.033609 0.809786 -0.158347
C112  C     C_R   0.781725 0.533609 0.809786 -0.158353
C113  C     C_R   0.313424 0.999393 0.816445 -0.108468
C114  C     C_R   0.813424 0.499393 0.816445 -0.108480
C115  C     C_R   0.280523 0.963904 0.764784 0.177791
C116  C     C_R   0.780523 0.463904 0.764784 0.177815
C117  C     C_3   0.284163 0.940537 0.709000 -0.496769
C118  C     C_3   0.784163 0.440536 0.709001 -0.496780
C119  C     C_3   0.714012 0.441079 0.637510 -0.499318
C120  C     C_3   0.214012 0.941080 0.637510 -0.499288
C121  C     C_1   0.499456 0.874152 0.499246 -0.181235
C122  C     C_1   0.500619 0.125849 0.500766 -0.181717
C123  C     C_1   0.999456 0.374152 0.499246 -0.181237
C124  C     C_1   0.000619 0.625849 0.500766 -0.181720
C125  C     C_1   0.499849 0.625862 0.499112 -0.181145
C126  C     C_1   0.500157 0.374141 0.500881 -0.184136
C127  C     C_1   0.999849 0.125862 0.499112 -0.181145
C128  C     C_1   0.000157 0.874141 0.500881 -0.184140
C129  C     C_3   0.441025 0.763660 0.434772 -0.161195
C130  C     C_3   0.442959 0.235622 0.453431 -0.163737
C131  C     C_3   0.941224 0.263676 0.433130 -0.161087
C132  C     C_3   0.942518 0.735643 0.449934 -0.163567
C133  C     C_3   0.499301 0.791075 0.498657 0.201708
C134  C     C_3   0.500801 0.208928 0.501368 0.201635
C135  C     C_3   0.999300 0.291075 0.498657 0.201721
C136  C     C_3   0.000801 0.708928 0.501369 0.201694
H1    H     H_    0.560977 0.777197 0.473377 0.137277
H2    H     H_    0.537718 0.224822 0.438412 0.139407
H3    H     H_    0.063698 0.277197 0.478094 0.137273
H4    H     H_    0.042941 0.724836 0.445729 0.139220
H5    H     H_    0.353894 0.002458 0.160862 0.218372
H6    H     H_    0.382312 0.058231 0.188325 0.209782
H7    H     H_    0.853894 0.502459 0.160862 0.218364
H8    H     H_    0.882313 0.558232 0.188326 0.209786
H9    H     H_    0.576114 0.955468 0.770278 0.158636
H10   H     H_    0.076115 0.455468 0.770279 0.158642
H11   H     H_    0.575889 0.955431 0.883645 0.152136
H12   H     H_    0.075890 0.455432 0.883646 0.152135
H13   H     H_    0.386995 0.068007 0.691356 0.210829
H14   H     H_    0.373010 0.009805 0.680445 0.193372
H15   H     H_    0.886993 0.568005 0.691354 0.210825
H16   H     H_    0.873010 0.509804 0.680445 0.193373
H17   H     H_    0.384789 0.066317 0.578608 0.201768
H18   H     H_    0.371052 0.008047 0.567649 0.215601
H19   H     H_    0.884787 0.566316 0.578606 0.201782
H20   H     H_    0.871051 0.508045 0.567648 0.215602
H21   H     H_    0.307641 0.546689 0.381881 0.161400
H22   H     H_    0.807641 0.046685 0.381886 0.161395
H23   H     H_    0.693515 0.047032 0.267326 0.159568
H24   H     H_    0.193515 0.547036 0.267321 0.159574
H25   H     H_    0.692096 0.957587 0.060855 0.197194
H26   H     H_    0.693446 0.913924 0.121252 0.212211
H27   H     H_    0.192097 0.457579 0.060861 0.197195
H28   H     H_    0.193446 0.413919 0.121263 0.212203
H29   H     H_    0.304500 0.458301 0.171487 0.213024
H30   H     H_    0.305820 0.415014 0.232449 0.199478
H31   H     H_    0.804499 0.958309 0.171481 0.213015
H32   H     H_    0.805820 0.915019 0.232437 0.199520
H33   H     H_    0.692938 0.560309 0.739227 0.154553
H34   H     H_    0.192938 0.060309 0.739228 0.154540
H35   H     H_    0.454924 0.724300 0.357107 0.138461
H36   H     H_    0.432425 0.276379 0.351162 0.137718
H37   H     H_    0.958006 0.224329 0.358835 0.138462
H38   H     H_    0.936845 0.776433 0.352113 0.137917
H39   H     H_    0.306381 0.060592 0.852371 0.195804
H40   H     H_    0.806381 0.560593 0.852370 0.195805
H41   H     H_    0.303445 0.908521 0.734794 0.213640
H42   H     H_    0.305788 0.959437 0.692885 0.191426
H43   H     H_    0.803445 0.408520 0.734795 0.213641
H44   H     H_    0.805788 0.459436 0.692886 0.191424
H45   H     H_    0.692807 0.409380 0.622029 0.204984
H46   H     H_    0.694800 0.460341 0.579799 0.218668
H47   H     H_    0.192807 0.909381 0.622027 0.205015
H48   H     H_    0.194800 0.960342 0.579798 0.218669
H49   H     H_    0.605699 0.724395 0.614825 0.138013
H50   H     H_    0.605720 0.276944 0.588733 0.136113
H51   H     H_    0.105335 0.224368 0.617811 0.138101
H52   H     H_    0.106522 0.776907 0.595097 0.136257
H53   H     H_    0.543914 0.775703 0.640135 0.136465
H54   H     H_    0.568920 0.223604 0.651654 0.137760
H55   H     H_    0.040830 0.275674 0.638406 0.136403
H56   H     H_    0.064499 0.723550 0.650703 0.137659
H57   H     H_    0.437863 0.722822 0.523869 0.136930
H58   H     H_    0.463622 0.275177 0.564393 0.137790
H59   H     H_    0.935140 0.222821 0.519150 0.136877
H60   H     H_    0.958400 0.775162 0.557076 0.137645
H61   H     H_    0.393138 0.775626 0.382421 0.138887
H62   H     H_    0.395624 0.223063 0.414074 0.137417
H63   H     H_    0.893500 0.275653 0.379432 0.138944
H64   H     H_    0.894823 0.723101 0.407710 0.137578
H65   H     H_    0.595084 0.976282 0.400876 0.166900
H66   H     H_    0.095084 0.476281 0.400875 0.166897
H67   H     H_    0.594090 0.976160 0.286104 0.144425
H68   H     H_    0.094089 0.476158 0.286104 0.144428
O1    O     O_R   0.448310 0.000000 0.356640 -0.617968
O2    O     O_R   0.948310 0.500000 0.356640 -0.617974
O3    O     O_R   0.500000 0.561620 0.551710 -0.618055
O4    O     O_R   0.500000 0.438380 0.551710 -0.612167
O5    O     O_R   0.000000 0.061620 0.551710 -0.618047
O6    O     O_R   1.000000 0.938380 0.551710 -0.612152
O7    O     O_R   0.591480 0.500000 0.539730 -0.627190
O8    O     O_R   0.091480 0.000000 0.539730 -0.627188
O9    O     O_R   0.591580 0.500000 0.643270 -0.608788
O10   O     O_R   0.091580 0.000000 0.643270 -0.608790
O11   O     O_R   0.591630 0.965220 0.091680 -0.627221
O12   O     O_R   0.591630 0.034780 0.091680 -0.622923
O13   O     O_R   0.091630 0.465220 0.091680 -0.627218
O14   O     O_R   0.091630 0.534780 0.091680 -0.622926
O15   O     O_R   0.500040 0.965230 0.091630 -0.615541
O16   O     O_R   0.500040 0.034770 0.091630 -0.602533
O17   O     O_R   0.000040 0.465230 0.091630 -0.615535
O18   O     O_R   0.000040 0.534770 0.091630 -0.602531
O19   O     O_R   0.408450 0.965250 0.908360 -0.613065
O20   O     O_R   0.408450 0.034750 0.908360 -0.618174
O21   O     O_R   0.908450 0.465250 0.908360 -0.613062
O22   O     O_R   0.908450 0.534750 0.908360 -0.618176
O23   O     O_R   0.500040 0.965230 0.908410 -0.628042
O24   O     O_R   0.500040 0.034770 0.908410 -0.620642
O25   O     O_R   0.000040 0.465230 0.908410 -0.628045
O26   O     O_R   0.000040 0.534770 0.908410 -0.620648
O27   O     O_R   0.551720 0.000000 0.460130 -0.630549
O28   O     O_R   0.051720 0.500000 0.460130 -0.630555
O29   O     O_R   0.448310 0.938390 0.448250 -0.614987
O30   O     O_R   0.448310 0.061610 0.448250 -0.617606
O31   O     O_R   0.948310 0.438390 0.448250 -0.614988
O32   O     O_R   0.948310 0.561610 0.448250 -0.617614
O33   O     O_R   0.551720 0.938410 0.551740 -0.620248
O34   O     O_R   0.551720 0.061590 0.551740 -0.614226
O35   O     O_R   0.051720 0.438410 0.551740 -0.620246
O36   O     O_R   0.051720 0.561590 0.551740 -0.614221
O37   O     O_R   0.448310 0.000000 0.539870 -0.624999
O38   O     O_R   0.948310 0.500000 0.539870 -0.624994
O39   O     O_R   0.551720 0.000000 0.643360 -0.623192
O40   O     O_R   0.051720 0.500000 0.643360 -0.623186
O41   O     O_R   0.408300 0.500000 0.356580 -0.622070
O42   O     O_R   0.908300 1.000000 0.356580 -0.622070
O43   O     O_R   0.408400 0.500000 0.460120 -0.624723
O44   O     O_R   0.908400 0.000000 0.460120 -0.624727
O45   O     O_R   0.499900 0.561630 0.448170 -0.616426
O46   O     O_R   0.499900 0.438370 0.448170 -0.620340
O47   O     O_R   0.999900 0.061630 0.448170 -0.616431
O48   O     O_R   0.999900 0.938370 0.448170 -0.620357
Zn1   Zn    Zn3+2 0.430960 0.000000 0.430900 0.960114
Zn2   Zn    Zn3+2 0.930960 0.500000 0.430900 0.960105
Zn3   Zn    Zn3+2 0.569060 0.000000 0.569100 0.957952
Zn4   Zn    Zn3+2 0.069060 0.500000 0.569100 0.957956
Zn5   Zn    Zn3+2 0.499870 0.500000 0.430790 0.953848
Zn6   Zn    Zn3+2 0.999870 0.000000 0.430790 0.953822
Zn7   Zn    Zn3+2 0.500010 0.500000 0.569060 0.975461
Zn8   Zn    Zn3+2 0.000010 0.000000 0.569060 0.975483
Zn9   Zn    Zn3+2 0.500030 0.953570 0.000010 0.964355
Zn10  Zn    Zn3+2 0.500030 0.046430 0.000010 0.985687
Zn11  Zn    Zn3+2 0.000030 0.453570 0.000010 0.964363
Zn12  Zn    Zn3+2 0.000030 0.546430 0.000010 0.985683
I1    I     I_    0.324072 0.979869 0.999402 -0.369357
I2    I     I_    0.375938 0.087301 0.048545 -0.376053
I3    I     I_    0.824072 0.479870 0.999402 -0.369351
I4    I     I_    0.875939 0.587302 0.048545 -0.375980

loop_
_geom_bond_atom_site_label_1
_geom_bond_atom_site_label_2
_ccdc_geom_bond_type
C78   O22   A    
C72   O10   A    
C58   C62   S    
C114  C116  A    
O22   Zn12  S    
C109  C135  S    
O14   Zn12  S    
C74   C94   S    
C110  C136  S    
C8    C16   S    
O15   Zn9   S    
C73   C93   S    
C80   O25   A    
C4    C8    S    
C6    H60   S    
C98   H27   S    
C51   C53   A    
C9    C25   S    
C110  H4    S    
C39   C41   A    
C66   O44   A    
C117  H42   S    
C4    H58   S    
C15   H49   S    
C64   H19   S    
C28   C46   S    
C33   C39   A    
C105  H33   S    
O13   Zn11  S    
C100  H31   S    
C34   C40   A    
C86   C110  S    
C17   H51   S    
C83   C129  S    
C131  C135  S    
C11   C133  S    
O47   Zn6   S    
C38   O32   A    
C82   C88   A    
C35   O33   A    
C48   C64   S    
C27   C29   A    
C27   C45   S    
C51   H9    S    
O6    Zn8   S    
C98   C99   S    
C5    H59   S    
O17   Zn11  S    
C53   H11   S    
O39   Zn3   S    
C66   C88   S    
O31   Zn2   S    
C59   O39   A    
C119  H45   S    
C5    C131  S    
C15   C107  S    
C57   C61   S    
C61   C63   S    
C14   C18   S    
C118  C119  S    
C94   C96   A    
C62   C64   S    
C102  C115  A    
C9    C85   S    
O44   Zn8   S    
C11   C15   S    
C77   O19   A    
C19   C121  T    
C12   C16   S    
C34   H68   S    
C28   C30   A    
C49   C51   A    
C83   H35   S    
C108  C134  S    
C68   O4    A    
C50   C52   A    
C31   C33   A    
C73   O12   A    
C65   C87   S    
C35   O29   A    
C39   C75   S    
C66   O42   A    
C44   I3    S    
O41   Zn5   S    
C61   H14   S    
O46   Zn5   S    
C5    C13   S    
O29   Zn1   S    
C49   C59   S    
C23   C125  T    
C99   H30   S    
C14   H56   S    
C118  H43   S    
C10   C26   S    
C78   O21   A    
C7    C15   S    
C65   O43   A    
C101  C103  A    
O4    Zn7   S    
C37   C123  S    
C104  C106  A    
O9    Zn7   S    
C24   C126  T    
C41   C43   S    
O10   Zn8   S    
C78   C114  S    
C42   C44   S    
C2    O28   A    
C77   C113  S    
C112  C114  A    
O24   Zn10  S    
O32   Zn2   S    
C37   O31   A    
C85   C109  S    
O26   Zn12  S    
C106  C111  A    
C53   C55   A    
C36   O34   A    
C54   C56   A    
O36   Zn4   S    
C60   O40   A    
C62   H15   S    
C26   C128  T    
O48   Zn6   S    
C22   C124  T    
C101  C119  S    
C8    C84   S    
C35   C121  S    
C3    C11   S    
O43   Zn7   S    
C63   H17   S    
C43   I2    S    
C47   C49   A    
C116  C118  S    
C13   C135  S    
C117  C120  S    
C80   O26   A    
C81   C96   A    
C16   C108  S    
O5    Zn8   S    
C46   H8    S    
C44   C46   S    
C115  C117  S    
C59   O37   A    
C71   O9    A    
C56   C58   A    
C38   O36   A    
C33   H67   S    
C40   C76   S    
C47   C63   S    
C96   C98   S    
C11   H53   S    
C86   H38   S    
C119  H46   S    
C32   C34   A    
C107  H1    S    
O25   Zn11  S    
C131  H63   S    
C132  H64   S    
C5    C9    S    
O42   Zn6   S    
C91   C93   A    
C55   C79   S    
C27   C41   A    
C77   O20   A    
C85   H37   S    
C82   C100  S    
C75   O15   A    
C132  C136  S    
O3    Zn7   S    
C60   O38   A    
C74   O14   A    
C92   C94   A    
C52   C54   A    
C91   H23   S    
C111  C113  A    
C3    H57   S    
C9    C17   S    
C89   C92   A    
C102  C104  A    
C48   C50   A    
C43   C45   S    
O30   Zn1   S    
C89   H21   S    
C81   C87   A    
C62   H16   S    
C45   H5    S    
C129  C133  S    
C13   H55   S    
C67   O45   A    
C6    C132  S    
C84   C130  S    
C105  C112  A    
C88   C90   A    
O7    Zn5   S    
C97   H25   S    
C55   C57   A    
O40   Zn4   S    
C45   H6    S    
O38   Zn2   S    
C103  C105  A    
C111  H39   S    
C4    C12   S    
C2    C30   S    
C1    C29   S    
C61   H13   S    
O2    Zn2   S    
C68   C126  S    
C79   O24   A    
O19   Zn9   S    
C97   C100  S    
C1    O1    A    
C4    C130  S    
O23   Zn9   S    
O28   Zn4   S    
C54   H12   S    
C108  H2    S    
C70   C128  S    
C101  C116  A    
C68   O46   A    
C65   O41   A    
C10   C86   S    
C67   O3    A    
C52   H10   S    
C82   C95   A    
C28   C42   A    
C120  H48   S    
C112  H40   S    
C3    C129  S    
O8    Zn6   S    
C20   C122  T    
O11   Zn9   S    
O33   Zn3   S    
O16   Zn10  S    
C18   C110  S    
C63   H18   S    
O45   Zn5   S    
C40   C42   A    
C84   H36   S    
C17   C109  S    
C92   H24   S    
C6    C10   S    
O20   Zn10  S    
C48   C58   A    
C95   C97   S    
C43   I1    S    
C46   H7    S    
O1    Zn1   S    
C13   C17   S    
C76   O17   A    
C19   C133  S    
C81   C99   S    
C44   I4    S    
C3    C7    S    
C56   C80   S    
C100  H32   S    
O34   Zn3   S    
C109  H3    S    
C102  C120  S    
C76   O18   A    
C98   H28   S    
C67   C125  S    
C25   C127  T    
C50   C60   S    
C6    C14   S    
C29   C31   A    
C36   C122  S    
C16   H50   S    
C107  C133  S    
C85   C131  S    
C30   C32   A    
O27   Zn3   S    
O35   Zn4   S    
C86   C132  S    
C90   C91   A    
C72   O8    A    
C113  C115  A    
C14   C136  S    
C75   O16   A    
C10   C18   S    
C7    C23   S    
C74   O13   A    
C18   H52   S    
C8    C24   S    
C83   C107  S    
C64   H20   S    
C69   O5    A    
C12   H54   S    
C32   H66   S    
C130  C134  S    
C120  H47   S    
C38   C124  S    
C1    O27   A    
C31   H65   S    
C71   C103  S    
C37   O35   A    
C69   O47   A    
C70   O48   A    
O12   Zn10  S    
C72   C104  S    
C7    C83   S    
C84   C108  S    
O37   Zn1   S    
C90   H22   S    
C69   C127  S    
C93   C95   A    
C97   H26   S    
C106  H34   S    
C22   C136  S    
C47   C57   A    
C79   O23   A    
C87   C89   A    
O21   Zn11  S    
C2    O2    A    
C73   O11   A    
C71   O7    A    
C12   C134  S    
C21   C123  T    
C117  H41   S    
C70   O6    A    
C20   C134  S    
C130  H62   S    
C36   O30   A    
C21   C135  S    
C129  H61   S    
O18   Zn12  S    
C99   H29   S    
C118  H44   S    
