data_mof_unit_24976.cif
_audit_creation_date              2012-12-10T17:13:39-0500
_audit_creation_method            fapswitch 2.2
_symmetry_space_group_name_H-M    P1
_symmetry_Int_Tables_number       1
_space_group_crystal_system       triclinic
_cell_length_a                    10.731482
_cell_length_b                    13.031789
_cell_length_c                    11.659849
_cell_angle_alpha                 99.700014
_cell_angle_beta                  93.762793
_cell_angle_gamma                 90.506339
_cell_volume                      1603.52913938

loop_
_atom_site_label
_atom_site_type_symbol
_atom_type_description
_atom_site_fract_x
_atom_site_fract_y
_atom_site_fract_z
_atom_type_partial_charge
C1    C     C_R   0.499295 0.299114 0.478919 0.866870
C2    C     C_R   0.522770 0.030905 0.557401 -0.029733
C3    C     C_R   0.480724 0.969361 0.447921 0.011719
C4    C     C_R   0.259734 0.500006 0.500089 0.745134
C5    C     C_R   0.473908 0.861231 0.439127 -0.251388
C6    C     C_R   0.543057 0.873447 0.642254 -0.198848
C7    C     C_R   0.550880 0.982167 0.657129 0.149650
C8    C     C_R   0.380946 0.403075 0.021973 -0.337014
C9    C     C_R   0.392339 0.412282 0.144209 0.084451
C10   C     C_R   0.551613 0.541601 0.156984 0.020853
C11   C     C_R   0.543274 0.535155 0.034159 0.066181
C12   C     C_3   0.878041 0.501456 0.499163 0.118654
C13   C     C_R   0.456715 0.464861 0.965852 0.063551
C14   C     C_R   0.448417 0.458376 0.843023 0.066307
C15   C     C_R   0.607557 0.587810 0.855808 0.086843
C16   C     C_R   0.502380 0.700736 0.521346 0.796064
C17   C     C_R   0.618981 0.596994 0.978042 -0.343209
C18   C     C_R   0.740262 0.500385 0.499604 0.769916
C19   C     C_3   0.074880 0.409956 0.554174 -0.435271
C20   C     C_3   0.931177 0.408461 0.552479 -0.368430
C21   C     C_3   0.077792 0.606697 0.573109 0.011720
C22   C     C_3   0.061939 0.490569 0.372768 -0.373007
C23   C     C_3   0.932698 0.604456 0.572208 -0.387268
C24   C     C_3   0.121753 0.502869 0.499829 0.111786
C25   C     C_3   0.126854 0.705978 0.531653 -0.400189
C26   C     C_3   0.114546 0.803856 0.622727 -0.852200
C27   C     C_3   0.402460 0.950607 0.231833 -0.381331
C28   C     C_3   0.368468 0.009413 0.131355 -0.864074
C29   C     C_3   0.586775 0.045117 0.778243 -0.298401
C30   C     C_3   0.598344 0.984742 0.880285 -0.939331
C31   C     C_3   0.919442 0.492954 0.372844 -0.378402
C32   C     C_R   0.506289 0.813815 0.534497 -0.089446
C33   C     C_R   0.496886 0.185734 0.467626 -0.203198
C34   C     C_R   0.446820 0.016634 0.349058 0.160986
C35   C     C_R   0.453920 0.125200 0.362038 -0.289118
C36   C     C_R   0.534925 0.139139 0.563352 0.496750
Cu1   Cu    Cu3+1 0.509350 0.507730 0.615930 0.956922
Cu2   Cu    Cu3+1 0.490650 0.492270 0.384070 0.920988
F1    F     F_    0.588034 0.200637 0.660075 -0.699382
H1    H     H_    0.114608 0.415932 0.645745 0.167715
H2    H     H_    0.313411 0.348122 0.971897 0.136833
H3    H     H_    0.686476 0.651982 0.028121 0.134093
H4    H     H_    0.333540 0.364392 0.186637 0.117154
H5    H     H_    0.617916 0.595417 0.210435 0.115815
H6    H     H_    0.893346 0.333846 0.500547 0.167206
H7    H     H_    0.902369 0.412296 0.643070 0.185967
H8    H     H_    0.115975 0.609146 0.664804 0.157191
H9    H     H_    0.904957 0.612251 0.663573 0.150451
H10   H     H_    0.095566 0.553332 0.327871 0.167620
H11   H     H_    0.089618 0.415241 0.321415 0.168442
H12   H     H_    0.884834 0.560467 0.333608 0.163061
H13   H     H_    0.879134 0.420834 0.317353 0.177733
H14   H     H_    0.015283 0.817619 0.640881 0.250468
H15   H     H_    0.169129 0.796269 0.705070 0.250350
H16   H     H_    0.151727 0.872342 0.589714 0.250367
H17   H     H_    0.227206 0.698889 0.514787 0.201471
H18   H     H_    0.075545 0.716972 0.448816 0.207944
H19   H     H_    0.288821 0.061564 0.152300 0.247285
H20   H     H_    0.450276 0.055021 0.112436 0.256205
H21   H     H_    0.339843 0.952644 0.051583 0.243761
H22   H     H_    0.477494 0.895807 0.203037 0.200389
H23   H     H_    0.891407 0.671189 0.535810 0.157514
H24   H     H_    0.318349 0.904420 0.244359 0.197237
H25   H     H_    0.509749 0.942008 0.886789 0.261634
H26   H     H_    0.677141 0.929948 0.870553 0.251313
H27   H     H_    0.618033 0.040349 0.962907 0.256353
H28   H     H_    0.678322 0.084971 0.776076 0.251581
H29   H     H_    0.514200 0.104307 0.799810 0.242331
H30   H     H_    0.443380 0.812057 0.357845 0.151799
H31   H     H_    0.567017 0.833349 0.714205 0.170306
H32   H     H_    0.425498 0.164324 0.290280 0.191664
H33   H     H_    0.382162 0.404520 0.789567 0.119958
H34   H     H_    0.106659 0.335205 0.504747 0.164059
H35   H     H_    0.666265 0.635777 0.813384 0.114782
N1    N     N_R   0.523430 0.519360 0.790130 -0.177981
N2    N     N_R   0.476570 0.480640 0.209880 -0.178460
O1    O     O_R   0.506640 0.354460 0.582000 -0.512729
O2    O     O_R   0.490840 0.341410 0.386200 -0.605446
O3    O     O_R   0.325590 0.506510 0.597900 -0.599378
O4    O     O_R   0.309790 0.493450 0.402100 -0.595726
O5    O     O_R   0.509160 0.658590 0.613800 -0.594853
O6    O     O_R   0.493360 0.645540 0.418000 -0.591722
O7    O     O_R   0.690210 0.506550 0.597900 -0.585251
O8    O     O_R   0.674410 0.493490 0.402100 -0.592610

loop_
_geom_bond_atom_site_label_1
_geom_bond_atom_site_label_2
_ccdc_geom_bond_type
C15   N1    A    
C8    C13   A    
C7    C29   S    
C30   H25   S    
C1    O1    A    
C6    C32   A    
C19   C20   S    
C25   H17   S    
C31   H13   S    
C26   H16   S    
C1    C33   S    
Cu2   N2    S    
Cu1   O3    S    
C12   C23   S    
Cu1   Cu2   S    
C4    O4    A    
C4    C24   S    
C33   C36   A    
C6    H31   S    
C34   C35   A    
C17   H3    S    
C5    H30   S    
C27   H22   S    
C29   H28   S    
C10   N2    A    
C23   H23   S    
C2    C7    A    
C8    C9    A    
C18   O8    A    
C9    N2    A    
C20   H6    S    
C22   H11   S    
C5    C32   A    
Cu1   N1    S    
C35   H32   S    
C13   C14   A    
Cu2   O6    S    
C1    O2    A    
Cu1   O5    S    
C25   H18   S    
C26   H15   S    
C28   H21   S    
C27   C34   S    
C9    H4    S    
C22   C31   S    
C10   H5    S    
C19   H34   S    
C8    H2    S    
C4    O3    A    
C10   C11   A    
Cu2   O2    S    
C3    C34   A    
C25   C26   S    
Cu1   O1    S    
C29   C30   S    
C29   H29   S    
C12   C20   S    
C16   O6    A    
C18   O7    A    
C30   H27   S    
C27   H24   S    
C22   H10   S    
C21   C23   S    
C12   C31   S    
C22   C24   S    
C26   H14   S    
C28   H20   S    
C2    C36   A    
C15   C17   A    
C21   C25   S    
C11   C17   A    
C23   H9    S    
Cu2   O8    S    
C14   H33   S    
C36   F1    S    
C31   H12   S    
C3    C5    A    
C6    C7    A    
C28   H19   S    
C16   C32   S    
C14   N1    A    
C19   C24   S    
C11   C13   A    
Cu2   O4    S    
C16   O5    A    
C33   C35   A    
C2    C3    A    
C30   H26   S    
C19   H1    S    
C15   H35   S    
C21   C24   S    
C12   C18   S    
C27   C28   S    
Cu1   O7    S    
C20   H7    S    
C21   H8    S    
