data_mof_unit_14886.cif
_audit_creation_date              2012-12-11T14:04:04-0500
_audit_creation_method            fapswitch 2.2
_symmetry_space_group_name_H-M    P1
_symmetry_Int_Tables_number       1
_space_group_crystal_system       triclinic
_cell_length_a                    19.252058
_cell_length_b                    11.065914
_cell_length_c                    18.763371
_cell_angle_alpha                 89.946107
_cell_angle_beta                  90.453371
_cell_angle_gamma                 89.371208
_cell_volume                      3997.01095598

loop_
_atom_site_label
_atom_site_type_symbol
_atom_type_description
_atom_site_fract_x
_atom_site_fract_y
_atom_site_fract_z
_atom_type_partial_charge
C1    C     C_R   0.222241 0.529649 0.641340 0.578154
C2    C     C_R   0.777037 0.523289 0.359399 0.570856
C3    C     C_R   0.721949 0.030176 0.641532 0.580972
C4    C     C_R   0.260040 0.963609 0.351039 0.548711
C5    C     C_2   0.281965 0.837849 0.533520 -0.157039
C6    C     C_2   0.693863 0.951631 0.445691 -0.160098
C7    C     C_2   0.767348 0.357268 0.531243 -0.150587
C8    C     C_2   0.194417 0.449278 0.446043 -0.157944
C9    C     C_R   0.999630 0.671598 0.429427 -0.045267
C10   C     C_R   0.989688 0.682846 0.579288 -0.040775
C11   C     C_R   0.500367 0.172094 0.429030 -0.045466
C12   C     C_R   0.489381 0.182088 0.579029 -0.041505
C13   C     C_R   0.999259 0.903830 0.425102 0.027797
C14   C     C_R   0.981914 0.914697 0.574180 0.007647
C15   C     C_R   0.498359 0.404059 0.425100 0.031754
C16   C     C_R   0.478385 0.413193 0.573824 0.003638
C17   C     C_R   0.968670 0.002964 0.457296 -0.143253
C18   C     C_R   0.964219 0.011249 0.529493 -0.151805
C19   C     C_R   0.466097 0.502097 0.456854 -0.142248
C20   C     C_R   0.460249 0.509441 0.529010 -0.151119
C21   C     C_R   0.993651 0.796143 0.541047 0.014212
C22   C     C_R   0.000162 0.790026 0.463794 -0.010830
C23   C     C_R   0.492220 0.295531 0.540830 0.014221
C24   C     C_R   0.499682 0.290141 0.463664 -0.008098
C25   C     C_R   0.972251 0.578776 0.542688 -0.000982
C26   C     C_R   0.994620 0.566281 0.472735 0.007683
C27   C     C_R   0.474372 0.077219 0.541984 0.004995
C28   C     C_R   0.497176 0.066450 0.472009 0.013322
C29   C     C_R   0.940201 0.481297 0.577656 -0.082620
C30   C     C_R   0.002402 0.447020 0.446565 -0.078306
C31   C     C_R   0.445489 0.977028 0.577071 -0.073566
C32   C     C_R   0.507417 0.948108 0.445323 -0.083466
C33   C     C_R   0.937723 0.368551 0.545571 -0.114832
C34   C     C_R   0.970156 0.351175 0.480508 -0.121343
C35   C     C_R   0.448757 0.863555 0.546441 -0.124607
C36   C     C_R   0.479795 0.849339 0.480469 -0.145261
C37   C     C_2   0.255137 0.927135 0.916693 -0.109952
C38   C     C_2   0.761672 0.895101 0.070751 -0.092353
C39   C     C_2   0.738750 0.396243 0.928922 -0.090706
C40   C     C_2   0.244788 0.426905 0.083004 -0.108539
C41   C     C_2   0.255070 0.938601 0.073120 -0.099282
C42   C     C_2   0.752935 0.896797 0.914333 -0.108472
C43   C     C_2   0.748071 0.397454 0.085400 -0.108480
C44   C     C_2   0.245533 0.438511 0.926700 -0.093873
C45   C     C_R   0.224903 0.870702 0.646140 0.557892
C46   C     C_R   0.773122 0.875657 0.352226 0.541897
C47   C     C_R   0.726907 0.377315 0.649983 0.557389
C48   C     C_R   0.273033 0.375414 0.352094 0.548199
C49   C     C_2   0.228026 0.023622 0.029129 -0.150228
C50   C     C_2   0.811333 0.915360 0.951034 -0.165691
C51   C     C_2   0.689448 0.417138 0.048849 -0.166259
C52   C     C_2   0.271524 0.523314 0.970703 -0.151088
C53   C     C_2   0.215737 0.003295 0.953875 -0.165797
C54   C     C_2   0.816463 0.888615 0.026604 -0.147829
C55   C     C_2   0.684196 0.390939 0.973310 -0.148001
C56   C     C_2   0.283621 0.502851 0.045999 -0.166406
C57   C     C_2   0.990833 0.665300 0.916036 -0.109063
C58   C     C_2   0.988239 0.655801 0.073470 -0.104070
C59   C     C_2   0.491146 0.165342 0.916189 -0.111761
C60   C     C_2   0.488501 0.155698 0.073578 -0.095300
C61   C     C_2   0.961387 0.572031 0.029420 -0.153380
C62   C     C_2   0.976238 0.566747 0.953761 -0.163662
C63   C     C_2   0.461472 0.072139 0.029481 -0.148949
C64   C     C_2   0.476300 0.066828 0.953823 -0.162875
C65   C     C_R   0.027292 0.658883 0.646964 0.524876
C66   C     C_R   0.971494 0.656298 0.355167 0.519399
C67   C     C_R   0.527139 0.158865 0.646952 0.525017
C68   C     C_R   0.471623 0.156390 0.355049 0.527847
C69   C     C_R   0.237965 0.471062 0.852415 0.557066
C70   C     C_R   0.760770 0.463791 0.150541 0.561685
C71   C     C_R   0.739514 0.963965 0.849352 0.560520
C72   C     C_R   0.262204 0.970717 0.147480 0.547941
C73   C     C_R   0.228285 0.875134 0.851589 0.561399
C74   C     C_R   0.774549 0.868858 0.145235 0.557574
C75   C     C_R   0.725670 0.369579 0.854624 0.555673
C76   C     C_R   0.271761 0.374777 0.148328 0.556484
C77   C     C_R   0.028358 0.653101 0.849683 0.554405
C78   C     C_R   0.967731 0.651398 0.147574 0.550322
C79   C     C_R   0.528432 0.153100 0.849726 0.551330
C80   C     C_R   0.467845 0.151394 0.147640 0.551146
C81   C     C_2   0.242558 0.910979 0.574791 0.006748
C82   C     C_2   0.758139 0.912620 0.425996 -0.000046
C83   C     C_2   0.743924 0.430415 0.583011 0.003256
C84   C     C_2   0.258236 0.408682 0.426156 0.005290
C85   C     C_2   0.244305 0.890741 0.413050 -0.122629
C86   C     C_2   0.718384 0.038766 0.563462 -0.102328
C87   C     C_2   0.782623 0.489024 0.432027 -0.084942
C88   C     C_2   0.219700 0.536457 0.563250 -0.104732
C89   C     C_2   0.295545 0.860723 0.458200 -0.172092
C90   C     C_2   0.674922 0.977607 0.521217 -0.161709
C91   C     C_2   0.757214 0.386402 0.456194 -0.142179
C92   C     C_2   0.176188 0.474585 0.521552 -0.158173
Cr1   Cr    Cr6+3 0.113970 0.508630 0.747920 1.007523
Cr2   Cr    Cr6+3 0.886030 0.508630 0.252080 1.010010
Cr3   Cr    Cr6+3 0.613970 0.008630 0.747920 1.006239
Cr4   Cr    Cr6+3 0.386030 0.008630 0.252080 1.010041
Cr5   Cr    Cr6+3 0.269200 0.666740 0.749850 0.967415
Cr6   Cr    Cr6+3 0.730800 0.666740 0.250150 0.964057
Cr7   Cr    Cr6+3 0.769200 0.166740 0.749850 0.972146
Cr8   Cr    Cr6+3 0.230800 0.166740 0.250150 0.968489
Cr9   Cr    Cr6+3 0.112300 0.820070 0.749800 0.970848
Cr10  Cr    Cr6+3 0.887700 0.820070 0.250200 0.977203
Cr11  Cr    Cr6+3 0.612300 0.320070 0.749800 0.970063
Cr12  Cr    Cr6+3 0.387700 0.320070 0.250200 0.984574
H1    H     H_    0.349043 0.865069 0.441605 0.171730
H2    H     H_    0.629620 0.934793 0.543362 0.158549
H3    H     H_    0.728308 0.325539 0.421888 0.141235
H4    H     H_    0.130073 0.434443 0.543678 0.155674
H5    H     H_    0.169753 0.045744 0.930499 0.151061
H6    H     H_    0.868631 0.871829 0.047247 0.155272
H7    H     H_    0.632031 0.375189 0.952935 0.151817
H8    H     H_    0.328988 0.545151 0.069585 0.151507
H9    H     H_    0.274992 0.852334 0.054274 0.084234
H10   H     H_    0.710736 0.845242 0.936964 0.109638
H11   H     H_    0.790765 0.345807 0.062601 0.103416
H12   H     H_    0.226589 0.352225 0.945507 0.087637
H13   H     H_    0.303228 0.890254 0.938828 0.095669
H14   H     H_    0.708910 0.910929 0.051902 0.094344
H15   H     H_    0.791512 0.411027 0.947499 0.087355
H16   H     H_    0.197235 0.390285 0.060608 0.103473
H17   H     H_    0.930199 0.498687 0.050023 0.153562
H18   H     H_    0.979427 0.477250 0.930148 0.152463
H19   H     H_    0.430007 0.999102 0.050020 0.154817
H20   H     H_    0.479113 0.977385 0.930092 0.151654
H21   H     H_    0.019024 0.730574 0.054364 0.093012
H22   H     H_    0.984110 0.755098 0.938513 0.099510
H23   H     H_    0.519608 0.230148 0.054561 0.087120
H24   H     H_    0.484822 0.255120 0.938794 0.101917
H25   H     H_    0.308147 0.760183 0.556732 0.121609
H26   H     H_    0.652738 0.953930 0.405971 0.114203
H27   H     H_    0.787254 0.268927 0.544213 0.115525
H28   H     H_    0.153263 0.455374 0.406359 0.112037
H29   H     H_    0.190607 0.881182 0.428325 0.109950
H30   H     H_    0.758175 0.090067 0.538554 0.089148
H31   H     H_    0.822444 0.533659 0.462935 0.083470
H32   H     H_    0.259540 0.588365 0.538020 0.095353
H33   H     H_    0.949522 0.077978 0.425978 0.110209
H34   H     H_    0.946330 0.097222 0.548903 0.103966
H35   H     H_    0.447292 0.577557 0.425526 0.108193
H36   H     H_    0.440528 0.593989 0.548312 0.103661
H37   H     H_    0.029883 0.427847 0.397738 0.127439
H38   H     H_    0.918222 0.492507 0.630276 0.116644
H39   H     H_    0.533349 0.931325 0.395354 0.128356
H40   H     H_    0.422745 0.986374 0.629480 0.118785
H41   H     H_    0.912655 0.294526 0.572293 0.097647
H42   H     H_    0.969098 0.264571 0.455074 0.089964
H43   H     H_    0.427303 0.787618 0.574261 0.092583
H44   H     H_    0.478566 0.763706 0.454024 0.089498
H45   H     H_    0.208965 0.109530 0.049711 0.155753
H46   H     H_    0.855257 0.960470 0.927073 0.146944
H47   H     H_    0.645187 0.462524 0.073026 0.148667
H48   H     H_    0.289649 0.609240 0.950177 0.153107
O1    O     O_R   0.043230 0.549300 0.667990 -0.516783
O2    O     O_R   0.956770 0.549300 0.332010 -0.523866
O3    O     O_R   0.543230 0.049300 0.667990 -0.517606
O4    O     O_R   0.456770 0.049300 0.332010 -0.518933
O5    O     O_R   0.262920 0.788600 0.824420 -0.505506
O6    O     O_R   0.737080 0.788600 0.175580 -0.497587
O7    O     O_R   0.762920 0.288600 0.824420 -0.494698
O8    O     O_R   0.237080 0.288600 0.175580 -0.511600
O9    O     O_R   0.167530 0.905110 0.830340 -0.514441
O10   O     O_R   0.832470 0.905110 0.169660 -0.514698
O11   O     O_R   0.667530 0.405110 0.830340 -0.519636
O12   O     O_R   0.332470 0.405110 0.169660 -0.514257
O13   O     O_R   0.054010 0.748440 0.822860 -0.505082
O14   O     O_R   0.945990 0.748440 0.177140 -0.507516
O15   O     O_R   0.554010 0.248440 0.822860 -0.511282
O16   O     O_R   0.445990 0.248440 0.177140 -0.502853
O17   O     O_3   0.165160 0.665150 0.749190 -0.265449
O18   O     O_3   0.834840 0.665150 0.250810 -0.266783
O19   O     O_3   0.665160 0.165150 0.749190 -0.264889
O20   O     O_3   0.334840 0.165150 0.250810 -0.240072
O21   O     O_R   0.178620 0.457600 0.674100 -0.502634
O22   O     O_R   0.821380 0.457600 0.325900 -0.490102
O23   O     O_R   0.678620 0.957600 0.674100 -0.506075
O24   O     O_R   0.321380 0.957600 0.325900 -0.491756
O25   O     O_R   0.284680 0.542100 0.669460 -0.557655
O26   O     O_R   0.715320 0.542100 0.330540 -0.545281
O27   O     O_R   0.784680 0.042100 0.669460 -0.560452
O28   O     O_R   0.215320 0.042100 0.330540 -0.543068
O29   O     O_R   0.262860 0.790390 0.676650 -0.529510
O30   O     O_R   0.737140 0.790390 0.323350 -0.522861
O31   O     O_R   0.762860 0.290390 0.676650 -0.529440
O32   O     O_R   0.237140 0.290390 0.323350 -0.504600
O33   O     O_R   0.167460 0.907030 0.670940 -0.541136
O34   O     O_R   0.832540 0.907030 0.329060 -0.527434
O35   O     O_R   0.667460 0.407030 0.670940 -0.537169
O36   O     O_R   0.332540 0.407030 0.329060 -0.531522
O37   O     O_R   0.053950 0.750220 0.675100 -0.534424
O38   O     O_R   0.946050 0.750220 0.324900 -0.524937
O39   O     O_R   0.553950 0.250220 0.675100 -0.531498
O40   O     O_R   0.446050 0.250220 0.324900 -0.523464
O41   O     O_R   0.043300 0.547370 0.827390 -0.514432
O42   O     O_R   0.956700 0.547370 0.172610 -0.514796
O43   O     O_R   0.543300 0.047370 0.827390 -0.512980
O44   O     O_R   0.456700 0.047370 0.172610 -0.518399
O45   O     O_R   0.178690 0.455820 0.821860 -0.489381
O46   O     O_R   0.821310 0.455820 0.178140 -0.499000
O47   O     O_R   0.678690 0.955820 0.821860 -0.493390
O48   O     O_R   0.321310 0.955820 0.178140 -0.501457
O49   O     O_R   0.284750 0.540170 0.828860 -0.525609
O50   O     O_R   0.715250 0.540170 0.171140 -0.532099
O51   O     O_R   0.784750 0.040170 0.828860 -0.520575
O52   O     O_R   0.215250 0.040170 0.171140 -0.539609
C93   C     C_3   0.215970 0.033579 0.551496 -0.259210
C94   C     C_3   0.137483 0.042124 0.538768 -0.284161
C95   C     C_3   0.117640 0.166748 0.510809 -0.477940
H49   H     H_    0.125152 0.233868 0.553807 0.156582
H50   H     H_    0.148319 0.191004 0.463146 0.164946
H51   H     H_    0.062646 0.168222 0.495509 0.152554
H52   H     H_    0.119978 0.972191 0.500932 0.172710
H53   H     H_    0.108999 0.030220 0.588919 0.201138
H54   H     H_    0.229690 0.097214 0.594799 0.143025
H55   H     H_    0.242013 0.061699 0.502282 0.155651
C96   C     C_3   0.817909 0.891000 0.478776 -0.233696
C97   C     C_3   0.801900 0.791297 0.532211 -0.311687
C98   C     C_3   0.828630 0.807240 0.608096 -0.417256
H56   H     H_    0.865095 0.733392 0.622996 0.123122
H57   H     H_    0.854081 0.894524 0.614148 0.203946
H58   H     H_    0.785218 0.802111 0.646493 0.172942
H59   H     H_    0.745153 0.782934 0.535974 0.179837
H60   H     H_    0.826286 0.708225 0.511204 0.136239
H61   H     H_    0.864046 0.858721 0.449594 0.175803
H62   H     H_    0.834630 0.975282 0.503795 0.145019
C99   C     C_3   0.710365 0.552074 0.569451 -0.244606
C100  C     C_3   0.637192 0.544871 0.538668 -0.273917
C101  C     C_3   0.615238 0.667106 0.509352 -0.475096
H63   H     H_    0.609106 0.732748 0.553519 0.161163
H64   H     H_    0.652713 0.700328 0.469380 0.161615
H65   H     H_    0.565555 0.656230 0.482031 0.150803
H66   H     H_    0.634015 0.476346 0.495680 0.180808
H67   H     H_    0.600791 0.520004 0.581086 0.197496
H68   H     H_    0.710308 0.607876 0.618795 0.144420
H69   H     H_    0.741440 0.597896 0.532062 0.134127
C102  C     C_3   0.316912 0.379316 0.478793 -0.229002
C103  C     C_3   0.300082 0.273566 0.527877 -0.307553
C104  C     C_3   0.322385 0.288446 0.605751 -0.421773
H70   H     H_    0.356932 0.212695 0.622511 0.124756
H71   H     H_    0.349105 0.374337 0.614713 0.197722
H72   H     H_    0.276398 0.286706 0.641004 0.171982
H73   H     H_    0.243615 0.261531 0.527290 0.178851
H74   H     H_    0.325721 0.191083 0.506212 0.152745
H75   H     H_    0.363510 0.350300 0.449256 0.176969
H76   H     H_    0.332982 0.460253 0.507710 0.146511
C105  C     C_3   0.025067 0.928692 0.349651 -0.236488
C106  C     C_3   0.061939 0.049726 0.340284 -0.339329
C107  C     C_3   0.081303 0.067796 0.262326 -0.383500
H77   H     H_    0.112345 0.989482 0.243244 0.190386
H78   H     H_    0.033638 0.075726 0.228795 0.112526
H79   H     H_    0.110982 0.152489 0.256415 0.184004
H80   H     H_    0.028475 0.128145 0.354109 0.133067
H81   H     H_    0.106834 0.051989 0.376658 0.205414
H82   H     H_    0.060003 0.854141 0.331802 0.142286
H83   H     H_    0.979403 0.939665 0.313652 0.203680
C108  C     C_3   0.981451 0.943636 0.654755 -0.247270
C109  C     C_3   0.954594 0.068736 0.679254 -0.347350
C110  C     C_3   0.951130 0.076064 0.760425 -0.413864
H84   H     H_    0.916151 0.005571 0.781453 0.173445
H85   H     H_    0.003740 0.063161 0.784171 0.138586
H86   H     H_    0.930665 0.166172 0.776419 0.147633
H87   H     H_    0.990236 0.140352 0.660414 0.144630
H88   H     H_    0.902481 0.088096 0.657173 0.199345
H89   H     H_    0.951863 0.873576 0.683639 0.155311
H90   H     H_    0.035971 0.946510 0.673186 0.209067
C111  C     C_3   0.524783 0.429129 0.349874 -0.234284
C112  C     C_3   0.561629 0.550160 0.340716 -0.334514
C113  C     C_3   0.580778 0.568971 0.262740 -0.383222
H91   H     H_    0.611700 0.490804 0.243248 0.192309
H92   H     H_    0.533028 0.577445 0.229379 0.107213
H93   H     H_    0.610576 0.653592 0.257053 0.183363
H94   H     H_    0.528071 0.628237 0.354910 0.128006
H95   H     H_    0.606855 0.552061 0.376705 0.211266
H96   H     H_    0.559898 0.354690 0.332234 0.145845
H97   H     H_    0.479366 0.439809 0.313513 0.200243
C114  C     C_3   0.478147 0.441609 0.654320 -0.246054
C115  C     C_3   0.452762 0.567465 0.678895 -0.345623
C116  C     C_3   0.450200 0.575284 0.760080 -0.410561
H98   H     H_    0.415115 0.505429 0.781623 0.180611
H99   H     H_    0.502993 0.561676 0.783258 0.139957
H100  H     H_    0.430379 0.665790 0.776134 0.145974
H101  H     H_    0.488941 0.637842 0.659528 0.142388
H102  H     H_    0.400777 0.588472 0.657287 0.201785
H103  H     H_    0.448396 0.371689 0.683177 0.154494
H104  H     H_    0.532774 0.444160 0.672413 0.208481

loop_
_geom_bond_atom_site_label_1
_geom_bond_atom_site_label_2
_ccdc_geom_bond_type
Cr6   O6    S    
C70   O50   A    
C13   C105  S    
C15   C19   A    
C69   O49   A    
C46   O30   A    
C6    C82   D    
C109  H88   S    
Cr8   O20   S    
Cr8   O52   S    
C14   C18   A    
C5    C89   S    
C7    C83   D    
C35   C36   A    
C6    H26   S    
Cr3   O23   S    
C96   H62   S    
Cr5   O17   S    
C57   C62   D    
C106  H81   S    
C93   C94   S    
C11   C68   S    
C98   H58   S    
C71   O51   A    
C65   O37   A    
C12   C23   A    
Cr1   O17   S    
C59   C64   D    
C50   C54   S    
C30   H37   S    
C115  H102  S    
C60   C63   D    
C99   H69   S    
C32   C36   A    
C14   C21   A    
C61   H17   S    
C108  H90   S    
C48   O36   A    
Cr9   O37   S    
C112  H94   S    
C38   C74   S    
C113  H93   S    
C67   O39   A    
C9    C22   A    
C107  H79   S    
Cr7   O19   S    
C115  H101  S    
C68   O40   A    
C77   O13   A    
C100  H66   S    
Cr12  O40   S    
C104  H71   S    
C29   C33   A    
C11   C24   A    
C79   O43   A    
C103  C104  S    
C54   H6    S    
C75   O11   A    
C110  H84   S    
C78   O42   A    
C103  H74   S    
C31   H40   S    
C18   H34   S    
C3    O27   A    
C97   H59   S    
C42   C71   S    
C32   H39   S    
C73   O9    A    
C110  H86   S    
C43   H11   S    
C100  H67   S    
C46   C82   S    
C1    O25   A    
C94   H52   S    
C86   H30   S    
C39   C55   D    
C14   C108  S    
C88   C92   D    
C40   C56   D    
C17   C18   A    
C8    H28   S    
C95   H51   S    
C65   O1    A    
C102  C103  S    
C112  H95   S    
C67   O3    A    
Cr9   O17   S    
C82   C96   S    
C8    C92   S    
C39   C75   S    
Cr6   O26   S    
C92   H4    S    
C111  C112  S    
C102  H75   S    
Cr7   O31   S    
Cr3   O43   S    
C52   H48   S    
C72   O52   A    
Cr12  O20   S    
C55   H7    S    
C44   C52   D    
C1    C88   S    
C5    H25   S    
C93   H54   S    
C70   O46   A    
C8    C84   D    
C109  H87   S    
C3    C86   S    
C69   O45   A    
C61   C62   S    
C4    O28   A    
C16   C114  S    
Cr9   O33   S    
C41   C49   D    
Cr1   O21   S    
C48   O32   A    
C36   H44   S    
C9    C26   A    
C33   C34   A    
C106  H80   S    
C107  H78   S    
C10   C21   A    
C25   C29   A    
Cr12  O36   S    
C12   C67   S    
C45   C81   S    
C78   O14   A    
C42   H10   S    
C87   C91   D    
C30   C34   A    
C12   C27   A    
C45   O29   A    
C95   H49   S    
C2    O22   A    
C87   H31   S    
C28   C32   A    
C84   C102  S    
Cr11  O35   S    
C97   C98   S    
C88   H32   S    
C47   O31   A    
C86   C90   D    
C59   C79   S    
C57   H22   S    
C74   O10   A    
C74   O6    A    
C94   C95   S    
C35   H43   S    
C4    C85   S    
C51   C55   S    
C15   C111  S    
C25   C26   A    
C64   H20   S    
C27   C31   A    
C40   C76   S    
C53   H5    S    
Cr2   O46   S    
Cr5   O5    S    
C103  H73   S    
Cr6   O30   S    
C66   O2    A    
C96   C97   S    
Cr7   O27   S    
Cr1   O45   S    
C57   C77   S    
C72   O48   A    
C5    C81   D    
C50   H46   S    
Cr5   O25   S    
C101  H63   S    
C38   C54   D    
C16   C20   A    
C1    O21   A    
C109  C110  S    
C59   H24   S    
C99   C100  S    
C104  H72   S    
C37   H13   S    
C2    C87   S    
C100  C101  S    
Cr10  O34   S    
Cr11  O15   S    
C46   O34   A    
Cr9   O13   S    
C114  H104  S    
C90   H2    S    
Cr10  O14   S    
C33   H41   S    
C42   C50   D    
C41   C72   S    
C10   C25   A    
C3    O23   A    
C15   C24   A    
C101  H64   S    
C114  C115  S    
C108  H89   S    
C93   H55   S    
C26   C30   A    
C16   C23   A    
C47   C83   S    
C116  H99   S    
C4    O24   A    
C40   H16   S    
C116  H98   S    
C11   C28   A    
C76   O12   A    
Cr7   O7    S    
C47   O35   A    
C108  C109  S    
Cr8   O28   S    
C79   O15   A    
C7    C91   S    
C62   H18   S    
C114  H103  S    
Cr10  O10   S    
C81   C93   S    
C83   C99   S    
C10   C65   S    
C75   O7    A    
Cr4   O48   S    
C39   H15   S    
C37   C73   S    
C106  C107  S    
C60   C80   S    
C85   C89   D    
Cr4   O24   S    
Cr7   O51   S    
C77   O41   A    
Cr2   O42   S    
C7    H27   S    
Cr6   O50   S    
C60   H23   S    
Cr1   O41   S    
Cr5   O29   S    
C105  C106  S    
Cr8   O8    S    
C68   O4    A    
C96   H61   S    
Cr12  O12   S    
C63   H19   S    
Cr12  O16   S    
C71   O47   A    
C73   O5    A    
C49   H45   S    
C43   C70   S    
C105  H83   S    
C45   O33   A    
Cr11  O11   S    
C21   C22   A    
C13   C17   A    
C34   H42   S    
C80   O44   A    
C99   H68   S    
C89   H1    S    
C20   H36   S    
C19   C20   A    
Cr9   O9    S    
C98   H56   S    
C41   H9    S    
C37   C53   D    
C6    C90   S    
C9    C66   S    
Cr2   O2    S    
C113  H92   S    
Cr11  O19   S    
C43   C51   D    
Cr4   O4    S    
C76   O8    A    
C105  H82   S    
Cr10  O18   S    
C58   C61   D    
C49   C53   S    
C29   H38   S    
C66   O38   A    
C31   C35   A    
Cr1   O1    S    
C111  H96   S    
Cr10  O38   S    
C80   O16   A    
C13   C22   A    
Cr3   O3    S    
C94   H53   S    
C98   H57   S    
Cr8   O32   S    
C97   H60   S    
C102  H76   S    
C112  C113  S    
C58   C78   S    
C23   C24   A    
C51   H47   S    
C63   C64   S    
Cr6   O18   S    
C48   C84   S    
C111  H97   S    
Cr4   O44   S    
C101  H65   S    
Cr11  O39   S    
C115  C116  S    
C44   H12   S    
C58   H21   S    
Cr3   O47   S    
Cr5   O49   S    
Cr4   O20   S    
C116  H100  S    
Cr2   O22   S    
C27   C28   A    
C95   H50   S    
C44   C69   S    
C38   H14   S    
C17   H33   S    
C113  H91   S    
C2    O26   A    
C110  H85   S    
C104  H70   S    
Cr3   O19   S    
C56   H8    S    
C19   H35   S    
Cr2   O18   S    
C52   C56   S    
C107  H77   S    
C85   H29   S    
C91   H3    S    
