data_mof_unit_42950.cif
_audit_creation_date              2012-12-10T18:52:58-0500
_audit_creation_method            fapswitch 2.2
_symmetry_space_group_name_H-M    P1
_symmetry_Int_Tables_number       1
_space_group_crystal_system       triclinic
_cell_length_a                    9.816433
_cell_length_b                    10.720477
_cell_length_c                    16.812892
_cell_angle_alpha                 90.124136
_cell_angle_beta                  85.474871
_cell_angle_gamma                 90.016204
_cell_volume                      1763.81621955

loop_
_atom_site_label
_atom_site_type_symbol
_atom_type_description
_atom_site_fract_x
_atom_site_fract_y
_atom_site_fract_z
_atom_type_partial_charge
C1    C     C_R   0.500056 0.740204 0.500026 0.866530
C2    C     C_R   0.499948 0.259792 0.499903 0.871392
C3    C     C_R   0.623773 0.936091 0.485435 -0.193219
C4    C     C_R   0.376206 0.063875 0.514252 -0.194236
C5    C     C_R   0.623725 0.063876 0.485353 -0.194506
C6    C     C_R   0.376256 0.936095 0.514342 -0.195297
C7    C     C_R   0.499949 0.127380 0.499811 -0.013673
C8    C     C_R   0.500044 0.872597 0.499949 -0.010723
C9    C     C_R   0.934871 0.424672 0.448892 -0.079359
C10   C     C_R   0.065131 0.575329 0.551117 -0.078345
C11   C     C_R   0.078931 0.424695 0.448919 -0.079204
C12   C     C_R   0.921062 0.575294 0.551098 -0.077433
C13   C     C_R   0.481488 0.500180 0.653263 0.931150
C14   C     C_R   0.518410 0.507634 0.347115 0.929696
C15   C     C_R   0.471500 0.510564 0.739675 -0.178419
C16   C     C_R   0.527691 0.548319 0.264367 -0.159626
C17   C     C_R   0.590221 0.500505 0.780125 -0.318288
C18   C     C_R   0.414068 0.606670 0.235323 -0.323301
C19   C     C_R   0.586501 0.523957 0.861933 0.505508
C20   C     C_R   0.420015 0.651915 0.157412 0.492990
C21   C     C_R   0.460076 0.553672 0.903076 -0.081990
C22   C     C_R   0.542947 0.639254 0.109232 -0.052025
C23   C     C_R   0.339718 0.559392 0.863273 0.507389
C24   C     C_R   0.660718 0.588202 0.138964 0.526119
C25   C     C_R   0.345941 0.537137 0.781525 -0.302643
C26   C     C_R   0.652276 0.544525 0.217921 -0.341405
C27   C     C_2   0.451162 0.573988 0.988693 -0.100151
C28   C     C_2   0.538785 0.648378 0.023137 -0.072089
H1    H     H_    0.685646 0.473555 0.748097 0.179210
H2    H     H_    0.321480 0.619174 0.273847 0.181110
H3    H     H_    0.741699 0.507401 0.243245 0.169459
H4    H     H_    0.253046 0.543039 0.750944 0.178455
H5    H     H_    0.619014 0.698066 0.988047 0.180460
H6    H     H_    0.373270 0.522243 0.024402 0.174241
H7    H     H_    0.720039 0.887432 0.473735 0.157850
H8    H     H_    0.279932 0.112522 0.525948 0.157731
H9    H     H_    0.719967 0.112528 0.473587 0.154176
H10   H     H_    0.280013 0.887447 0.526117 0.153237
H11   H     H_    0.885609 0.364511 0.408103 0.121622
H12   H     H_    0.114395 0.635463 0.591925 0.118771
H13   H     H_    0.139206 0.364532 0.408150 0.128393
H14   H     H_    0.860778 0.635404 0.591903 0.124039
N1    N     N_R   0.142790 0.500030 0.500020 -0.077834
N2    N     N_R   0.857210 0.499970 0.499980 -0.077094
O1    O     O_R   0.385380 0.683250 0.500010 -0.629250
O2    O     O_R   0.614620 0.316750 0.499990 -0.626179
O3    O     O_R   0.614710 0.683220 0.500000 -0.627686
O4    O     O_R   0.385290 0.316780 0.500000 -0.625374
O5    O     O_R   0.371780 0.500040 0.615800 -0.622473
O6    O     O_R   0.628220 0.499960 0.384200 -0.620910
O7    O     O_R   0.601110 0.500010 0.615800 -0.622614
O8    O     O_R   0.398890 0.499990 0.384200 -0.624969
Zn1   Zn    Zn3+2 0.346870 0.500020 0.500000 0.940959
Zn2   Zn    Zn3+2 0.653130 0.499980 0.500000 0.943014
O9    O     O_3   0.214990 0.582053 0.904924 -0.614270
C29   C     C_3   0.185755 0.710378 0.899807 -0.332803
H15   H     H_    0.266911 0.768385 0.924261 0.189464
H16   H     H_    0.088958 0.729842 0.936283 0.193579
H17   H     H_    0.171109 0.737952 0.837275 0.152237
O10   O     O_3   0.781586 0.586228 0.089587 -0.606793
C30   C     C_3   0.852807 0.472617 0.095436 -0.275896
H18   H     H_    0.925184 0.462341 0.041750 0.208899
H19   H     H_    0.783260 0.390336 0.097225 0.169762
H20   H     H_    0.914759 0.473849 0.147914 0.137725
O11   O     O_3   0.310849 0.713669 0.126673 -0.598625
C31   C     C_3   0.185629 0.651120 0.145162 -0.292632
H21   H     H_    0.140214 0.679585 0.205031 0.167431
H22   H     H_    0.196039 0.547735 0.141233 0.140363
H23   H     H_    0.113105 0.679340 0.101123 0.219079
O12   O     O_3   0.700657 0.505003 0.904390 -0.588645
C32   C     C_3   0.814155 0.572571 0.870221 -0.289420
H24   H     H_    0.785795 0.667586 0.850375 0.132208
H25   H     H_    0.867186 0.519471 0.820144 0.167513
H26   H     H_    0.888053 0.584871 0.916160 0.227635

loop_
_geom_bond_atom_site_label_1
_geom_bond_atom_site_label_2
_ccdc_geom_bond_type
C32   H26   S    
C31   H22   S    
O9    C29   S    
C6    H10   S    
C23   O9    S    
O12   C32   S    
C18   H2    S    
C5    H9    S    
C30   H20   S    
C1    C8    S    
C17   H1    S    
C29   H15   S    
C2    C7    S    
C29   H17   S    
C3    H7    S    
C24   O10   S    
O7    Zn2   S    
C2    O4    A    
O2    Zn2   S    
C25   H4    S    
C13   C15   S    
C31   H21   S    
C21   C27   S    
C3    C5    A    
O1    Zn1   S    
C26   H3    S    
C12   N2    A    
C22   C28   S    
C4    H8    S    
C2    O2    A    
C11   N1    A    
C9    C11   A    
C1    O1    A    
O6    Zn2   S    
C10   C12   A    
C4    C7    A    
C13   O5    A    
C15   C17   A    
C22   C24   A    
C16   C18   A    
C19   C21   A    
C29   H16   S    
C28   H5    S    
C11   H13   S    
C18   C20   A    
C23   C25   A    
C27   H6    S    
C16   C26   A    
O4    Zn1   S    
C14   C16   S    
C15   C25   A    
C31   H23   S    
C30   H18   S    
C14   O6    A    
C12   H14   S    
C10   H12   S    
N2    Zn2   S    
C20   O11   S    
C9    H11   S    
C32   H24   S    
O8    Zn1   S    
C3    C8    A    
C4    C6    A    
O11   C31   S    
C32   H25   S    
C27   C28   D    
C30   H19   S    
C5    C7    A    
C1    O3    A    
C9    N2    A    
C6    C8    A    
C17   C19   A    
C10   N1    A    
C13   O7    A    
N1    Zn1   S    
C21   C23   A    
O5    Zn1   S    
C14   O8    A    
C24   C26   A    
O3    Zn2   S    
C20   C22   A    
O10   C30   S    
C19   O12   S    
