data_mof_unit_60749.cif
_audit_creation_date              2012-12-10T20:33:58-0500
_audit_creation_method            fapswitch 2.2
_symmetry_space_group_name_H-M    P1
_symmetry_Int_Tables_number       1
_space_group_crystal_system       triclinic
_cell_length_a                    21.650773
_cell_length_b                    21.652246
_cell_length_c                    21.062693
_cell_angle_alpha                 120.598611
_cell_angle_beta                  120.58272
_cell_angle_gamma                 90.416845
_cell_volume                      6828.15211467

loop_
_atom_site_label
_atom_site_type_symbol
_atom_type_description
_atom_site_fract_x
_atom_site_fract_y
_atom_site_fract_z
_atom_type_partial_charge
C1    C     C_R   0.086046 0.585745 0.671511 0.880035
C2    C     C_R   0.480516 0.737452 0.816029 -0.139660
C3    C     C_R   0.514269 0.777088 0.799342 -0.126268
C4    C     C_R   0.119235 0.499582 0.498758 0.883395
C5    C     C_R   0.483618 0.749038 0.709218 -0.120650
C6    C     C_R   0.419232 0.681337 0.635748 -0.105019
C7    C     C_R   0.385204 0.640590 0.651658 0.127277
C8    C     C_1   0.137365 0.636649 0.773122 -0.218255
C9    C     C_1   0.179862 0.679071 0.857737 -0.021186
C10   C     C_1   0.229719 0.729038 0.957658 -0.004002
C11   C     C_1   0.271847 0.771324 0.042276 0.000124
C12   C     C_R   0.973547 0.242340 0.187579 -0.107696
C13   C     C_1   0.321566 0.821248 0.142211 -0.002877
C14   C     C_1   0.363679 0.863511 0.226834 -0.205923
C15   C     C_R   0.919084 0.404694 0.683320 -0.140467
C16   C     C_R   0.914213 0.414286 0.328473 0.889762
C17   C     C_R   0.860877 0.413152 0.619652 -0.147455
C18   C     C_R   0.874145 0.481181 0.627618 0.135278
C19   C     C_R   0.946019 0.540959 0.700760 -0.132290
C20   C     C_R   0.003795 0.532537 0.764875 -0.120553
C21   C     C_R   0.990490 0.464371 0.755924 -0.110619
C22   C     C_R   0.746819 0.492208 0.560016 -0.251749
C23   C     C_R   0.244469 0.441455 0.425282 -0.214055
C24   C     C_R   0.686983 0.502080 0.499717 -0.076843
C25   C     C_R   0.690145 0.510747 0.439555 -0.007870
C26   C     C_R   0.755074 0.510092 0.441817 -0.247176
C27   C     C_R   0.815274 0.500646 0.502542 -0.077805
C28   C     C_R   0.880725 0.500512 0.501542 0.869444
C29   C     C_R   0.811491 0.490842 0.561805 -0.010214
C30   C     C_R   0.586044 0.467475 0.280873 -0.141244
C31   C     C_R   0.527026 0.478518 0.220888 -0.143353
C32   C     C_R   0.510105 0.545086 0.255649 -0.124057
C33   C     C_R   0.552247 0.600785 0.350442 -0.128077
C34   C     C_R   0.312445 0.505472 0.500102 -0.094844
C35   C     C_R   0.610902 0.589701 0.410720 -0.132205
C36   C     C_R   0.628024 0.522807 0.376190 0.129722
C37   C     C_1   0.863114 0.363598 0.226848 -0.193900
C38   C     C_1   0.820670 0.321372 0.142227 -0.015343
C39   C     C_1   0.770730 0.271463 0.042296 -0.016511
C40   C     C_R   0.019238 0.247137 0.267622 -0.128629
C41   C     C_1   0.728448 0.229206 0.957676 -0.011880
C42   C     C_1   0.678516 0.179283 0.857751 -0.037109
C43   C     C_1   0.636298 0.136914 0.773134 -0.226432
C44   C     C_R   0.496550 0.621124 0.499766 0.900096
C45   C     C_R   0.316147 0.568963 0.573635 0.004009
C46   C     C_R   0.378605 0.502931 0.500138 0.909612
C47   C     C_R   0.501748 0.378767 0.499993 0.921913
C48   C     C_R   0.621266 0.501502 0.499864 0.914359
C49   C     C_R   0.501037 0.120933 0.501662 0.875141
C50   C     C_R   0.414318 0.914270 0.328473 0.881130
C51   C     C_R   0.500781 0.880928 0.501968 0.866647
C52   C     C_R   0.086772 0.310928 0.344966 -0.080561
C53   C     C_R   0.585673 0.085916 0.671519 0.878287
C54   C     C_R   0.259572 0.501927 0.241424 -0.138841
C55   C     C_R   0.329845 0.561174 0.297541 -0.093761
C56   C     C_R   0.251065 0.564959 0.571334 -0.248240
C57   C     C_R   0.351309 0.629348 0.380053 0.102460
C58   C     C_R   0.300109 0.638869 0.403471 -0.192492
C59   C     C_R   0.230062 0.579352 0.347454 -0.126498
C60   C     C_R   0.209972 0.510784 0.266701 -0.107057
C61   C     C_R   0.430207 0.756796 0.446022 -0.239835
C62   C     C_R   0.500958 0.815910 0.503920 -0.080994
C63   C     C_R   0.570016 0.811073 0.560554 -0.001796
C64   C     C_R   0.108442 0.370623 0.342719 0.089284
C65   C     C_R   0.566497 0.746071 0.558069 -0.275889
C66   C     C_R   0.496082 0.686600 0.499129 -0.095331
C67   C     C_R   0.184434 0.499885 0.497931 -0.065504
C68   C     C_R   0.427078 0.690920 0.441790 -0.015382
C69   C     C_R   0.704572 0.857911 0.613969 -0.145904
C70   C     C_R   0.777040 0.915478 0.675255 -0.139759
C71   C     C_R   0.791737 0.987987 0.747634 -0.114644
C72   C     C_R   0.733990 0.003031 0.758829 -0.120445
C73   C     C_R   0.661206 0.945814 0.697277 -0.131062
C74   C     C_R   0.646007 0.872890 0.624243 0.135825
C75   C     C_R   0.499039 0.245335 0.251929 -0.206186
C76   C     C_R   0.062538 0.365440 0.262149 -0.177536
C77   C     C_R   0.478927 0.234572 0.300320 0.287297
C78   C     C_R   0.180050 0.437858 0.423807 -0.008383
C79   C     C_R   0.537336 0.257746 0.389574 0.074256
C80   C     C_R   0.614646 0.289233 0.427622 -0.239524
C81   C     C_R   0.633849 0.298373 0.378058 -0.126541
C82   C     C_R   0.576152 0.276999 0.290681 -0.128373
C83   C     C_R   0.519983 0.192096 0.450167 -0.246227
C84   C     C_R   0.502945 0.188220 0.504090 -0.074073
C85   C     C_R   0.487044 0.247783 0.558019 0.034660
C86   C     C_R   0.488159 0.310746 0.556348 -0.210706
C87   C     C_R   0.502475 0.313100 0.500053 -0.078116
C88   C     C_R   0.995314 0.301351 0.184774 -0.135464
C89   C     C_R   0.416155 0.669593 0.742621 -0.151948
C90   C     C_R   0.518426 0.253929 0.446230 0.036039
C91   C     C_R   0.400006 0.240208 0.601947 0.199486
C92   C     C_R   0.389026 0.241088 0.662383 -0.164562
C93   C     C_R   0.449900 0.249637 0.740317 -0.151034
C94   C     C_R   0.522163 0.257215 0.758291 -0.111848
C95   C     C_R   0.533729 0.256088 0.698281 -0.182829
C96   C     C_R   0.472971 0.247703 0.619822 0.078899
C97   C     C_3   0.370993 0.121804 0.213800 -0.781544
H1    H     H_    0.921283 0.192951 0.127757 0.129545
H2    H     H_    0.742731 0.484961 0.605259 0.153661
H3    H     H_    0.758820 0.517020 0.396202 0.154831
H4    H     H_    0.002425 0.201343 0.269652 0.131486
H5    H     H_    0.598585 0.415617 0.253202 0.118074
H6    H     H_    0.494455 0.435502 0.147446 0.125999
H7    H     H_    0.464502 0.553626 0.209146 0.122637
H8    H     H_    0.539445 0.652545 0.377062 0.142190
H9    H     H_    0.643134 0.633194 0.484073 0.103928
H10   H     H_    0.155803 0.464714 0.223442 0.117223
H11   H     H_    0.243695 0.449044 0.178512 0.117206
H12   H     H_    0.564135 0.829529 0.856234 0.127829
H13   H     H_    0.368007 0.553591 0.277513 0.127246
H14   H     H_    0.314953 0.691877 0.465691 0.134250
H15   H     H_    0.191420 0.586331 0.366700 0.137734
H16   H     H_    0.122086 0.313905 0.406468 0.147577
H17   H     H_    0.377575 0.761297 0.402509 0.159529
H18   H     H_    0.618941 0.741436 0.601746 0.154552
H19   H     H_    0.693946 0.801787 0.558378 0.124111
H20   H     H_    0.821895 0.903777 0.666855 0.130659
H21   H     H_    0.847970 0.032405 0.795295 0.124401
H22   H     H_    0.745861 0.058947 0.815537 0.135952
H23   H     H_    0.509745 0.779661 0.696201 0.137333
H24   H     H_    0.617039 0.957998 0.706971 0.105732
H25   H     H_    0.591211 0.285042 0.252960 0.130475
H26   H     H_    0.454807 0.228954 0.184055 0.121583
H27   H     H_    0.078795 0.411003 0.259445 0.126258
H28   H     H_    0.659926 0.307719 0.496226 0.137843
H29   H     H_    0.693480 0.322857 0.407722 0.145407
H30   H     H_    0.532703 0.146090 0.409501 0.154059
H31   H     H_    0.476961 0.357708 0.598204 0.160053
H32   H     H_    0.333137 0.234986 0.648859 0.152472
H33   H     H_    0.441032 0.250359 0.786800 0.135349
H34   H     H_    0.396426 0.660198 0.566530 0.101684
H35   H     H_    0.569270 0.264079 0.818860 0.143162
H36   H     H_    0.590103 0.262022 0.713053 0.123616
H37   H     H_    0.959902 0.297570 0.122770 0.135672
H38   H     H_    0.241923 0.393394 0.368643 0.168020
H39   H     H_    0.251890 0.612861 0.626514 0.143534
H40   H     H_    0.390817 0.639371 0.756653 0.130359
H41   H     H_    0.504263 0.759285 0.885888 0.133067
H42   H     H_    0.364740 0.220071 0.221042 0.217124
H43   H     H_    0.310550 0.103284 0.189205 0.250420
H44   H     H_    0.405299 0.106381 0.260656 0.250207
H45   H     H_    0.035365 0.457976 0.805542 0.124630
H46   H     H_    0.372710 0.090670 0.153751 0.228590
H47   H     H_    0.908679 0.352048 0.676674 0.128494
H48   H     H_    0.805611 0.366730 0.564175 0.115298
H49   H     H_    0.956870 0.594231 0.708706 0.111127
H50   H     H_    0.058758 0.578986 0.821918 0.137936
I1    I     I_    0.303916 0.224698 0.483760 -0.421063
N1    N     N_2   0.400109 0.203852 0.260907 -0.295617
O1    O     O_R   0.063140 0.511430 0.626300 -0.592438
O2    O     O_R   0.448260 0.091600 0.499970 -0.591777
O3    O     O_R   0.488590 0.936860 0.373720 -0.602772
O4    O     O_R   0.063120 0.614850 0.626270 -0.602265
O5    O     O_R   0.385150 0.936860 0.373710 -0.594665
O6    O     O_R   0.551740 0.908400 0.500030 -0.605414
O7    O     O_R   0.448290 0.908400 0.500030 -0.622513
O8    O     O_R   0.614850 0.063140 0.626290 -0.596480
O9    O     O_R   0.511410 0.063140 0.626280 -0.594553
O10   O     O_R   0.091630 0.448290 0.500020 -0.618580
O11   O     O_R   0.091620 0.551710 0.499990 -0.618299
O12   O     O_R   0.535650 0.627270 0.571300 -0.628327
O13   O     O_R   0.936880 0.385150 0.373730 -0.597905
O14   O     O_R   0.936860 0.488570 0.373700 -0.604593
O15   O     O_R   0.908380 0.448290 0.500010 -0.609232
O16   O     O_R   0.908370 0.551710 0.499980 -0.618727
O17   O     O_R   0.464370 0.556010 0.428710 -0.620081
O18   O     O_R   0.372740 0.464390 0.428700 -0.624787
O19   O     O_R   0.444020 0.535650 0.571290 -0.614362
O20   O     O_R   0.464350 0.372770 0.428700 -0.614342
O21   O     O_R   0.535630 0.444040 0.571290 -0.630462
O22   O     O_R   0.555980 0.464390 0.428710 -0.610083
O23   O     O_R   0.627260 0.535660 0.571300 -0.631992
O24   O     O_R   0.551710 0.091600 0.499970 -0.626975
Zn1   Zn    Zn3+2 0.000010 0.430940 0.500020 0.964125
Zn2   Zn    Zn3+2 0.999990 0.569060 0.499980 0.951899
Zn3   Zn    Zn3+2 0.452410 0.452440 0.404800 0.962293
Zn4   Zn    Zn3+2 0.547590 0.547610 0.595200 0.965063
Zn5   Zn    Zn3+2 0.569070 0.000000 0.500000 0.960542
Zn6   Zn    Zn3+2 0.430930 0.000000 0.500000 0.980924

loop_
_geom_bond_atom_site_label_1
_geom_bond_atom_site_label_2
_ccdc_geom_bond_type
O23   Zn4   S    
C66   C68   A    
C63   C65   A    
C69   H19   S    
C93   C94   A    
C22   C29   A    
C81   H29   S    
C27   C29   A    
C1    C8    S    
C41   C42   S    
C44   C66   S    
C95   C96   A    
O14   Zn2   S    
C49   O24   A    
C81   C82   A    
C39   C41   T    
C54   C60   A    
C52   H16   S    
C67   C78   A    
C51   O6    A    
C53   O9    A    
C62   C63   A    
C46   O19   A    
C75   H26   S    
C5    C6    A    
C7    C45   S    
C49   C84   S    
C3    H12   S    
C21   H45   S    
C2    C89   A    
C30   C31   A    
O7    Zn6   S    
C4    O10   A    
C80   H28   S    
C70   H20   S    
O19   Zn4   S    
C7    C89   A    
C95   H36   S    
C18   C19   A    
C73   C74   A    
C97   H46   S    
C79   C90   S    
C56   H39   S    
C40   H4    S    
C48   O23   A    
C43   C53   S    
C35   C36   A    
C45   C56   A    
C8    C9    T    
O10   Zn1   S    
C32   H7    S    
O15   Zn1   S    
C70   C71   A    
C34   C46   S    
C9    C10   S    
C76   C88   A    
C97   H43   S    
C12   H1    S    
O6    Zn5   S    
C16   C37   S    
C91   C96   A    
C59   C60   A    
C13   C14   T    
C65   H18   S    
C69   C70   A    
C51   C62   S    
C14   C50   S    
C91   I1    S    
C47   O20   A    
C59   H15   S    
C77   C79   A    
C16   O14   A    
C51   O7    A    
C19   H49   S    
C46   O18   A    
C49   O2    A    
C5    H23   S    
C86   H31   S    
C58   H14   S    
C24   C48   S    
C1    O1    A    
C33   H8    S    
C84   C85   A    
C52   C64   A    
C77   N1    S    
C91   C92   A    
C18   C29   S    
C12   C88   A    
C86   C87   A    
C72   C73   A    
O21   Zn4   S    
C16   O13   A    
C25   C26   A    
C85   C86   A    
H42   N1    S    
C94   H35   S    
C15   H47   S    
C31   H6    S    
C12   C40   A    
C2    H41   S    
C17   H48   S    
O9    Zn6   S    
C37   C38   T    
C48   O22   A    
O2    Zn6   S    
C83   C84   A    
C23   C34   A    
C30   H5    S    
C17   C18   A    
C64   C76   A    
C20   H50   S    
C69   C74   A    
C34   C45   A    
C44   O17   A    
C24   C25   A    
C1    O4    A    
C75   C77   A    
C97   H44   S    
C60   H10   S    
C28   O16   A    
C53   O8    A    
O1    Zn1   S    
C23   H38   S    
C94   C95   A    
C89   H40   S    
C55   C57   A    
C55   H13   S    
C26   C27   A    
O11   Zn2   S    
C22   C24   A    
C44   O12   A    
C57   C68   S    
O12   Zn4   S    
C93   H33   S    
C61   H17   S    
C47   O21   A    
C28   O15   A    
C15   C17   A    
C83   C90   A    
C54   C55   A    
C22   H2    S    
C71   H21   S    
C25   C36   S    
C64   C78   S    
C31   C32   A    
C6    H34   S    
C83   H30   S    
C80   C81   A    
C3    C5    A    
C4    O11   A    
C4    C67   S    
C75   C82   A    
C6    C7    A    
O13   Zn1   S    
C63   C74   S    
C54   H11   S    
O16   Zn2   S    
C56   C67   A    
O22   Zn3   S    
O4    Zn2   S    
C73   H24   S    
O17   Zn3   S    
C30   C36   A    
C32   C33   A    
C85   C96   S    
C19   C20   A    
C2    C3    A    
C58   C59   A    
C88   H37   S    
C71   C72   A    
C35   H9    S    
C40   C52   A    
C11   C13   S    
C61   C68   A    
C57   C58   A    
C38   C39   S    
O24   Zn5   S    
C50   O5    A    
C72   H22   S    
C92   C93   A    
C33   C35   A    
O20   Zn3   S    
C92   H32   S    
O8    Zn5   S    
C23   C78   A    
O3    Zn5   S    
C61   C62   A    
C10   C11   T    
C76   H27   S    
C79   C80   A    
C50   O3    A    
C15   C21   A    
C20   C21   A    
C65   C66   A    
C42   C43   T    
C87   C90   A    
C27   C28   S    
C97   N1    S    
O5    Zn6   S    
C82   H25   S    
C26   H3    S    
O18   Zn3   S    
C47   C87   S    
