data_mof_unit_56579.cif
_audit_creation_date              2012-12-11T15:30:32-0500
_audit_creation_method            fapswitch 2.2
_symmetry_space_group_name_H-M    P1
_symmetry_Int_Tables_number       1
_space_group_crystal_system       triclinic
_cell_length_a                    7.078306
_cell_length_b                    20.467282
_cell_length_c                    24.354839
_cell_angle_alpha                 89.789593
_cell_angle_beta                  89.797617
_cell_angle_gamma                 90.06752
_cell_volume                      3528.32696628

loop_
_atom_site_label
_atom_site_type_symbol
_atom_type_description
_atom_site_fract_x
_atom_site_fract_y
_atom_site_fract_z
_atom_type_partial_charge
O1    O     O_R   0.507310 0.423620 0.460450 -0.518111
O2    O     O_R   0.170760 0.556060 0.437190 -0.546696
O3    O     O_R   0.004040 0.576380 0.539550 -0.546820
C1    C     C_R   0.339766 0.575846 0.421481 0.715869
O4    O     O_R   0.177350 0.422870 0.454070 -0.533315
O5    O     O_R   0.010680 0.442240 0.556560 -0.520100
C2    C     C_R   0.346124 0.399280 0.443563 0.849549
O6    O     O_R   0.500670 0.557760 0.443440 -0.538639
O7    O     O_3   0.340380 0.506510 0.533610 -0.366585
V1    V     V_3+5 0.064130 0.498790 0.493770 1.564174
O8    O     O_R   0.681170 0.443940 0.562810 -0.522417
C3    C     C_R   0.848732 0.424065 0.578407 0.758640
O9    O     O_R   0.674570 0.577130 0.545930 -0.532172
C4    C     C_R   0.843059 0.600679 0.556535 0.742175
V2    V     V_3+5 0.564560 0.501210 0.506230 1.611182
O10   O     O_3   0.838170 0.493490 0.466390 -0.374035
C5    C     C_R   0.979564 0.838055 0.911664 -0.080996
C6    C     C_R   0.853603 0.661212 0.589177 -0.096068
C7    C     C_R   0.077640 0.725417 0.903783 -0.113214
C8    C     C_R   0.056531 0.781704 0.934995 -0.133522
C9    C     C_R   0.926305 0.837845 0.856056 -0.136335
C10   C     C_R   0.966897 0.783490 0.821714 0.105649
C11   C     C_R   0.033609 0.725754 0.847662 0.096416
C12   C     C_R   0.942487 0.783604 0.762988 -0.051546
C13   C     C_R   0.944273 0.722250 0.734268 0.016151
C14   C     C_R   0.016824 0.667236 0.761935 -0.045379
C15   C     C_R   0.061546 0.669102 0.817260 -0.151440
C16   C     C_R   0.936140 0.841835 0.730758 0.373355
C17   C     C_R   0.910308 0.838488 0.674184 -0.144036
C18   C     C_R   0.891374 0.778929 0.647184 0.004721
C19   C     C_R   0.898245 0.719337 0.676919 0.015351
C20   C     C_R   0.873213 0.778989 0.589873 -0.097734
C21   C     C_R   0.861430 0.720663 0.561133 -0.230469
C22   C     C_R   0.860888 0.660128 0.647241 0.309261
H1    H     H_    0.119290 0.625623 0.836414 0.168839
H2    H     H_    0.911565 0.883481 0.650485 0.194590
H3    H     H_    0.873110 0.824486 0.566946 0.152570
C23   C     C_3   0.792235 0.255761 0.806066 -0.498576
C24   C     C_3   0.126737 0.247302 0.778308 0.196772
C25   C     C_3   0.102310 0.293064 0.725463 0.558437
C26   C     C_1   0.854419 0.378516 0.624068 0.001290
C27   C     C_3   0.944812 0.205509 0.789898 -0.243223
C28   C     C_3   0.772934 0.309849 0.761464 0.702977
C29   C     C_3   0.891771 0.292494 0.708456 -0.314360
C30   C     C_3   0.846968 0.219937 0.689118 0.144446
C31   C     C_3   0.881926 0.168578 0.736200 0.636421
C32   C     C_1   0.863771 0.340025 0.662044 0.299603
C33   C     C_1   0.964962 0.158991 0.837128 0.235109
C34   C     C_1   0.970674 0.121038 0.875559 -0.047242
C35   C     C_3   0.598513 0.726348 0.283258 -0.356431
C36   C     C_3   0.317095 0.676608 0.236491 -0.342737
C37   C     C_3   0.342585 0.725384 0.187253 0.696715
C38   C     C_1   0.472559 0.878560 0.124318 -0.049457
C39   C     C_3   0.387611 0.706972 0.290924 0.098670
C40   C     C_3   0.623696 0.775861 0.235062 -0.398712
C41   C     C_3   0.429945 0.791813 0.208033 0.001015
C42   C     C_3   0.306709 0.821483 0.255403 0.259980
C43   C     C_3   0.270725 0.769825 0.301462 -0.367599
C44   C     C_1   0.456187 0.839874 0.162128 0.150796
C45   C     C_1   0.365775 0.659706 0.337434 -0.014348
C46   C     C_1   0.351287 0.621324 0.375543 -0.141861
C47   C     C_R   0.470673 0.162311 0.087518 -0.156594
C48   C     C_R   0.354285 0.338953 0.410383 -0.204019
C49   C     C_R   0.460305 0.280292 0.089811 -0.161545
C50   C     C_R   0.476434 0.222552 0.060024 0.373014
C51   C     C_R   0.457310 0.160811 0.145130 -0.198003
C52   C     C_R   0.460010 0.219124 0.176636 0.134485
C53   C     C_R   0.447113 0.278969 0.147329 0.047222
C54   C     C_R   0.459686 0.220303 0.235828 -0.081062
C55   C     C_R   0.421251 0.280587 0.263631 0.042645
C56   C     C_R   0.383842 0.336566 0.231688 -0.050247
C57   C     C_R   0.408198 0.336699 0.175193 -0.153904
C58   C     C_R   0.496344 0.164255 0.268651 0.318201
C59   C     C_R   0.441449 0.163252 0.324080 0.396431
C60   C     C_R   0.390497 0.221687 0.350719 -0.144528
C61   C     C_R   0.407486 0.282113 0.322402 -0.024480
C62   C     C_R   0.333606 0.221152 0.406161 -0.060253
C63   C     C_R   0.307961 0.279049 0.435031 0.310610
C64   C     C_R   0.411342 0.340650 0.354642 0.290778
O11   O     O_R   0.323590 0.942280 0.056590 -0.535091
O12   O     O_R   0.647030 0.077140 0.045940 -0.529952
O13   O     O_R   0.813570 0.057750 0.943430 -0.526286
C65   C     C_R   0.478338 0.100880 0.056221 0.776525
O14   O     O_R   0.653510 0.943950 0.062820 -0.532188
O15   O     O_R   0.820100 0.923600 0.960440 -0.541363
C66   C     C_R   0.484476 0.924193 0.078533 0.697061
O16   O     O_R   0.317060 0.076430 0.039590 -0.534720
O17   O     O_3   0.483830 0.993520 0.966410 -0.368912
V3    V     V_3+5 0.760140 0.001200 0.006230 1.567995
O18   O     O_R   0.149560 0.922820 0.954030 -0.536413
C67   C     C_R   0.981582 0.898988 0.943757 0.707071
O19   O     O_R   0.143080 0.056020 0.937150 -0.524420
C68   C     C_R   0.975560 0.075871 0.921527 0.730804
V4    V     V_3+5 0.259690 0.998730 0.993720 1.575319
O20   O     O_3   0.986120 0.006480 0.033580 -0.372576
Cl1   Cl    Cl    0.808100 0.388448 0.792677 -0.430074
H4    H     H_    0.830756 0.278085 0.846148 0.214869
Cl2   Cl    Cl    0.326867 0.195467 0.778341 -0.412358
H5    H     H_    0.150647 0.279570 0.814306 0.168560
Cl3   Cl    Cl    0.174031 0.376756 0.738199 -0.412691
Cl4   Cl    Cl    0.240328 0.268772 0.666714 -0.367317
Cl5   Cl    Cl    0.682899 0.116482 0.749613 -0.358027
Cl6   Cl    Cl    0.054981 0.110364 0.713202 -0.345952
Cl7   Cl    Cl    0.632386 0.209244 0.652217 -0.309231
Cl8   Cl    Cl    0.786504 0.586929 0.679995 -0.601224
H6    H     H_    0.657415 0.230505 0.814457 0.282431
Cl9   Cl    Cl    0.543807 0.317736 0.742784 -0.391199
H7    H     H_    0.942252 0.207515 0.654720 0.198595
H8    H     H_    0.724951 0.755974 0.204468 0.270759
H9    H     H_    0.684587 0.681976 0.274930 0.194740
H10   H     H_    0.166028 0.662471 0.241288 0.177613
H11   H     H_    0.395338 0.630402 0.228744 0.194506
Cl10  Cl    Cl    0.492572 0.688666 0.136228 -0.559898
Cl11  Cl    Cl    0.120086 0.736962 0.153478 -0.545474
H12   H     H_    0.309686 0.791059 0.341886 0.158047
H13   H     H_    0.854309 0.721955 0.516698 0.124111
H14   H     H_    0.117983 0.757037 0.303713 0.194547
H15   H     H_    0.386906 0.862695 0.273904 0.147732
H16   H     H_    0.653034 0.748414 0.321787 0.173040
H17   H     H_    0.688968 0.821443 0.251007 0.221472
Cl12  Cl    Cl    0.089983 0.858167 0.233162 -0.583168
H18   H     H_    0.385004 0.381808 0.152744 0.152427
Cl13  Cl    Cl    0.523475 0.413158 0.331050 -0.671296
Cl14  Cl    Cl    0.234590 0.274274 0.504224 -0.519272
Cl15  Cl    Cl    0.454658 0.088567 0.360966 -0.472671
H19   H     H_    0.454673 0.326389 0.067809 0.175064
Cl16  Cl    Cl    0.493785 0.227115 0.987905 -0.610176
H20   H     H_    0.434769 0.113772 0.164009 0.183293
H21   H     H_    0.327197 0.380566 0.249403 0.184867
Cl17  Cl    Cl    0.644836 0.099973 0.245957 -0.541947
H22   H     H_    0.309088 0.175727 0.427882 0.226390
H23   H     H_    0.133464 0.681874 0.923283 0.155070
H24   H     H_    0.100157 0.781327 0.977605 0.153609
H25   H     H_    0.852326 0.880121 0.840874 0.175841
H26   H     H_    0.055593 0.623359 0.740373 0.202774
Cl18  Cl    Cl    0.006206 0.919834 0.754099 -0.536529

loop_
_geom_bond_atom_site_label_1
_geom_bond_atom_site_label_2
_ccdc_geom_bond_type
C13   C19   A    
C65   O16   A    
C47   C65   S    
V3    O20   S    
C36   H11   S    
C58   C59   A    
C4    C6    S    
O2    C1    A    
C7    C8    A    
C5    C67   S    
C61   C64   A    
C1    O6    A    
C38   C44   T    
C39   C45   S    
C62   C63   A    
C31   Cl5   S    
C17   H2    S    
C14   C15   A    
C17   C18   A    
O13   V3    S    
C49   C53   A    
C16   C17   A    
O14   C66   A    
C23   C27   S    
C27   C31   S    
C18   C19   A    
C59   Cl15  S    
V2    O10   S    
O16   V4    S    
C35   H9    S    
C5    C8    A    
C41   C42   S    
C62   H22   S    
O11   C66   A    
C14   H26   S    
C25   Cl4   S    
O8    V2    S    
C54   C58   A    
C55   C56   A    
O1    V2    S    
C11   C15   A    
C8    H24   S    
C18   C20   A    
C63   Cl14  S    
O7    V1    S    
O18   C67   A    
C30   H7    S    
O12   V3    S    
C51   C52   A    
O13   C68   A    
O1    C2    A    
O9    C4    A    
C40   H8    S    
V4    O20   S    
C23   H4    S    
O12   C65   A    
O18   V4    S    
C24   C27   S    
C40   H17   S    
O15   C67   A    
O17   V4    S    
C59   C60   A    
C47   C51   A    
C52   C53   A    
C12   C13   A    
C24   C25   S    
O4    C2    A    
O15   V3    S    
C24   Cl2   S    
C27   C33   S    
C15   H1    S    
C13   C14   A    
C30   C31   S    
C64   Cl13  S    
C1    C46   S    
C43   H14   S    
C5    C9    A    
C36   C37   S    
C45   C46   T    
C52   C54   A    
C23   H6    S    
C7    C11   A    
C60   C61   A    
C25   Cl3   S    
C3    C26   S    
C30   Cl7   S    
C56   H21   S    
C60   C62   A    
C24   H5    S    
C25   C29   S    
C53   C57   A    
C40   C41   S    
O19   V4    S    
C28   Cl1   S    
C26   C32   T    
C19   C22   A    
C28   Cl9   S    
C20   H3    S    
C6    C22   A    
C2    C48   S    
C38   C66   S    
O3    C4    A    
C33   C34   T    
O6    V2    S    
C49   H19   S    
O9    V2    S    
C28   C29   S    
C55   C61   A    
C43   H12   S    
C10   C12   A    
O14   V3    S    
O11   V4    S    
O2    V1    S    
C50   Cl16  S    
C9    H25   S    
C29   C30   S    
C39   C43   S    
C7    H23   S    
C58   Cl17  S    
C21   H13   S    
C36   H10   S    
C47   C50   A    
C57   H18   S    
C16   Cl18  S    
C22   Cl8   S    
C12   C16   A    
O5    V1    S    
O8    C3    A    
C29   C32   S    
C48   C64   A    
C37   Cl11  S    
C31   Cl6   S    
C35   C40   S    
C41   C44   S    
C36   C39   S    
C49   C50   A    
O7    V2    S    
C23   C28   S    
C35   C39   S    
O3    V1    S    
V1    O10   S    
C20   C21   A    
O5    C3    A    
C42   C43   S    
C37   Cl10  S    
O19   C68   A    
C51   H20   S    
C54   C55   A    
C6    C21   A    
C42   Cl12  S    
C35   H16   S    
O4    V1    S    
C56   C57   A    
O17   V3    S    
C10   C11   A    
C34   C68   S    
C9    C10   A    
C37   C41   S    
C42   H15   S    
C48   C63   A    
