data_mof_unit_53298.cif
_audit_creation_date              2012-12-11T15:07:10-0500
_audit_creation_method            fapswitch 2.2
_symmetry_space_group_name_H-M    P1
_symmetry_Int_Tables_number       1
_space_group_crystal_system       triclinic
_cell_length_a                    19.604657
_cell_length_b                    11.370339
_cell_length_c                    18.69524
_cell_angle_alpha                 90.000196
_cell_angle_beta                  90.99126
_cell_angle_gamma                 89.999975
_cell_volume                      4166.76212025

loop_
_atom_site_label
_atom_site_type_symbol
_atom_type_description
_atom_site_fract_x
_atom_site_fract_y
_atom_site_fract_z
_atom_type_partial_charge
C1    C     C_R   0.760901 0.524029 0.639463 0.528976
C2    C     C_3   0.252487 0.057188 0.563607 0.069871
C3    C     C_R   0.730238 0.001750 0.143988 0.544990
C4    C     C_R   0.777644 0.141222 0.861652 0.527766
C5    C     C_R   0.222360 0.141214 0.138350 0.527774
C6    C     C_R   0.277645 0.641226 0.861653 0.527748
C7    C     C_R   0.722360 0.641214 0.138350 0.527771
C8    C     C_R   0.971069 0.353357 0.852625 0.526311
C9    C     C_R   0.028931 0.353357 0.147374 0.526314
C10   C     C_R   0.471069 0.853357 0.852626 0.526310
C11   C     C_R   0.528931 0.853357 0.147375 0.526313
C12   C     C_3   0.687287 0.132366 0.463782 -0.232881
C13   C     C_3   0.247513 0.557188 0.436393 0.069868
C14   C     C_3   0.312714 0.132361 0.536218 -0.232876
C15   C     C_3   0.187287 0.632366 0.463782 -0.232882
C16   C     C_3   0.812714 0.632362 0.536218 -0.232876
C17   C     C_3   0.692188 0.145787 0.545088 -0.232515
C18   C     C_3   0.307811 0.145785 0.454912 -0.232514
C19   C     C_3   0.192188 0.645787 0.545088 -0.232515
C20   C     C_3   0.807812 0.645786 0.454912 -0.232515
C21   C     C_3   0.757061 0.940182 0.480215 -0.212823
C22   C     C_3   0.242937 0.940183 0.519785 -0.212821
C23   C     C_3   0.257061 0.440182 0.480215 -0.212824
C24   C     C_3   0.752487 0.557188 0.563607 0.069870
C25   C     C_3   0.742937 0.440183 0.519785 -0.212824
C26   C     C_3   0.783686 0.246832 0.126600 -0.276933
C27   C     C_3   0.748122 0.269977 0.198017 -0.276555
C28   C     C_3   0.783954 0.367066 0.240744 -0.451989
C29   C     C_3   0.216308 0.246838 0.873405 -0.276959
C30   C     C_3   0.251855 0.269919 0.801972 -0.276535
C31   C     C_3   0.216067 0.367069 0.759260 -0.452043
C32   C     C_3   0.283682 0.746846 0.126601 -0.276940
C33   C     C_3   0.248108 0.770008 0.198010 -0.276558
C34   C     C_3   0.283941 0.867096 0.240742 -0.451944
C35   C     C_3   0.759643 0.091098 0.573997 0.067819
C36   C     C_3   0.716309 0.746835 0.873406 -0.276946
C37   C     C_3   0.751859 0.769943 0.801977 -0.276539
C38   C     C_3   0.716041 0.867051 0.759255 -0.452028
C39   C     C_3   0.240356 0.091100 0.426003 0.067816
C40   C     C_3   0.259644 0.591098 0.573997 0.067821
C41   C     C_3   0.740356 0.591099 0.426003 0.067816
C42   C     C_3   0.753245 0.959072 0.561347 -0.267765
C43   C     C_3   0.246752 0.959074 0.438653 -0.267770
C44   C     C_3   0.253245 0.459072 0.561347 -0.267764
C45   C     C_R   0.239098 0.524029 0.360537 0.528987
C46   C     C_3   0.746752 0.459074 0.438653 -0.267767
C47   C     C_3   0.822883 0.134353 0.531097 -0.211836
C48   C     C_3   0.177118 0.134358 0.468904 -0.211832
C49   C     C_3   0.322883 0.634353 0.531097 -0.211836
C50   C     C_3   0.677118 0.634358 0.468904 -0.211834
C51   C     C_3   0.003885 0.206141 0.459032 -0.231784
C52   C     C_3   0.996116 0.206140 0.540967 -0.231784
C53   C     C_3   0.503885 0.706141 0.459032 -0.231784
C54   C     C_3   0.496116 0.706140 0.540967 -0.231784
C55   C     C_3   0.064892 0.406110 0.475712 -0.212004
C56   C     C_R   0.260901 0.024029 0.639463 0.528972
C57   C     C_3   0.935106 0.406106 0.524288 -0.211999
C58   C     C_3   0.564892 0.906110 0.475712 -0.212003
C59   C     C_3   0.435106 0.906106 0.524288 -0.211999
C60   C     C_3   0.941720 0.390775 0.443202 -0.262201
C61   C     C_3   0.058279 0.390777 0.556797 -0.262200
C62   C     C_3   0.441720 0.890775 0.443202 -0.262200
C63   C     C_3   0.558279 0.890777 0.556797 -0.262200
C64   C     C_3   0.010851 0.333677 0.430978 0.065070
C65   C     C_3   0.989148 0.333676 0.569022 0.065071
C66   C     C_3   0.510852 0.833677 0.430978 0.065070
C67   C     C_R   0.739098 0.024029 0.360537 0.528983
C68   C     C_3   0.489148 0.833676 0.569022 0.065071
C69   C     C_3   0.812288 0.001692 0.043042 -0.235071
C70   C     C_3   0.187711 0.001697 0.956958 -0.235069
C71   C     C_3   0.312291 0.501705 0.043044 -0.235076
C72   C     C_3   0.687712 0.501692 0.956958 -0.235071
C73   C     C_R   0.773723 0.120989 0.649508 0.531417
C74   C     C_R   0.226276 0.120991 0.350493 0.531402
C75   C     C_R   0.273723 0.620990 0.649508 0.531414
C76   C     C_R   0.726276 0.620990 0.350492 0.531410
C77   C     C_3   0.813322 0.010458 0.962588 -0.245351
C78   C     C_3   0.811170 0.131158 0.449805 -0.264265
C79   C     C_3   0.186680 0.010457 0.037412 -0.245357
C80   C     C_3   0.313324 0.510467 0.962591 -0.245349
C81   C     C_3   0.686680 0.510454 0.037412 -0.245356
C82   C     C_3   0.683471 0.007691 0.019116 -0.271511
C83   C     C_3   0.316529 0.007700 0.980879 -0.271497
C84   C     C_3   0.183474 0.507699 0.019119 -0.271502
C85   C     C_3   0.816529 0.507694 0.980880 -0.271500
C86   C     C_3   0.740890 0.182988 0.067058 -0.101621
C87   C     C_3   0.259106 0.182995 0.932944 -0.101627
C88   C     C_3   0.240890 0.683000 0.067057 -0.101632
C89   C     C_3   0.188832 0.131162 0.550196 -0.264267
C90   C     C_3   0.759108 0.682991 0.932945 -0.101627
C91   C     C_3   0.741671 0.047819 0.071125 0.083514
C92   C     C_3   0.258327 0.047828 0.928874 0.083520
C93   C     C_3   0.241673 0.547832 0.071126 0.083509
C94   C     C_3   0.758328 0.547822 0.928875 0.083518
C95   C     C_3   0.761409 0.106823 0.936969 0.055025
C96   C     C_3   0.238593 0.106821 0.063032 0.055029
C97   C     C_3   0.261411 0.606829 0.936970 0.055025
C98   C     C_3   0.738593 0.606818 0.063032 0.055028
C99   C     C_3   0.688082 0.064607 0.944695 -0.245846
C100  C     C_3   0.311170 0.631158 0.449804 -0.264265
C101  C     C_3   0.311920 0.064609 0.055302 -0.245848
C102  C     C_3   0.188084 0.564611 0.944696 -0.245848
C103  C     C_3   0.811920 0.564603 0.055304 -0.245848
C104  C     C_3   0.766803 0.211426 0.990315 -0.253838
C105  C     C_3   0.233197 0.211430 0.009690 -0.253826
C106  C     C_3   0.266803 0.711435 0.990314 -0.253834
C107  C     C_3   0.733198 0.711424 0.009689 -0.253832
C108  C     C_3   0.998234 0.481106 0.040499 -0.230795
C109  C     C_3   0.001765 0.481106 0.959502 -0.230793
C110  C     C_3   0.498234 0.981105 0.040499 -0.230793
C111  C     C_3   0.688832 0.631162 0.550196 -0.264266
C112  C     C_3   0.501765 0.981106 0.959502 -0.230793
C113  C     C_3   0.064704 0.285634 0.031044 -0.210067
C114  C     C_3   0.935299 0.285628 0.968955 -0.210063
C115  C     C_3   0.564703 0.785630 0.031045 -0.210064
C116  C     C_3   0.435299 0.785629 0.968955 -0.210064
C117  C     C_3   0.942421 0.288647 0.051710 -0.268111
C118  C     C_3   0.057581 0.288652 0.948289 -0.268114
C119  C     C_3   0.442421 0.788647 0.051711 -0.268112
C120  C     C_3   0.557583 0.788653 0.948290 -0.268114
C121  C     C_R   0.968579 0.342311 0.644893 0.533429
C122  C     C_3   0.747513 0.057188 0.436393 0.069869
C123  C     C_R   0.031421 0.342311 0.355107 0.533428
C124  C     C_R   0.468579 0.842311 0.644893 0.533428
C125  C     C_R   0.531421 0.842312 0.355107 0.533428
C126  C     C_3   0.007973 0.352965 0.070100 0.069354
C127  C     C_3   0.992027 0.352966 0.929899 0.069356
C128  C     C_3   0.507973 0.852965 0.070101 0.069355
C129  C     C_3   0.492028 0.852966 0.929900 0.069355
C130  C     C_R   0.769760 0.501756 0.856012 0.544983
C131  C     C_R   0.230242 0.501765 0.143989 0.544993
C132  C     C_R   0.269759 0.001761 0.856011 0.544981
Cr1   Cr    Cr6+3 0.885690 0.492860 0.745310 0.974620
Cr2   Cr    Cr6+3 0.111880 0.178590 0.246990 0.983641
Cr3   Cr    Cr6+3 0.388120 0.678590 0.753010 0.983642
Cr4   Cr    Cr6+3 0.611880 0.678590 0.246990 0.983641
Cr5   Cr    Cr6+3 0.114310 0.492860 0.254690 0.974619
Cr6   Cr    Cr6+3 0.385690 0.992860 0.745310 0.974619
Cr7   Cr    Cr6+3 0.614310 0.992860 0.254690 0.974617
Cr8   Cr    Cr6+3 0.729880 0.332270 0.748190 0.982221
Cr9   Cr    Cr6+3 0.270120 0.332270 0.251810 0.982226
Cr10  Cr    Cr6+3 0.229880 0.832270 0.748190 0.982219
Cr11  Cr    Cr6+3 0.770120 0.832270 0.251810 0.982222
Cr12  Cr    Cr6+3 0.888120 0.178590 0.753010 0.983644
H1    H     H_    0.638163 0.095825 0.447865 0.134636
H2    H     H_    0.190175 0.910172 0.529531 0.124441
H3    H     H_    0.552023 0.015240 0.943198 0.113332
H4    H     H_    0.611316 0.824749 0.052099 0.103538
H5    H     H_    0.388686 0.824754 0.947907 0.103536
H6    H     H_    0.111315 0.324767 0.052091 0.103537
H7    H     H_    0.888685 0.324748 0.947904 0.103536
H8    H     H_    0.600317 0.836814 0.924992 0.099725
H9    H     H_    0.399687 0.836799 0.075014 0.099720
H10   H     H_    0.100316 0.336807 0.924987 0.099722
H11   H     H_    0.899686 0.336801 0.075012 0.099721
H12   H     H_    0.943310 0.197992 0.073994 0.107874
H13   H     H_    0.309823 0.410170 0.470469 0.124440
H14   H     H_    0.056693 0.197996 0.926006 0.107872
H15   H     H_    0.443310 0.697992 0.073993 0.107874
H16   H     H_    0.556697 0.698000 0.926004 0.107869
H17   H     H_    0.934973 0.191822 0.952303 0.132893
H18   H     H_    0.065036 0.191829 0.047697 0.132897
H19   H     H_    0.434972 0.691824 0.952303 0.132895
H20   H     H_    0.565028 0.691822 0.047695 0.132893
H21   H     H_    0.647951 0.102528 0.570070 0.106053
H22   H     H_    0.352047 0.102526 0.429928 0.106053
H23   H     H_    0.147951 0.602527 0.570070 0.106053
H24   H     H_    0.690175 0.410172 0.529531 0.124440
H25   H     H_    0.852047 0.602527 0.429928 0.106054
H26   H     H_    0.722979 0.869890 0.462266 0.110138
H27   H     H_    0.277018 0.869890 0.537733 0.110141
H28   H     H_    0.222979 0.369890 0.462266 0.110137
H29   H     H_    0.777018 0.369889 0.537733 0.110141
H30   H     H_    0.704589 0.925128 0.582308 0.100257
H31   H     H_    0.295406 0.925125 0.417689 0.100259
H32   H     H_    0.204590 0.425128 0.582309 0.100258
H33   H     H_    0.795407 0.425127 0.417691 0.100259
H34   H     H_    0.855649 0.090784 0.423317 0.121732
H35   H     H_    0.795352 0.911112 0.589180 0.115325
H36   H     H_    0.144352 0.090792 0.576685 0.121731
H37   H     H_    0.355649 0.590784 0.423316 0.121732
H38   H     H_    0.644352 0.590792 0.576685 0.121731
H39   H     H_    0.804601 0.220991 0.427843 0.102245
H40   H     H_    0.195403 0.220994 0.572158 0.102246
H41   H     H_    0.304601 0.720991 0.427843 0.102246
H42   H     H_    0.695403 0.720994 0.572158 0.102246
H43   H     H_    0.841354 0.220218 0.549265 0.114304
H44   H     H_    0.158649 0.220227 0.450738 0.114299
H45   H     H_    0.341354 0.720218 0.549265 0.114303
H46   H     H_    0.204642 0.911116 0.410821 0.115317
H47   H     H_    0.658649 0.720227 0.450737 0.114299
H48   H     H_    0.838452 0.344302 0.250520 0.144540
H49   H     H_    0.780645 0.452093 0.212037 0.177440
H50   H     H_    0.758807 0.377077 0.292994 0.140901
H51   H     H_    0.693921 0.295160 0.188707 0.170736
H52   H     H_    0.751111 0.190792 0.232276 0.215789
H53   H     H_    0.832633 0.201471 0.138059 0.152472
H54   H     H_    0.795010 0.333137 0.104812 0.134936
H55   H     H_    0.161548 0.344436 0.749537 0.144558
H56   H     H_    0.219468 0.452091 0.787953 0.177517
H57   H     H_    0.295353 0.411112 0.589180 0.115324
H58   H     H_    0.241178 0.377001 0.706987 0.140866
H59   H     H_    0.306074 0.295003 0.811257 0.170783
H60   H     H_    0.248805 0.190731 0.767718 0.215766
H61   H     H_    0.167351 0.201498 0.861966 0.152440
H62   H     H_    0.205003 0.333158 0.895184 0.134948
H63   H     H_    0.338433 0.844301 0.250543 0.144520
H64   H     H_    0.280660 0.952116 0.212022 0.177428
H65   H     H_    0.258776 0.877142 0.292982 0.140925
H66   H     H_    0.193908 0.795203 0.188688 0.170718
H67   H     H_    0.251084 0.690823 0.232273 0.215778
H68   H     H_    0.704644 0.411116 0.410820 0.115321
H69   H     H_    0.332626 0.701480 0.138070 0.152475
H70   H     H_    0.295014 0.833146 0.104810 0.134937
H71   H     H_    0.661534 0.844346 0.749517 0.144557
H72   H     H_    0.719397 0.952078 0.787949 0.177475
H73   H     H_    0.741160 0.877017 0.706988 0.140869
H74   H     H_    0.806069 0.795085 0.811269 0.170762
H75   H     H_    0.748839 0.690751 0.767723 0.215782
H76   H     H_    0.667354 0.701489 0.861962 0.152451
H77   H     H_    0.705000 0.833151 0.895190 0.134942
H78   H     H_    0.046259 0.151746 0.443018 0.129350
H79   H     H_    0.953741 0.151743 0.556980 0.129347
H80   H     H_    0.546260 0.651746 0.443018 0.129350
H81   H     H_    0.361837 0.095817 0.552133 0.134632
H82   H     H_    0.453741 0.651743 0.556980 0.129348
H83   H     H_    0.959202 0.162966 0.433491 0.106873
H84   H     H_    0.040799 0.162966 0.566508 0.106874
H85   H     H_    0.459202 0.662966 0.433491 0.106873
H86   H     H_    0.540799 0.662966 0.566508 0.106873
H87   H     H_    0.616979 0.890853 0.458541 0.112127
H88   H     H_    0.383019 0.890844 0.541458 0.112123
H89   H     H_    0.116979 0.390853 0.458541 0.112127
H90   H     H_    0.883019 0.390844 0.541458 0.112123
H91   H     H_    0.600075 0.835735 0.579123 0.101855
H92   H     H_    0.138163 0.595825 0.447865 0.134636
H93   H     H_    0.399925 0.835733 0.420875 0.101851
H94   H     H_    0.100074 0.335735 0.579123 0.101857
H95   H     H_    0.899925 0.335732 0.420875 0.101852
H96   H     H_    0.938564 0.477601 0.416146 0.121785
H97   H     H_    0.061435 0.477602 0.583855 0.121786
H98   H     H_    0.438564 0.977601 0.416146 0.121784
H99   H     H_    0.561435 0.977602 0.583855 0.121786
H100  H     H_    0.947074 0.499689 0.534853 0.129153
H101  H     H_    0.052920 0.499692 0.465148 0.129156
H102  H     H_    0.447074 0.999689 0.534853 0.129153
H103  H     H_    0.861838 0.595817 0.552133 0.134632
H104  H     H_    0.552920 0.999692 0.465148 0.129155
H105  H     H_    0.827618 0.912502 0.059931 0.126282
H106  H     H_    0.172381 0.912508 0.940067 0.126286
H107  H     H_    0.327619 0.412514 0.059933 0.126288
H108  H     H_    0.672383 0.412502 0.940068 0.126285
H109  H     H_    0.687719 0.220374 0.438372 0.104904
H110  H     H_    0.312286 0.220368 0.561629 0.104906
H111  H     H_    0.187719 0.720374 0.438372 0.104904
H112  H     H_    0.812286 0.720368 0.561629 0.104906
H113  H     H_    0.854503 0.055954 0.065393 0.120725
H114  H     H_    0.863516 0.069051 0.542487 0.128463
H115  H     H_    0.145494 0.055957 0.934610 0.120723
H116  H     H_    0.354505 0.555968 0.065395 0.120723
H117  H     H_    0.645496 0.555951 0.934610 0.120723
H118  H     H_    0.866833 0.030345 0.948363 0.132729
H119  H     H_    0.133169 0.030342 0.051640 0.132730
H120  H     H_    0.366836 0.530354 0.948364 0.132731
H121  H     H_    0.633169 0.530340 0.051640 0.132732
H122  H     H_    0.800608 0.924829 0.937817 0.128290
H123  H     H_    0.199396 0.924828 0.062180 0.128293
H124  H     H_    0.300611 0.424836 0.937821 0.128291
H125  H     H_    0.136484 0.069059 0.457514 0.128465
H126  H     H_    0.699395 0.424824 0.062181 0.128290
H127  H     H_    0.688655 0.915820 0.009308 0.104113
H128  H     H_    0.311347 0.915827 0.990682 0.104111
H129  H     H_    0.188659 0.415827 0.009314 0.104114
H130  H     H_    0.811347 0.415821 0.990684 0.104111
H131  H     H_    0.671701 0.005710 0.900905 0.098746
H132  H     H_    0.328304 0.005707 0.099087 0.098727
H133  H     H_    0.171704 0.505712 0.900907 0.098751
H134  H     H_    0.828301 0.505700 0.099089 0.098734
H135  H     H_    0.687410 0.215446 0.070690 0.131905
H136  H     H_    0.363517 0.569052 0.542487 0.128463
H137  H     H_    0.312586 0.215455 0.929309 0.131898
H138  H     H_    0.187409 0.715454 0.070688 0.131903
H139  H     H_    0.812588 0.715450 0.929310 0.131902
H140  H     H_    0.819897 0.228375 0.997957 0.117457
H141  H     H_    0.180103 0.228382 0.002052 0.117459
H142  H     H_    0.319897 0.728386 0.997956 0.117457
H143  H     H_    0.680104 0.728372 0.002049 0.117460
H144  H     H_    0.739551 0.285453 0.967617 0.105555
H145  H     H_    0.260452 0.285454 0.032389 0.105558
H146  H     H_    0.239551 0.785460 0.967614 0.105558
H147  H     H_    0.636484 0.569059 0.457514 0.128465
H148  H     H_    0.760449 0.785451 0.032389 0.105557
H149  H     H_    0.634326 0.026603 0.042648 0.122329
H150  H     H_    0.365672 0.026616 0.957345 0.122330
H151  H     H_    0.134329 0.526611 0.042651 0.122327
H152  H     H_    0.865673 0.526609 0.957347 0.122330
H153  H     H_    0.687361 0.237821 0.560328 0.137548
H154  H     H_    0.312639 0.237819 0.439673 0.137547
H155  H     H_    0.187360 0.737820 0.560328 0.137548
H156  H     H_    0.812638 0.737819 0.439673 0.137547
H157  H     H_    0.652163 0.140440 0.941161 0.122162
H158  H     H_    0.809823 0.910170 0.470469 0.124440
H159  H     H_    0.347839 0.140442 0.058837 0.122159
H160  H     H_    0.152164 0.640443 0.941161 0.122162
H161  H     H_    0.847839 0.640436 0.058839 0.122161
H162  H     H_    0.033278 0.548437 0.062153 0.132900
H163  H     H_    0.966722 0.548438 0.937847 0.132899
H164  H     H_    0.533278 0.048438 0.062154 0.132901
H165  H     H_    0.466721 0.048438 0.937847 0.132898
H166  H     H_    0.947976 0.515237 0.056803 0.113335
H167  H     H_    0.052024 0.515239 0.943198 0.113333
H168  H     H_    0.447975 0.015236 0.056803 0.113335
O1    O     O_R   0.957210 0.449410 0.665480 -0.532773
O2    O     O_R   0.167480 0.095300 0.164000 -0.535636
O3    O     O_R   0.332520 0.595300 0.836000 -0.535651
O4    O     O_R   0.667480 0.595300 0.164000 -0.535638
O5    O     O_R   0.946380 0.253940 0.826940 -0.514822
O6    O     O_R   0.053620 0.253940 0.173060 -0.514821
O7    O     O_R   0.446380 0.753940 0.826940 -0.514820
O8    O     O_R   0.553620 0.753940 0.173060 -0.514822
O9    O     O_3   0.834560 0.334570 0.748840 -0.279000
O10   O     O_3   0.165440 0.334570 0.251160 -0.278994
O11   O     O_3   0.334560 0.834570 0.748840 -0.278997
O12   O     O_R   0.042790 0.449410 0.334520 -0.532773
O13   O     O_3   0.665440 0.834570 0.251160 -0.279000
O14   O     O_R   0.820730 0.541240 0.668250 -0.521078
O15   O     O_R   0.179270 0.541240 0.331750 -0.521087
O16   O     O_R   0.320730 0.041240 0.668250 -0.521074
O17   O     O_R   0.679270 0.041240 0.331750 -0.521084
O18   O     O_R   0.714240 0.455060 0.663710 -0.531423
O19   O     O_R   0.285760 0.455060 0.336290 -0.531416
O20   O     O_R   0.214240 0.955060 0.663710 -0.531426
O21   O     O_R   0.785760 0.955060 0.336290 -0.531418
O22   O     O_R   0.736780 0.204870 0.675910 -0.512951
O23   O     O_R   0.457210 0.949410 0.665480 -0.532772
O24   O     O_R   0.263220 0.204870 0.324090 -0.512950
O25   O     O_R   0.236780 0.704870 0.675910 -0.512950
O26   O     O_R   0.763220 0.704870 0.324090 -0.512950
O27   O     O_R   0.833070 0.087590 0.673490 -0.531173
O28   O     O_R   0.166930 0.087590 0.326510 -0.531182
O29   O     O_R   0.333070 0.587590 0.673490 -0.531176
O30   O     O_R   0.666930 0.587590 0.326510 -0.531178
O31   O     O_R   0.946890 0.246800 0.676300 -0.511757
O32   O     O_R   0.053110 0.246800 0.323700 -0.511758
O33   O     O_R   0.446890 0.746800 0.676300 -0.511757
O34   O     O_R   0.542790 0.949410 0.334520 -0.532772
O35   O     O_R   0.553110 0.746800 0.323700 -0.511758
O36   O     O_R   0.956650 0.457120 0.827980 -0.533833
O37   O     O_R   0.043350 0.457120 0.172020 -0.533833
O38   O     O_R   0.456650 0.957120 0.827980 -0.533833
O39   O     O_R   0.543350 0.957120 0.172020 -0.533834
O40   O     O_R   0.820220 0.548390 0.818890 -0.525915
O41   O     O_R   0.179780 0.548390 0.181110 -0.525917
O42   O     O_R   0.320220 0.048390 0.818890 -0.525915
O43   O     O_R   0.679780 0.048390 0.181110 -0.525916
O44   O     O_R   0.713680 0.462770 0.826210 -0.536926
O45   O     O_R   0.736260 0.212010 0.826560 -0.519517
O46   O     O_R   0.286320 0.462770 0.173790 -0.536920
O47   O     O_R   0.213680 0.962770 0.826210 -0.536930
O48   O     O_R   0.786320 0.962770 0.173790 -0.536921
O49   O     O_R   0.263740 0.212010 0.173440 -0.519519
O50   O     O_R   0.236260 0.712010 0.826560 -0.519514
O51   O     O_R   0.763740 0.712010 0.173440 -0.519521
O52   O     O_R   0.832520 0.095300 0.836000 -0.535643

loop_
_geom_bond_atom_site_label_1
_geom_bond_atom_site_label_2
_ccdc_geom_bond_type
Cr6   O23   S    
C35   C47   S    
C130  O40   A    
C18   H22   S    
Cr5   O12   S    
C72   H117  S    
C90   C107  S    
C48   H44   S    
C95   C99   S    
Cr12  O52   S    
C21   H26   S    
C76   O30   A    
Cr2   O10   S    
C108  C109  S    
C82   C99   S    
C39   C74   S    
C35   C42   S    
C43   H31   S    
C6    O3    A    
C109  C127  S    
C74   O28   A    
C103  H161  S    
C2    C22   S    
C60   H96   S    
C112  C129  S    
C117  C126  S    
Cr2   O2    S    
C85   C103  S    
C69   H105  S    
C72   C94   S    
C119  C128  S    
C108  H162  S    
C119  H9    S    
C78   H34   S    
Cr4   O13   S    
C19   H23   S    
C37   H74   S    
C121  O31   A    
C71   H107  S    
C31   H56   S    
C124  O23   A    
C61   H97   S    
C51   C52   S    
C6    C97   S    
C14   H81   S    
Cr7   O43   S    
C114  H17   S    
C49   H136  S    
C85   H152  S    
C115  H4    S    
C111  H38   S    
C82   C91   S    
Cr9   O19   S    
C88   H138  S    
C3    O48   A    
C37   C38   S    
C16   C20   S    
C109  H167  S    
C26   C27   S    
C110  H168  S    
C50   H47   S    
C4    O52   A    
Cr3   O3    S    
C70   H115  S    
Cr9   O10   S    
C118  H14   S    
C70   C79   S    
C124  O33   A    
C51   C64   S    
Cr10  O20   S    
C71   C93   S    
C34   H63   S    
C8    O5    A    
C60   C64   S    
C10   C129  S    
C79   C96   S    
C74   O24   A    
C41   C76   S    
C13   C45   S    
C81   H126  S    
C77   C95   S    
C59   H102  S    
C7    O51   A    
C84   C93   S    
C83   H128  S    
C2    C14   S    
C105  H145  S    
C21   C42   S    
C61   C65   S    
C119  H15   S    
C11   O8    A    
C120  H16   S    
C75   O25   A    
C27   H52   S    
C108  C126  S    
C50   H147  S    
C52   C65   S    
C110  C128  S    
C112  H165  S    
C80   C97   S    
C84   C102  S    
C69   C77   S    
C86   C104  S    
C4    O45   A    
Cr8   O45   S    
C84   H151  S    
C15   H111  S    
C53   C54   S    
C85   H130  S    
C94   C130  S    
C62   H93   S    
Cr7   O39   S    
C36   C37   S    
C92   C132  S    
C57   H100  S    
Cr4   O30   S    
C59   C68   S    
C54   C68   S    
C47   H114  S    
C40   C49   S    
C32   C88   S    
C9    O37   A    
C7    O4    A    
C29   H61   S    
C77   H122  S    
C13   C23   S    
C11   O39   A    
C26   H53   S    
Cr12  O9    S    
Cr10  O25   S    
Cr9   O46   S    
C22   H2    S    
Cr6   O16   S    
C15   H92   S    
C117  H11   S    
C28   H50   S    
C23   H28   S    
Cr8   O18   S    
C23   H13   S    
C45   O19   A    
C32   H70   S    
C125  O34   A    
C81   H121  S    
C46   H33   S    
C116  H5    S    
C28   H49   S    
C25   H24   S    
C17   H153  S    
C62   C66   S    
C120  C129  S    
Cr2   O32   S    
C42   H30   S    
C113  C126  S    
C105  H141  S    
C115  C128  S    
C9    O6    A    
C82   H127  S    
C12   H1    S    
Cr12  O31   S    
C107  H143  S    
Cr10  O11   S    
C29   C30   S    
C56   O20   A    
C25   H29   S    
C33   H66   S    
C10   O7    A    
C14   H110  S    
C108  H166  S    
Cr9   O24   S    
C104  H144  S    
Cr11  O26   S    
C132  O42   A    
C118  C127  S    
C10   O38   A    
C102  H133  S    
C47   H43   S    
C107  H148  S    
C69   H113  S    
Cr7   O17   S    
C36   C90   S    
C63   C68   S    
C111  H42   S    
C12   H109  S    
C83   C101  S    
C90   H139  S    
C80   H124  S    
C113  H6    S    
C72   C81   S    
C99   H157  S    
C73   O22   A    
C8    O36   A    
C131  O41   A    
C112  H3    S    
C110  H164  S    
C58   H104  S    
C100  H41   S    
C2    C56   S    
Cr3   O7    S    
Cr4   O8    S    
C125  O35   A    
C50   C111  S    
C118  H10   S    
C26   H54   S    
C110  C112  S    
C29   C87   S    
C114  C117  S    
C19   C40   S    
C40   C44   S    
Cr1   O40   S    
C1    C24   S    
C47   C78   S    
C84   H129  S    
C36   H77   S    
C54   H86   S    
C22   C43   S    
C96   C105  S    
Cr7   O13   S    
C79   H119  S    
Cr8   O9    S    
C116  H19   S    
C80   H120  S    
Cr1   O1    S    
C38   H71   S    
Cr6   O11   S    
C31   H55   S    
C57   H90   S    
C123  O32   A    
C15   C19   S    
C30   H59   S    
Cr10  O47   S    
Cr11  O21   S    
C61   H94   S    
Cr9   O49   S    
C86   C91   S    
C106  H146  S    
C30   C31   S    
C83   H150  S    
Cr8   O44   S    
C81   C98   S    
Cr3   O11   S    
C98   C103  S    
C3    C91   S    
C21   H158  S    
C89   H36   S    
C21   C122  S    
C31   H58   S    
C52   H84   S    
C43   H46   S    
C12   C17   S    
C101  H132  S    
C65   C121  S    
C70   H106  S    
C22   H27   S    
C20   H25   S    
C96   C101  S    
C38   H73   S    
C68   C124  S    
C114  H7    S    
C90   C94   S    
C123  O12   A    
C77   H118  S    
C132  O47   A    
C44   H32   S    
Cr11  O51   S    
Cr6   O42   S    
C99   H131  S    
C57   C60   S    
C34   H64   S    
C98   C107  S    
Cr8   O22   S    
C2    C89   S    
C18   C39   S    
C45   O15   A    
C4    C95   S    
C67   O21   A    
C42   H35   S    
C130  O44   A    
C60   H95   S    
C5    O49   A    
C1    O18   A    
C18   H154  S    
C51   H83   S    
C27   H51   S    
C37   H75   S    
C41   C50   S    
C5    C96   S    
Cr1   O9    S    
C16   H103  S    
C109  H163  S    
C106  H142  S    
Cr12  O27   S    
C70   C92   S    
C57   C65   S    
C56   O16   A    
C82   H149  S    
C116  C119  S    
C64   C123  S    
C40   C75   S    
C32   C33   S    
Cr4   O35   S    
C17   H21   S    
C104  H140  S    
C114  C127  S    
C16   H112  S    
C131  O46   A    
C23   C44   S    
C63   H91   S    
C12   C122  S    
C52   H79   S    
C76   O26   A    
Cr5   O41   S    
C17   C35   S    
C93   C131  S    
Cr5   O15   S    
C53   H85   S    
C39   C48   S    
C7    C98   S    
C14   C18   S    
C36   H76   S    
C20   C41   S    
C6    O50   A    
Cr4   O4    S    
C53   H80   S    
C83   C92   S    
Cr7   O34   S    
Cr3   O29   S    
Cr1   O36   S    
C49   H45   S    
C51   H78   S    
C121  O1    A    
C55   C61   S    
Cr10  O50   S    
C78   H39   S    
C115  H20   S    
C54   H82   S    
C58   H87   S    
C113  H18   S    
C58   C66   S    
C116  C129  S    
C97   C102  S    
C79   H123  S    
C41   C46   S    
C87   C105  S    
C16   C24   S    
C24   C111  S    
C55   H89   S    
C59   H88   S    
C28   H48   S    
C71   C80   S    
C62   H98   S    
C120  H8    S    
Cr6   O38   S    
Cr3   O33   S    
C89   H40   S    
C3    O43   A    
C24   C25   S    
Cr12  O5    S    
Cr5   O10   S    
C39   C43   S    
C71   H116  S    
C73   O27   A    
C29   H62   S    
C87   H137  S    
C100  H37   S    
C34   H65   S    
Cr11  O48   S    
C88   C106  S    
C85   C94   S    
C8    C127  S    
C26   C86   S    
C63   H99   S    
C55   C64   S    
C117  H12   S    
C33   C34   S    
C86   H135  S    
C72   H108  S    
C53   C66   S    
C5    O2    A    
C32   H69   S    
C48   H125  S    
C48   C89   S    
C13   C15   S    
C44   H57   S    
Cr11  O13   S    
C97   C106  S    
C67   C122  S    
C87   C92   S    
C95   C104  S    
C58   C63   S    
C88   C93   S    
C35   C73   S    
C59   C62   S    
C75   O29   A    
C38   H72   S    
Cr1   O14   S    
C67   O17   A    
C30   H60   S    
C9    C126  S    
C103  H134  S    
C66   C125  S    
C13   C100  S    
C11   C128  S    
C69   C91   S    
C49   C100  S    
C33   H67   S    
C46   H68   S    
C20   H156  S    
C19   H155  S    
C78   C122  S    
C101  H159  S    
C1    O14   A    
C102  H160  S    
C113  C118  S    
Cr5   O37   S    
Cr2   O28   S    
Cr2   O6    S    
C115  C120  S    
C55   H101  S    
C27   C28   S    
C25   C46   S    
