data_mof_unit_11889.cif
_audit_creation_date              2012-12-11T15:22:34-0500
_audit_creation_method            fapswitch 2.2
_symmetry_space_group_name_H-M    P1
_symmetry_Int_Tables_number       1
_space_group_crystal_system       triclinic
_cell_length_a                    22.369423
_cell_length_b                    13.038477
_cell_length_c                    26.947492
_cell_angle_alpha                 90.178923
_cell_angle_beta                  90.468351
_cell_angle_gamma                 90.116881
_cell_volume                      7859.27427543

loop_
_atom_site_label
_atom_site_type_symbol
_atom_type_description
_atom_site_fract_x
_atom_site_fract_y
_atom_site_fract_z
_atom_type_partial_charge
C1    C     C_R   0.721121 0.345241 0.178363 0.580711
C2    C     C_R   0.475977 0.257964 0.897652 -0.120708
C3    C     C_R   0.017815 0.589462 0.557398 -0.110187
C4    C     C_R   0.509121 0.077740 0.395172 -0.128978
C5    C     C_R   0.428974 0.099026 0.592737 -0.110322
C6    C     C_R   0.083683 0.641480 0.408192 -0.105346
C7    C     C_R   0.002524 0.586027 0.607393 -0.126091
C8    C     C_R   0.737519 0.961593 0.372812 0.023090
C9    C     C_R   0.255815 0.950538 0.629965 0.018047
C10   C     C_R   0.240594 0.451926 0.370465 0.019705
C11   C     C_R   0.778315 0.525280 0.618306 0.013732
C12   C     C_R   0.685416 0.953226 0.401261 -0.121007
C13   C     C_R   0.018500 0.753066 0.102312 -0.112224
C14   C     C_R   0.301793 0.897517 0.605911 -0.136538
C15   C     C_R   0.189718 0.427741 0.398198 -0.128161
C16   C     C_R   0.831764 0.520180 0.591520 -0.124107
C17   C     C_R   0.689412 0.935927 0.451556 -0.066342
C18   C     C_R   0.296354 0.874562 0.555777 -0.077436
C19   C     C_R   0.195131 0.405438 0.447990 -0.048835
C20   C     C_R   0.830455 0.505345 0.540305 -0.061322
C21   C     C_R   0.745264 0.921722 0.473813 0.065868
C22   C     C_R   0.244339 0.902012 0.529887 0.069471
C23   C     C_R   0.251705 0.399141 0.470128 0.089111
C24   C     C_R   0.975592 0.758781 0.896964 -0.122598
C25   C     C_R   0.775587 0.492715 0.515592 0.066982
C26   C     C_R   0.797528 0.925561 0.445355 -0.106976
C27   C     C_R   0.196320 0.946489 0.554712 -0.075520
C28   C     C_R   0.303160 0.414990 0.441562 -0.094502
C29   C     C_R   0.722143 0.499103 0.542200 -0.069250
C30   C     C_R   0.793707 0.946782 0.394835 -0.119328
C31   C     C_R   0.201888 0.970388 0.604681 -0.101139
C32   C     C_R   0.297579 0.443075 0.391923 -0.111235
C33   C     C_R   0.723394 0.516394 0.593085 -0.097236
C34   C     C_R   0.786126 0.973907 0.554985 -0.156258
C35   C     C_R   0.505441 0.256818 0.052344 0.014548
C36   C     C_R   0.231663 0.974561 0.446053 -0.150327
C37   C     C_R   0.292922 0.455112 0.550961 -0.117093
C38   C     C_R   0.735442 0.524266 0.431379 -0.160229
C39   C     C_R   0.721581 0.347991 0.321532 0.558717
C40   C     C_R   0.279156 0.345848 0.677752 0.550952
C41   C     C_R   0.220711 0.845521 0.322248 0.542911
C42   C     C_R   0.778766 0.846985 0.678275 0.552371
C43   C     C_R   0.792272 0.960299 0.605783 -0.136902
C44   C     C_R   0.226914 0.962885 0.394834 -0.136303
C45   C     C_R   0.296439 0.448747 0.602256 -0.125601
C46   C     C_R   0.487771 0.258858 0.948754 0.018037
C47   C     C_R   0.721046 0.488791 0.384029 -0.139659
C48   C     C_R   0.719608 0.821793 0.602091 -0.088233
C49   C     C_R   0.244573 0.780182 0.404343 -0.086595
C50   C     C_R   0.223998 0.310060 0.600462 -0.085445
C51   C     C_R   0.785964 0.342365 0.396691 -0.085274
C52   C     C_R   0.714275 0.833333 0.551227 0.231767
C53   C     C_R   0.247172 0.790821 0.455344 0.229751
C54   C     C_R   0.221370 0.314197 0.549161 0.219058
C55   C     C_R   0.799595 0.376234 0.444522 0.239527
C56   C     C_R   0.748663 0.908685 0.527318 0.031786
C57   C     C_R   0.008947 0.756206 0.050860 0.028477
C58   C     C_R   0.241206 0.888568 0.476395 0.028538
C59   C     C_R   0.256073 0.387419 0.523956 0.045568
C60   C     C_R   0.772840 0.466557 0.462634 0.026083
C61   C     C_R   0.760508 0.881840 0.629252 -0.016556
C62   C     C_R   0.233846 0.865596 0.374006 -0.007395
C63   C     C_R   0.263077 0.374456 0.627188 -0.017350
C64   C     C_R   0.744679 0.395837 0.367071 -0.018098
C65   C     C_R   0.553948 0.158771 0.321389 0.541187
C66   C     C_R   0.444366 0.158409 0.677835 0.539286
C67   C     C_R   0.054302 0.658777 0.321422 0.533219
C68   C     C_R   0.989768 0.759924 0.947569 0.017154
C69   C     C_R   0.945635 0.658912 0.678381 0.524210
C70   C     C_R   0.731431 0.002713 0.323085 0.552226
C71   C     C_R   0.267765 0.001332 0.677333 0.543809
C72   C     C_R   0.231837 0.501447 0.322656 0.534270
C73   C     C_R   0.780495 0.546216 0.671765 0.553405
C74   C     C_R   0.522436 0.068727 0.100613 -0.130812
C75   C     C_R   0.491453 0.073454 0.895416 -0.120084
C76   C     C_R   0.037868 0.569898 0.096743 -0.119401
C77   C     C_R   0.000478 0.577532 0.892323 -0.127976
C78   C     C_R   0.514380 0.069830 0.049541 0.002873
C79   C     C_R   0.506135 0.164109 0.025108 0.059186
C80   C     C_R   0.501498 0.072663 0.946353 0.008934
C81   C     C_R   0.030650 0.572503 0.045624 0.009356
C82   C     C_R   0.014126 0.577118 0.942774 0.015793
C83   C     C_R   0.511053 0.979674 0.970997 -0.124200
C84   C     C_R   0.516859 0.978147 0.022400 -0.128130
C85   C     C_R   0.031223 0.485836 0.966093 -0.128699
C86   C     C_R   0.039213 0.483430 0.017319 -0.125512
C87   C     C_2   0.791090 0.070974 0.850192 0.580752
C88   C     C_2   0.154913 0.015784 0.123180 0.632056
C89   C     C_2   0.344095 0.518110 0.876926 0.630015
C90   C     C_R   0.498843 0.165394 0.973348 0.060744
C91   C     C_2   0.702810 0.559915 0.137633 0.592878
C92   C     C_R   0.015789 0.665718 0.022448 0.065618
C93   C     C_R   0.278701 0.346783 0.821489 0.555148
C94   C     C_R   0.007193 0.667923 0.970841 0.067414
C95   C     C_R   0.495456 0.349700 0.027499 -0.081593
C96   C     C_R   0.485952 0.350559 0.976120 -0.068778
C97   C     C_R   0.993644 0.848176 0.027122 -0.067624
C98   C     C_R   0.983667 0.849866 0.975840 -0.088780
C99   C     C_R   0.723565 0.015261 0.121856 -0.017267
C100  C     C_R   0.265219 0.974487 0.872614 -0.008615
C101  C     C_R   0.234063 0.474946 0.127095 -0.010527
C102  C     C_R   0.758581 0.454784 0.869299 -0.017314
C103  C     C_R   0.684545 0.060765 0.087557 -0.157889
C104  C     C_R   0.221209 0.846437 0.178447 0.553529
C105  C     C_R   0.257244 0.054005 0.906731 -0.127277
C106  C     C_R   0.241578 0.554927 0.093370 -0.129460
C107  C     C_R   0.807246 0.414133 0.895864 -0.100947
C108  C     C_R   0.689072 0.037838 0.037165 -0.155313
C109  C     C_R   0.262446 0.035383 0.956995 -0.156488
C110  C     C_R   0.235798 0.536871 0.043040 -0.158026
C111  C     C_R   0.802217 0.394014 0.946287 -0.138463
C112  C     C_R   0.732289 0.968173 0.020748 0.030092
C113  C     C_R   0.272616 0.935967 0.974752 0.035526
C114  C     C_R   0.225494 0.437580 0.024805 0.033595
C115  C     C_R   0.778468 0.846806 0.821138 0.590982
C116  C     C_R   0.748408 0.413337 0.970912 0.036815
C117  C     C_R   0.771467 0.921885 0.055249 0.251032
C118  C     C_R   0.283761 0.856327 0.940253 0.254202
C119  C     C_R   0.214387 0.357571 0.058921 0.247081
C120  C     C_R   0.697909 0.445455 0.943488 0.237901
C121  C     C_R   0.553884 0.156844 0.177440 0.531811
C122  C     C_R   0.446443 0.157538 0.822331 0.546857
C123  C     C_R   0.055327 0.656621 0.176727 0.546647
C124  C     C_R   0.946854 0.657744 0.822013 0.548323
C125  C     C_R   0.767076 0.946062 0.105591 -0.059896
C126  C     C_R   0.475332 0.164623 0.871299 -0.006921
C127  C     C_R   0.280797 0.876573 0.889276 -0.081019
C128  C     C_R   0.217974 0.377251 0.109992 -0.087270
C129  C     C_R   0.703344 0.466311 0.892990 -0.089967
C130  C     C_R   0.720563 0.846401 0.950789 -0.074197
C131  C     C_R   0.304556 0.863683 0.057725 -0.085770
C132  C     C_R   0.193950 0.365598 0.941458 -0.088075
C133  C     C_R   0.766786 0.311622 0.046937 -0.126267
C134  C     C_R   0.730676 0.818963 0.901741 -0.140800
C135  C     C_R   0.292615 0.846585 0.107845 -0.163020
C136  C     C_R   0.206433 0.347986 0.891444 -0.163326
C137  C     C_R   0.526971 0.160923 0.127597 -0.011416
C138  C     C_R   0.763498 0.299105 0.097875 -0.152694
C139  C     C_R   0.769105 0.990528 0.884572 0.046969
C140  C     C_R   0.203724 0.953463 0.101601 0.060297
C141  C     C_R   0.295419 0.455149 0.898347 0.057437
C142  C     C_R   0.722756 0.471516 0.106990 0.048347
C143  C     C_R   0.758790 0.016778 0.934477 -0.108464
C144  C     C_R   0.213716 0.962679 0.050829 -0.098684
C145  C     C_R   0.285008 0.464559 0.949097 -0.098705
C146  C     C_R   0.726955 0.483245 0.055295 -0.055800
C147  C     C_R   0.736306 0.944122 0.967670 0.032269
C148  C     C_R   0.977960 0.666424 0.869902 -0.004117
C149  C     C_R   0.263746 0.918326 0.028399 0.028935
C150  C     C_R   0.234647 0.420282 0.971133 0.032622
C151  C     C_R   0.746654 0.402234 0.025164 0.035577
C152  C     C_R   0.757043 0.888595 0.868653 0.002684
C153  C     C_R   0.241073 0.887772 0.130073 -0.007954
C154  C     C_R   0.258365 0.388898 0.869649 -0.007199
C155  C     C_R   0.738990 0.376155 0.128171 0.005852
C156  C     C_R   0.523522 0.167467 0.369309 0.020114
C157  C     C_R   0.459769 0.164592 0.625407 0.036174
C158  C     C_R   0.038981 0.666529 0.373615 0.043432
C159  C     C_R   0.033373 0.660007 0.125333 -0.002849
C160  C     C_R   0.973303 0.669432 0.629405 0.012387
C161  C     C_R   0.517134 0.263106 0.392911 -0.124317
C162  C     C_R   0.497326 0.240894 0.606530 -0.124879
C163  C     C_R   0.983022 0.699890 0.389718 -0.124920
C164  C     C_R   0.961960 0.757965 0.601152 -0.125547
C165  C     C_R   0.499844 0.268128 0.442550 -0.120635
C166  C     C_R   0.506315 0.247334 0.555255 -0.111390
C167  C     C_R   0.971431 0.704680 0.440624 -0.108576
C168  C     C_R   0.976488 0.760738 0.551059 -0.118830
C169  C     C_R   0.719583 0.044087 0.174141 0.545830
C170  C     C_R   0.516743 0.254859 0.103593 -0.127133
C171  C     C_R   0.268837 0.002681 0.820640 0.541453
C172  C     C_R   0.231048 0.502568 0.179257 0.540586
C173  C     C_R   0.768444 0.501700 0.820537 0.555473
C174  C     C_R   0.489054 0.177592 0.469115 0.033621
C175  C     C_R   0.476188 0.179599 0.522690 0.031028
C176  C     C_R   0.015855 0.676171 0.475255 0.026071
C177  C     C_R   0.003470 0.675826 0.528685 0.026569
C178  C     C_R   0.492813 0.082660 0.444589 -0.118684
C179  C     C_R   0.436259 0.107459 0.542040 -0.117850
C180  C     C_R   0.072163 0.645492 0.458635 -0.108902
Cl1   Cl    Cl    0.827648 0.835828 0.036499 -0.629309
Cl2   Cl    Cl    0.300568 0.730699 0.958354 -0.684093
Cl3   Cl    Cl    0.196888 0.232165 0.040221 -0.692554
Cl4   Cl    Cl    0.627295 0.460956 0.970897 -0.644891
Cl5   Cl    Cl    0.668547 0.745050 0.518781 -0.697833
Cl6   Cl    Cl    0.252275 0.679131 0.491569 -0.699610
Cl7   Cl    Cl    0.178801 0.218988 0.518405 -0.696055
Cl8   Cl    Cl    0.844129 0.296083 0.482183 -0.633475
Cr1   Cr    Cr6+3 0.756570 0.170940 0.251190 1.035081
Cr2   Cr    Cr6+3 0.374010 0.036240 0.749520 1.031476
Cr3   Cr    Cr6+3 0.125990 0.536240 0.250480 1.032552
Cr4   Cr    Cr6+3 0.874010 0.536240 0.749520 1.033383
Cr5   Cr    Cr6+3 0.243430 0.170940 0.748810 1.024391
Cr6   Cr    Cr6+3 0.256570 0.670940 0.251190 1.023450
Cr7   Cr    Cr6+3 0.743430 0.670940 0.748810 1.030110
Cr8   Cr    Cr6+3 0.623740 0.299110 0.249580 1.037190
Cr9   Cr    Cr6+3 0.376260 0.299110 0.750420 1.051906
Cr10  Cr    Cr6+3 0.123740 0.799110 0.249580 1.057839
Cr11  Cr    Cr6+3 0.876260 0.799110 0.750420 1.039765
Cr12  Cr    Cr6+3 0.625990 0.036240 0.250480 1.030492
H1    H     H_    0.491588 0.001292 0.875288 0.142642
H2    H     H_    0.520041 0.293974 0.631301 0.117503
H3    H     H_    0.948544 0.720732 0.363187 0.109677
H4    H     H_    0.938806 0.823065 0.616962 0.140714
H5    H     H_    0.410709 0.056802 0.517969 0.111063
H6    H     H_    0.485873 0.011264 0.464147 0.116018
H7    H     H_    0.038637 0.523049 0.540629 0.130616
H8    H     H_    0.107282 0.625127 0.484705 0.157370
H9    H     H_    0.397538 0.042902 0.606438 0.129520
H10   H     H_    0.513830 0.002810 0.378196 0.135960
H11   H     H_    0.011301 0.516738 0.628262 0.141110
H12   H     H_    0.530106 0.995604 0.118608 0.148757
H13   H     H_    0.127814 0.619314 0.395951 0.119596
H14   H     H_    0.496227 0.342352 0.460394 0.108280
H15   H     H_    0.537595 0.303494 0.541260 0.113041
H16   H     H_    0.927601 0.728418 0.452965 0.110886
H17   H     H_    0.965783 0.828443 0.529571 0.117700
H18   H     H_    0.641511 0.967195 0.385426 0.138686
H19   H     H_    0.343497 0.880354 0.624785 0.127540
H20   H     H_    0.145106 0.434481 0.382635 0.140863
H21   H     H_    0.874450 0.528384 0.610139 0.136866
H22   H     H_    0.811777 0.033571 0.536997 0.162672
H23   H     H_    0.003164 0.506528 0.871389 0.131956
H24   H     H_    0.227160 0.050217 0.462143 0.191335
H25   H     H_    0.319799 0.512098 0.532316 0.173072
H26   H     H_    0.714721 0.593957 0.444717 0.185240
H27   H     H_    0.824042 0.007374 0.626175 0.153083
H28   H     H_    0.217292 0.028711 0.371705 0.143907
H29   H     H_    0.327380 0.498342 0.622117 0.147951
H30   H     H_    0.689535 0.531679 0.361547 0.150008
H31   H     H_    0.512899 0.907977 0.950614 0.134577
H32   H     H_    0.523868 0.905409 0.040891 0.133137
H33   H     H_    0.036958 0.415826 0.944886 0.113959
H34   H     H_    0.050480 0.497809 0.113805 0.147637
H35   H     H_    0.051698 0.411797 0.034843 0.139076
H36   H     H_    0.648938 0.936765 0.473375 0.159314
H37   H     H_    0.333624 0.839693 0.536671 0.143494
H38   H     H_    0.154797 0.398260 0.469665 0.164038
H39   H     H_    0.872093 0.502108 0.520112 0.155958
H40   H     H_    0.695213 0.759926 0.619538 0.164532
H41   H     H_    0.247171 0.703736 0.388581 0.159518
H42   H     H_    0.198960 0.250265 0.618928 0.170757
H43   H     H_    0.804319 0.270001 0.384180 0.168249
H44   H     H_    0.841037 0.914897 0.462513 0.110778
H45   H     H_    0.797562 0.911108 0.131987 0.165222
H46   H     H_    0.155604 0.966292 0.534929 0.153065
H47   H     H_    0.347295 0.410285 0.458238 0.106514
H48   H     H_    0.679377 0.489043 0.523627 0.137359
H49   H     H_    0.834219 0.954421 0.373403 0.130997
H50   H     H_    0.165456 0.010257 0.622562 0.147616
H51   H     H_    0.337279 0.461470 0.370972 0.128806
H52   H     H_    0.681394 0.521224 0.612638 0.146028
H53   H     H_    0.463687 0.328704 0.879190 0.157170
H54   H     H_    0.520111 0.326165 0.124232 0.136195
H55   H     H_    0.958604 0.827939 0.879679 0.139395
H56   H     H_    0.290219 0.816197 0.862756 0.160604
H57   H     H_    0.015900 0.822921 0.124114 0.146304
H58   H     H_    0.477447 0.422943 0.957783 0.183322
H59   H     H_    0.494805 0.421550 0.047795 0.143522
H60   H     H_    0.970337 0.921110 0.958403 0.131655
H61   H     H_    0.988504 0.918347 0.048294 0.155479
H62   H     H_    0.651543 0.115779 0.099718 0.123347
H63   H     H_    0.249134 0.131802 0.894392 0.147048
H64   H     H_    0.249858 0.632608 0.106095 0.146775
H65   H     H_    0.850419 0.404323 0.878588 0.158039
H66   H     H_    0.702662 0.790046 0.976171 0.160280
H67   H     H_    0.208660 0.316596 0.136241 0.161233
H68   H     H_    0.344964 0.832625 0.041836 0.174827
H69   H     H_    0.153305 0.334674 0.957030 0.165467
H70   H     H_    0.783069 0.248943 0.024294 0.125003
H71   H     H_    0.721159 0.740696 0.890487 0.144107
H72   H     H_    0.322771 0.797963 0.128774 0.139558
H73   H     H_    0.176385 0.299133 0.870270 0.136941
H74   H     H_    0.776528 0.225652 0.113113 0.142827
H75   H     H_    0.658838 0.074098 0.010979 0.142721
H76   H     H_    0.257357 0.098895 0.982314 0.195073
H77   H     H_    0.240748 0.600659 0.018041 0.195121
H78   H     H_    0.665017 0.495914 0.872845 0.165518
H79   H     H_    0.841327 0.368162 0.966630 0.129736
H80   H     H_    0.769207 0.093276 0.947922 0.142245
H81   H     H_    0.182549 0.006861 0.028556 0.181154
H82   H     H_    0.316087 0.508784 0.971662 0.180738
H83   H     H_    0.714931 0.555612 0.038259 0.184338
H84   H     H_    0.795329 0.124422 0.780080 0.341764
H85   H     H_    0.128367 0.110101 0.178214 0.337049
H86   H     H_    0.370786 0.611138 0.821631 0.337222
H87   H     H_    0.703995 0.631499 0.204169 0.341395
H88   H     H_    0.528014 0.333559 0.373784 0.132467
O1    O     O_R   0.769900 0.064540 0.196060 -0.515169
O2    O     O_R   0.433710 0.069580 0.694600 -0.516007
O3    O     O_R   0.066290 0.569580 0.305400 -0.509843
O4    O     O_R   0.933710 0.569580 0.694600 -0.528185
O5    O     O_R   0.680760 0.993330 0.302620 -0.501684
O6    O     O_R   0.319240 0.993330 0.697380 -0.507925
O7    O     O_R   0.180760 0.493330 0.302620 -0.507036
O8    O     O_R   0.819240 0.493330 0.697380 -0.485142
O9    O     O_3   0.668770 0.168760 0.250420 -0.274995
O10   O     O_3   0.331230 0.168760 0.749580 -0.253136
O11   O     O_3   0.168770 0.668760 0.250420 -0.258439
O12   O     O_R   0.230100 0.064540 0.803940 -0.512263
O13   O     O_3   0.831230 0.668760 0.749580 -0.274722
O14   O     O_R   0.750800 0.274080 0.199250 -0.522263
O15   O     O_R   0.249200 0.274080 0.800750 -0.513068
O16   O     O_R   0.250800 0.774080 0.199250 -0.513132
O17   O     O_R   0.749200 0.774080 0.800750 -0.504430
O18   O     O_R   0.669990 0.371670 0.194150 -0.477502
O19   O     O_R   0.330010 0.371670 0.805850 -0.476247
O20   O     O_R   0.169990 0.871670 0.194150 -0.474504
O21   O     O_R   0.830010 0.871670 0.805850 -0.476255
O22   O     O_R   0.574600 0.238480 0.197800 -0.504791
O23   O     O_R   0.269900 0.564540 0.196060 -0.511097
O24   O     O_R   0.425400 0.238480 0.802200 -0.503208
O25   O     O_R   0.074600 0.738480 0.197800 -0.500149
O26   O     O_R   0.925400 0.738480 0.802200 -0.502014
O27   O     O_R   0.566130 0.068680 0.194240 -0.522810
O28   O     O_R   0.433870 0.068680 0.805760 -0.512347
O29   O     O_R   0.066130 0.568680 0.194240 -0.515398
O30   O     O_R   0.933870 0.568680 0.805760 -0.517984
O31   O     O_R   0.680610 0.992490 0.199570 -0.477716
O32   O     O_R   0.319390 0.992490 0.800430 -0.493254
O33   O     O_R   0.180610 0.492490 0.199570 -0.496679
O34   O     O_R   0.730100 0.564540 0.803940 -0.516810
O35   O     O_R   0.819390 0.492490 0.800430 -0.490577
O36   O     O_R   0.770060 0.065440 0.307230 -0.508266
O37   O     O_R   0.229940 0.065440 0.692770 -0.520954
O38   O     O_R   0.270060 0.565440 0.307230 -0.518930
O39   O     O_R   0.729940 0.565440 0.692770 -0.518219
O40   O     O_R   0.750960 0.274920 0.302300 -0.500952
O41   O     O_R   0.249040 0.274920 0.697700 -0.508677
O42   O     O_R   0.250960 0.774920 0.302300 -0.506655
O43   O     O_R   0.749040 0.774920 0.697700 -0.522088
O44   O     O_R   0.670160 0.372580 0.305320 -0.505975
O45   O     O_R   0.574760 0.239320 0.300850 -0.500767
O46   O     O_R   0.329840 0.372580 0.694680 -0.505475
O47   O     O_R   0.170160 0.872580 0.305320 -0.495399
O48   O     O_R   0.829840 0.872580 0.694680 -0.508474
O49   O     O_2   0.818940 0.144764 0.866487 -0.535720
O50   O     O_R   0.778343 0.064586 0.799377 -0.682876
O51   O     O_2   0.107110 0.023765 0.101167 -0.523291
O52   O     O_R   0.164571 0.069042 0.167667 -0.668941
O53   O     O_2   0.391392 0.528721 0.899473 -0.526957
O54   O     O_R   0.334763 0.569297 0.832001 -0.667573
O55   O     O_2   0.672579 0.627888 0.118913 -0.505520
O56   O     O_R   0.425240 0.239320 0.699150 -0.497853
O57   O     O_R   0.720024 0.567474 0.187528 -0.684292
O58   O     O_R   0.074760 0.739320 0.300850 -0.494405
O59   O     O_R   0.925240 0.739320 0.699150 -0.505770
O60   O     O_R   0.566290 0.069580 0.305400 -0.523412

loop_
_geom_bond_atom_site_label_1
_geom_bond_atom_site_label_2
_ccdc_geom_bond_type
C99   C103  A    
C21   C26   A    
C34   C56   A    
C82   C94   A    
C100  C127  A    
C132  C150  A    
C142  C146  A    
C133  C151  A    
Cr10  O47   S    
Cr3   O3    S    
C172  O23   A    
C163  H3    S    
C138  H74   S    
C85   H33   S    
C65   C156  S    
C141  C154  A    
C29   C33   A    
C139  C152  A    
C101  C128  A    
C88   O52   S    
C5    C179  A    
C79   C90   A    
C164  H4    S    
C77   H23   S    
Cr1   O14   S    
C89   O54   S    
C107  H65   S    
C25   C60   S    
H86   O54   S    
C36   H24   S    
Cr12  O31   S    
C81   C86   A    
C18   H37   S    
C141  C145  A    
Cr5   O10   S    
C38   H26   S    
C91   C142  S    
C119  C128  A    
C93   O19   A    
C104  O16   A    
C130  C134  A    
C80   C83   A    
C12   H18   S    
C118  Cl2   S    
C25   C29   A    
C123  O25   A    
Cr2   O10   S    
C74   C137  A    
C27   C31   A    
C140  C144  A    
C28   C32   A    
Cr7   O17   S    
C19   H38   S    
C47   C64   A    
C17   C21   A    
C28   H47   S    
C111  H79   S    
C19   C23   A    
C42   O48   A    
C16   C20   A    
C57   C97   A    
C106  H64   S    
C172  O33   A    
C54   Cl7   S    
C36   C44   A    
C114  C150  S    
C37   C45   A    
C102  C107  A    
C40   O41   A    
C43   C61   A    
Cr2   O28   S    
C49   C62   A    
C51   C64   A    
C22   C58   S    
C49   H41   S    
C53   C58   A    
C171  O12   A    
C82   C85   A    
C75   C126  A    
C3    H7    S    
Cr3   O29   S    
C6    H13   S    
C123  C159  S    
C77   C82   A    
C49   C53   A    
C178  H6    S    
C128  H67   S    
C51   C55   A    
C84   H32   S    
C68   C98   A    
C169  O31   A    
Cr5   O12   S    
Cr6   O11   S    
C48   C52   A    
C46   C96   A    
Cr8   O45   S    
C35   C170  A    
C76   H34   S    
C157  C162  A    
C161  C165  A    
C179  H5    S    
C57   C92   A    
C67   O3    A    
C123  O29   A    
Cr11  O21   S    
C136  H73   S    
Cr6   O23   S    
C108  H75   S    
C69   C160  S    
C97   C98   A    
C85   C86   A    
C23   C59   S    
Cr8   O22   S    
Cr6   O38   S    
C162  H2    S    
C115  O21   A    
C40   O46   A    
C13   C57   A    
C101  C172  S    
C121  C137  S    
C105  H63   S    
C13   H57   S    
C174  C175  S    
C88   C140  S    
C81   C92   A    
C139  C143  A    
C104  C153  S    
C110  C114  A    
C145  C150  A    
C132  C136  A    
C166  H15   S    
C110  H77   S    
Cr3   O7    S    
Cr9   O19   S    
C50   C63   A    
Cr10  O20   S    
C6    C158  A    
C54   C59   A    
Cr12  O60   S    
C36   C58   A    
C52   C56   A    
C120  C129  A    
Cr6   O42   S    
C11   C33   A    
C121  O22   A    
C165  C174  A    
C23   C28   A    
C68   C94   A    
C116  C120  A    
C173  O35   A    
C65   O60   A    
C53   Cl6   S    
Cr12  O27   S    
C41   O47   A    
C169  O1    A    
C120  Cl4   S    
Cr8   O9    S    
C83   C84   A    
C8    C12   A    
C137  C170  A    
C129  H78   S    
C119  Cl3   S    
C55   Cl8   S    
C87   O49   D    
C42   O43   A    
C37   C59   A    
C158  C163  A    
Cr1   O1    S    
C73   O39   A    
Cr2   O6    S    
C156  C161  A    
C26   C30   A    
C29   H48   S    
C38   C60   A    
C1    O14   A    
C118  C127  A    
C144  H81   S    
C33   H52   S    
C17   H36   S    
C101  C106  A    
C105  C109  A    
C6    C180  A    
C130  C147  A    
C18   C22   A    
C107  C111  A    
C51   H43   S    
C34   C43   A    
C4    C178  A    
C7    H11   S    
C39   O40   A    
C97   H61   S    
C5    H9    S    
C8    C70   S    
C112  C147  S    
Cr12  O9    S    
C133  H70   S    
C83   H31   S    
Cr1   O40   S    
C35   C79   A    
C143  H80   S    
C109  H76   S    
Cr7   O43   S    
C146  C151  A    
C176  C180  A    
C96   H58   S    
C91   O55   D    
C117  C125  A    
C13   C159  A    
C66   C157  S    
C10   C72   S    
C138  C155  A    
C76   C159  A    
Cr8   O44   S    
C125  H45   S    
C75   H1    S    
C47   H30   S    
C39   O44   A    
C102  C173  S    
C15   C19   A    
C39   C64   S    
C124  C148  S    
C32   H51   S    
C166  C175  A    
C50   C54   A    
C40   C63   S    
C73   O8    A    
C160  C164  A    
C3    C7    A    
C112  C117  A    
C20   C25   A    
C72   O38   A    
C168  C177  A    
Cr11  O59   S    
C70   O5    A    
C162  C166  A    
C12   C17   A    
C91   O57   S    
C111  C116  A    
C168  H17   S    
C174  C178  A    
C161  H88   S    
C140  C153  A    
C37   H25   S    
C133  C138  A    
Cr4   O8    S    
C55   C60   A    
C16   H21   S    
C115  O17   A    
C41   C62   S    
C48   H40   S    
Cr9   O10   S    
Cr9   O24   S    
H85   O52   S    
C11   C73   S    
C132  H69   S    
C131  H68   S    
Cr4   O13   S    
C108  C112  A    
C74   H12   S    
C88   O51   D    
C143  C147  A    
C9    C14   A    
C136  C154  A    
C11   C16   A    
Cr3   O11   S    
C164  C168  A    
C134  C152  A    
C122  O24   A    
C124  O26   A    
C44   H28   S    
C77   C148  A    
Cr9   O46   S    
Cr10  O58   S    
Cr11  O48   S    
C4    C156  A    
C171  O32   A    
C71   O37   A    
C5    C157  A    
C14   H19   S    
C7    C160  A    
C2    H53   S    
C70   O36   A    
Cr10  O25   S    
C41   O42   A    
C9    C71   S    
C87   C139  S    
C21   C56   S    
C30   H49   S    
C46   C90   A    
C35   C95   A    
C131  C135  A    
C69   O4    A    
C8    C30   A    
Cr2   O2    S    
C135  H72   S    
C103  H62   S    
C26   H44   S    
C72   O7    A    
C65   O45   A    
C24   C68   A    
C130  H66   S    
C74   C78   A    
C67   O58   A    
Cr10  O11   S    
Cr12  O5    S    
C14   C18   A    
C95   C96   A    
C102  C129  A    
C99   C125  A    
C2    C46   A    
C95   H59   S    
Cr1   O36   S    
C100  C105  A    
C104  O20   A    
Cr5   O37   S    
C93   C154  S    
Cr7   O39   S    
C10   C15   A    
C117  Cl1   S    
Cr1   O9    S    
C4    H10   S    
C173  O34   A    
C1    C155  S    
H87   O57   S    
C115  C152  S    
Cr4   O30   S    
Cr3   O33   S    
C103  C108  A    
C142  C155  A    
Cr7   O34   S    
C75   C80   A    
C109  C113  A    
C100  C171  S    
C45   H29   S    
C167  H16   S    
C145  H82   S    
C92   C94   A    
C43   H27   S    
C170  H54   S    
H84   O50   S    
C127  H56   S    
C113  C149  S    
Cr5   O41   S    
C24   C148  A    
C27   H46   S    
C78   C79   A    
C175  C179  A    
C44   C62   A    
C134  H71   S    
C69   O59   A    
C45   C63   A    
Cr11  O13   S    
C31   H50   S    
C71   O6    A    
C122  C126  S    
C24   H55   S    
C163  C167  A    
Cr2   O32   S    
C144  C149  A    
C10   C32   A    
Cr4   O4    S    
C42   C61   S    
C38   C47   A    
C2    C126  A    
C89   O53   D    
C176  C177  S    
C66   O56   A    
C52   Cl5   S    
Cr11  O26   S    
Cr4   O35   S    
C106  C110  A    
C98   H60   S    
C93   O15   A    
C114  C119  A    
C50   H42   S    
C76   C81   A    
C99   C169  S    
C121  O27   A    
C20   H39   S    
C1    O18   A    
C122  O28   A    
C86   H35   S    
C135  C153  A    
C22   C27   A    
C124  O30   A    
C3    C177  A    
Cr5   O15   S    
Cr6   O16   S    
C48   C61   A    
Cr9   O56   S    
Cr7   O13   S    
C89   C141  S    
Cr8   O18   S    
C67   C158  S    
C116  C151  S    
C80   C90   A    
C87   O50   S    
C131  C149  A    
C9    C31   A    
C113  C118  A    
C78   C84   A    
C165  H14   S    
C66   O2    A    
C15   H20   S    
C180  H8    S    
C146  H83   S    
C34   H22   S    
C167  C176  A    
