data_mof_unit_43828.cif
_audit_creation_date              2012-12-10T20:00:03-0500
_audit_creation_method            fapswitch 2.2
_symmetry_space_group_name_H-M    P1
_symmetry_Int_Tables_number       1
_space_group_crystal_system       triclinic
_cell_length_a                    14.9152
_cell_length_b                    14.42177
_cell_length_c                    8.905972
_cell_angle_alpha                 89.999647
_cell_angle_beta                  93.110007
_cell_angle_gamma                 90.000072
_cell_volume                      1912.88506186

loop_
_atom_site_label
_atom_site_type_symbol
_atom_type_description
_atom_site_fract_x
_atom_site_fract_y
_atom_site_fract_z
_atom_type_partial_charge
C1    C     C_R   0.328095 0.499746 0.499381 0.836063
C2    C     C_R   0.420158 0.896944 0.490936 0.390646
C3    C     C_R   0.499774 0.499996 0.219113 0.916594
C4    C     C_R   0.500226 0.499996 0.780887 0.916593
C5    C     C_R   0.499999 0.053616 0.500001 -0.080626
C6    C     C_R   0.499999 0.947947 0.500001 -0.073006
C7    C     C_1   0.499914 0.500009 0.065491 -0.214216
C8    C     C_1   0.500086 0.500008 0.934509 -0.214216
C9    C     C_R   0.088376 0.554656 0.407064 -0.163541
C10   C     C_R   0.901834 0.428503 0.411127 -0.177112
C11   C     C_R   0.911624 0.554656 0.592935 -0.163541
C12   C     C_R   0.671905 0.499746 0.500618 0.836063
C13   C     C_R   0.098166 0.428502 0.588872 -0.177112
C14   C     C_R   0.180862 0.558168 0.407508 -0.235790
C15   C     C_R   0.809188 0.432397 0.409979 -0.197464
C16   C     C_R   0.819138 0.558168 0.592491 -0.235789
C17   C     C_R   0.190812 0.432396 0.590020 -0.197465
C18   C     C_R   0.231988 0.497802 0.500171 -0.006011
C19   C     C_R   0.768012 0.497802 0.499828 -0.006010
C20   C     C_R   0.047768 0.490076 0.497969 0.103019
C21   C     C_R   0.952232 0.490076 0.502031 0.103019
C22   C     C_3   0.369873 0.250270 0.303994 -0.296050
C23   C     C_R   0.441709 0.203085 0.403498 0.080056
C24   C     C_3   0.276723 0.234738 0.363120 -0.812464
C25   C     C_3   0.661895 0.759582 0.614943 -0.289750
C26   C     C_3   0.644957 0.717107 0.768699 -0.796071
C27   C     C_3   0.630126 0.250269 0.696007 -0.296049
C28   C     C_3   0.723276 0.234737 0.636881 -0.812465
C29   C     C_3   0.338106 0.759583 0.385054 -0.289761
C30   C     C_3   0.355046 0.717109 0.231299 -0.796065
C31   C     C_3   0.446173 0.037062 0.164255 -0.355084
C32   C     C_3   0.692377 0.935390 0.359827 -0.352658
C33   C     C_3   0.553822 0.037059 0.835746 -0.355075
C34   C     C_R   0.577630 0.799256 0.535779 0.076987
C35   C     C_3   0.307615 0.935371 0.640171 -0.352656
C36   C     C_R   0.558290 0.203085 0.596502 0.080055
C37   C     C_R   0.422370 0.799256 0.464221 0.076986
C38   C     C_R   0.446076 0.104614 0.394733 0.439804
C39   C     C_R   0.579842 0.896945 0.509066 0.390641
C40   C     C_R   0.553922 0.104614 0.605270 0.439806
H1    H     H_    0.048421 0.601856 0.336311 0.137151
H2    H     H_    0.226322 0.276221 0.295811 0.233127
H3    H     H_    0.257285 0.160564 0.354604 0.292889
H4    H     H_    0.380189 0.324654 0.293879 0.248255
H5    H     H_    0.371072 0.223526 0.187147 0.194055
H6    H     H_    0.578800 0.738389 0.809006 0.257302
H7    H     H_    0.649465 0.640699 0.764896 0.259680
H8    H     H_    0.697411 0.740383 0.853856 0.210900
H9    H     H_    0.698972 0.715304 0.539435 0.201084
H10   H     H_    0.712085 0.814984 0.640336 0.225666
H11   H     H_    0.724271 0.256603 0.517481 0.257044
H12   H     H_    0.934184 0.378867 0.340461 0.137384
H13   H     H_    0.773677 0.276220 0.704191 0.233127
H14   H     H_    0.742714 0.160563 0.645398 0.292889
H15   H     H_    0.619811 0.324653 0.706121 0.248256
H16   H     H_    0.628927 0.223525 0.812854 0.194055
H17   H     H_    0.421204 0.738389 0.190997 0.257303
H18   H     H_    0.350536 0.640701 0.235101 0.259678
H19   H     H_    0.302594 0.740387 0.146139 0.210899
H20   H     H_    0.301028 0.715304 0.460560 0.201084
H21   H     H_    0.287917 0.814986 0.359658 0.225665
H22   H     H_    0.489508 0.976131 0.191443 0.159915
H23   H     H_    0.951579 0.601856 0.663688 0.137151
H24   H     H_    0.487728 0.096966 0.130464 0.132078
H25   H     H_    0.400909 0.018112 0.066112 0.189258
H26   H     H_    0.646135 0.970013 0.275204 0.150452
H27   H     H_    0.702756 0.861562 0.328570 0.152553
H28   H     H_    0.758301 0.970819 0.357803 0.200887
H29   H     H_    0.510487 0.976130 0.808554 0.159915
H30   H     H_    0.512269 0.096963 0.869539 0.132080
H31   H     H_    0.599085 0.018106 0.933890 0.189255
H32   H     H_    0.353858 0.969973 0.724813 0.150445
H33   H     H_    0.297222 0.861540 0.671396 0.152557
H34   H     H_    0.065815 0.378866 0.659538 0.137384
H35   H     H_    0.241696 0.970810 0.642201 0.200887
H36   H     H_    0.211793 0.606282 0.333435 0.143847
H37   H     H_    0.769692 0.385363 0.338260 0.143157
H38   H     H_    0.788207 0.606282 0.666563 0.143848
H39   H     H_    0.230307 0.385362 0.661739 0.143157
H40   H     H_    0.275729 0.256603 0.482521 0.257045
N1    N     N_R   0.500000 0.252470 0.500000 -0.166147
N2    N     N_R   0.500000 0.747530 0.500000 -0.124587
O1    O     O_R   0.369060 0.579480 0.500010 -0.617000
O2    O     O_3   0.660762 0.943687 0.505451 -0.556548
O3    O     O_3   0.606814 0.058927 0.714392 -0.541617
O4    O     O_3   0.339238 0.943686 0.494555 -0.556547
O5    O     O_R   0.630940 0.420520 0.499990 -0.621630
O6    O     O_R   0.630940 0.579480 0.499990 -0.617001
O7    O     O_R   0.369060 0.420520 0.500010 -0.621630
O8    O     O_R   0.500000 0.579460 0.285340 -0.603800
O9    O     O_R   0.500000 0.420540 0.714660 -0.635679
O10   O     O_R   0.500000 0.579460 0.714660 -0.603799
O11   O     O_R   0.500000 0.420540 0.285340 -0.635679
O12   O     O_3   0.393184 0.058928 0.285612 -0.541616
Zn1   Zn    Zn3+2 0.500000 0.606140 0.500000 0.935237
Zn2   Zn    Zn3+2 0.500000 0.393860 0.500000 0.914390

loop_
_geom_bond_atom_site_label_1
_geom_bond_atom_site_label_2
_ccdc_geom_bond_type
C24   H2    S    
C14   C18   A    
C4    C8    S    
C10   H12   S    
C7    C8    T    
C15   C19   A    
C35   H35   S    
C1    C18   S    
C3    O8    A    
C26   H6    S    
C39   O2    S    
C3    C7    S    
C10   C15   A    
C5    C6    S    
C28   H11   S    
C27   H15   S    
C30   H17   S    
C17   H39   S    
C33   O3    S    
C25   H10   S    
O9    Zn2   S    
C24   H40   S    
C22   H4    S    
C13   C20   A    
C26   H8    S    
C25   C34   S    
C32   H28   S    
C4    O9    A    
O6    Zn1   S    
C5    C38   A    
O5    Zn2   S    
C31   H22   S    
C2    C6    A    
C10   C21   A    
C32   O2    S    
C29   H21   S    
C12   O6    A    
C34   C39   A    
O8    Zn1   S    
N1    Zn2   S    
C28   H14   S    
C27   H16   S    
C25   C26   S    
C11   C21   A    
O10   Zn1   S    
C14   H36   S    
C40   O3    S    
C9    C14   A    
C29   C30   S    
C11   C16   A    
C9    C20   A    
C29   H20   S    
C36   C40   A    
C36   N1    A    
O1    Zn1   S    
C30   H19   S    
C38   O12   S    
C17   C18   A    
C3    O11   A    
C20   C21   S    
C33   H30   S    
C32   H27   S    
C26   H7    S    
C35   H32   S    
O11   Zn2   S    
C22   C24   S    
C37   N2    A    
C23   C38   A    
C32   H26   S    
C31   H25   S    
C35   H33   S    
C1    O7    A    
N2    Zn1   S    
C23   N1    A    
C12   O5    A    
C22   C23   S    
C31   H24   S    
C28   H13   S    
C33   H29   S    
C27   C36   S    
C1    O1    A    
C31   O12   S    
C9    H1    S    
C13   C17   A    
O7    Zn2   S    
C2    C37   A    
C15   H37   S    
C16   C19   A    
C30   H18   S    
C12   C19   S    
C35   O4    S    
C2    O4    S    
C16   H38   S    
C25   H9    S    
C33   H31   S    
C22   H5    S    
C13   H34   S    
C5    C40   A    
C29   C37   S    
C27   C28   S    
C24   H3    S    
C6    C39   A    
C34   N2    A    
C11   H23   S    
C4    O10   A    
