data_mof_unit_9622.cif
_audit_creation_date              2012-12-10T17:46:30-0500
_audit_creation_method            fapswitch 2.2
_symmetry_space_group_name_H-M    P1
_symmetry_Int_Tables_number       1
_space_group_crystal_system       triclinic
_cell_length_a                    20.873173
_cell_length_b                    22.146005
_cell_length_c                    14.932731
_cell_angle_alpha                 89.99915
_cell_angle_beta                  131.174728
_cell_angle_gamma                 90.002641
_cell_volume                      5195.74851265

loop_
_atom_site_label
_atom_site_type_symbol
_atom_type_description
_atom_site_fract_x
_atom_site_fract_y
_atom_site_fract_z
_atom_type_partial_charge
C1    C     C_R   0.602131 0.913231 0.630922 0.794354
C2    C     C_R   0.397160 0.086233 0.368352 0.806921
C3    C     C_R   0.396825 0.913922 0.367921 0.797254
C4    C     C_R   0.602168 0.086531 0.631264 0.797321
C5    C     C_R   0.103164 0.413915 0.632069 0.797415
C6    C     C_R   0.897834 0.586530 0.368736 0.797339
C7    C     C_R   0.897862 0.413233 0.369071 0.794418
C8    C     C_R   0.102845 0.586232 0.631653 0.806903
C9    C     C_R   0.300465 0.794450 0.898645 -0.251906
C10   C     C_R   0.660341 0.226723 0.063049 -0.263294
C11   C     C_R   0.737503 0.809860 0.137015 -0.244669
C12   C     C_R   0.320568 0.217267 0.924016 -0.257407
C13   C     C_R   0.762461 0.309887 0.862949 -0.244658
C14   C     C_R   0.179435 0.717254 0.075987 -0.257389
C15   C     C_R   0.199595 0.294468 0.101434 -0.251882
C16   C     C_R   0.839560 0.726676 0.936846 -0.263308
C17   C     C_R   0.316208 0.978862 0.649971 -0.100649
C18   C     C_R   0.685226 0.975781 0.354846 -0.100257
C19   C     C_R   0.814771 0.475794 0.645160 -0.100234
C20   C     C_R   0.183794 0.478875 0.350034 -0.100680
C21   C     C_R   0.347963 0.996620 0.594569 0.602618
C22   C     C_R   0.652128 0.993619 0.408337 0.600903
C23   C     C_R   0.847870 0.493626 0.591667 0.600915
C24   C     C_R   0.152038 0.496628 0.405434 0.602621
C25   C     C_R   0.491368 0.998493 0.781011 0.512152
C26   C     C_R   0.509937 0.997301 0.219360 0.511337
C27   C     C_R   0.990064 0.497306 0.780640 0.511341
C28   C     C_R   0.008635 0.498497 0.218990 0.512146
C29   C     C_R   0.463485 0.983765 0.844431 -0.126058
C30   C     C_R   0.539873 0.983294 0.158549 -0.127477
C31   C     C_R   0.960129 0.483301 0.841454 -0.127471
C32   C     C_R   0.036519 0.483773 0.155573 -0.126047
C33   C     C_R   0.374958 0.973742 0.776103 -0.011626
C34   C     C_R   0.628839 0.975394 0.228460 -0.011260
C35   C     C_R   0.871163 0.475401 0.771546 -0.011266
C36   C     C_R   0.125046 0.473758 0.223902 -0.011633
C37   C     C_R   0.519193 0.980047 0.973382 0.120493
C38   C     C_R   0.485184 0.978312 0.030331 0.125248
C39   C     C_R   0.014820 0.478322 0.969673 0.125231
C40   C     C_R   0.980812 0.480053 0.026623 0.120486
C41   C     C_R   0.400535 0.960114 0.958871 -0.161112
C42   C     C_R   0.606090 0.967817 0.046881 -0.154014
C43   C     C_R   0.893916 0.467814 0.953126 -0.154015
C44   C     C_R   0.099471 0.460134 0.041135 -0.161085
C45   C     C_R   0.346461 0.958853 0.836271 -0.195163
C46   C     C_R   0.659745 0.966841 0.169671 -0.199146
C47   C     C_R   0.840259 0.466838 0.830337 -0.199149
C48   C     C_R   0.153546 0.458878 0.163735 -0.195159
C49   C     C_R   0.652249 0.141579 0.696775 -0.177981
C50   C     C_R   0.337404 0.863767 0.291850 -0.195119
C51   C     C_R   0.341674 0.138845 0.298489 -0.170573
C52   C     C_R   0.662813 0.863745 0.707494 -0.176860
C53   C     C_R   0.158345 0.638840 0.701532 -0.170582
C54   C     C_R   0.837159 0.363756 0.292478 -0.176845
C55   C     C_R   0.847758 0.641574 0.303227 -0.177937
C56   C     C_R   0.162601 0.363774 0.708166 -0.195016
C57   C     C_R   0.716312 0.236210 0.706271 0.098745
C58   C     C_R   0.213221 0.800548 0.211850 0.097260
C59   C     C_R   0.270436 0.231615 0.281460 0.100567
C60   C     C_R   0.779945 0.797634 0.769711 0.102645
C61   C     C_R   0.229595 0.731616 0.718585 0.100566
C62   C     C_R   0.719981 0.297675 0.230208 0.102636
C63   C     C_R   0.783696 0.736197 0.293731 0.098733
C64   C     C_R   0.286763 0.300549 0.788121 0.097244
C65   C     C_R   0.671598 0.182560 0.646441 -0.304917
C66   C     C_R   0.268059 0.849199 0.283714 -0.289599
C67   C     C_R   0.323804 0.181753 0.348584 -0.303001
C68   C     C_R   0.721342 0.843939 0.696803 -0.310819
C69   C     C_R   0.176223 0.681753 0.651449 -0.303001
C70   C     C_R   0.778610 0.343965 0.303145 -0.310838
C71   C     C_R   0.828444 0.682563 0.353585 -0.304968
C72   C     C_R   0.231921 0.349194 0.716253 -0.289607
C73   C     C_R   0.675927 0.155668 0.806817 0.449794
C74   C     C_R   0.350486 0.830245 0.225079 0.395801
C75   C     C_R   0.307780 0.147390 0.181567 0.442788
C76   C     C_R   0.663991 0.836710 0.793701 0.391679
C77   C     C_R   0.192243 0.647379 0.818459 0.442804
C78   C     C_R   0.835971 0.336722 0.206263 0.391711
C79   C     C_R   0.824040 0.655648 0.193156 0.449812
C80   C     C_R   0.149569 0.330283 0.775020 0.395717
C81   C     C_R   0.698766 0.215155 0.850569 -0.055230
C82   C     C_R   0.287423 0.790457 0.136245 -0.027937
C83   C     C_R   0.275371 0.204107 0.126931 -0.044401
C84   C     C_R   0.733413 0.800234 0.883263 -0.049590
C85   C     C_R   0.224664 0.704093 0.873112 -0.044384
C86   C     C_R   0.766530 0.300260 0.116679 -0.049624
C87   C     C_R   0.801189 0.715131 0.149385 -0.055216
C88   C     C_R   0.212624 0.290487 0.863823 -0.027935
C89   C     C_R   0.725493 0.254344 0.805542 0.053805
C90   C     C_R   0.226413 0.769069 0.142061 0.051364
C91   C     C_R   0.248228 0.243806 0.170466 0.053482
C92   C     C_R   0.785287 0.774695 0.863407 0.070637
C93   C     C_R   0.251814 0.743796 0.829590 0.053479
C94   C     C_R   0.714637 0.274732 0.136513 0.070641
C95   C     C_R   0.774480 0.754323 0.194429 0.053821
C96   C     C_R   0.273599 0.269085 0.857954 0.051354
C97   C     C_R   0.703102 0.234298 0.945454 0.072748
C98   C     C_R   0.282776 0.771705 0.041060 0.090082
C99   C     C_R   0.267863 0.221329 0.028722 0.073143
C100  C     C_R   0.748636 0.785814 0.988445 0.084184
C101  C     C_R   0.232174 0.721308 0.971326 0.073131
C102  C     C_R   0.751305 0.285843 0.011496 0.084131
C103  C     C_R   0.796832 0.734266 0.054478 0.072738
C104  C     C_R   0.217278 0.271732 0.959012 0.090078
C105  C     C_R   0.318179 0.806703 0.004276 -0.170219
C106  C     C_R   0.657001 0.205510 0.972005 -0.149805
C107  C     C_R   0.722315 0.824214 0.033925 -0.152439
C108  C     C_R   0.316596 0.193238 0.006148 -0.154810
C109  C     C_R   0.777636 0.324243 0.966027 -0.152432
C110  C     C_R   0.183422 0.693220 0.993873 -0.154802
C111  C     C_R   0.181887 0.306729 0.995810 -0.170254
C112  C     C_R   0.842910 0.705469 0.027902 -0.149818
Cu1   Cu    Cu3+1 0.526640 0.000000 0.436960 0.997616
Cu2   Cu    Cu3+1 0.473360 1.000000 0.563040 0.998887
Cu3   Cu    Cu3+1 0.026640 0.500000 0.436960 0.998896
Cu4   Cu    Cu3+1 0.973360 0.500000 0.563040 0.997642
H1    H     H_    0.324528 0.825925 0.871618 0.145352
H2    H     H_    0.620471 0.204556 0.075315 0.161863
H3    H     H_    0.719063 0.842694 0.169942 0.139767
H4    H     H_    0.362098 0.194965 0.914938 0.152157
H5    H     H_    0.780914 0.342720 0.830035 0.139760
H6    H     H_    0.137886 0.694956 0.085040 0.152169
H7    H     H_    0.175544 0.325942 0.128474 0.145339
H8    H     H_    0.879406 0.704496 0.924552 0.161868
H9    H     H_    0.377671 0.937893 0.995676 0.119543
H10   H     H_    0.632305 0.949026 0.012550 0.125568
H11   H     H_    0.867704 0.449017 0.987459 0.125562
H12   H     H_    0.122334 0.437912 0.004333 0.119544
H13   H     H_    0.258486 0.874945 0.335592 0.182838
H14   H     H_    0.653178 0.171804 0.561750 0.167785
H15   H     H_    0.720141 0.863678 0.629422 0.178459
H16   H     H_    0.350749 0.175536 0.439128 0.161609
H17   H     H_    0.779811 0.363709 0.370521 0.178508
H18   H     H_    0.149280 0.675540 0.560906 0.161606
H19   H     H_    0.241469 0.374923 0.664327 0.182834
H20   H     H_    0.846904 0.671821 0.438306 0.167780
H21   H     H_    0.353127 0.847386 0.050015 0.166965
H22   H     H_    0.613233 0.169058 0.917469 0.210468
H23   H     H_    0.694573 0.867601 0.994400 0.151413
H24   H     H_    0.359232 0.156207 0.059757 0.218571
H25   H     H_    0.805379 0.367631 0.005557 0.151393
H26   H     H_    0.140779 0.656191 0.940250 0.218575
H27   H     H_    0.146949 0.347415 0.950083 0.166919
H28   H     H_    0.886670 0.669014 0.082425 0.210505
H29   H     H_    0.281730 0.945394 0.790546 0.131388
H30   H     H_    0.726258 0.959097 0.216725 0.130541
H31   H     H_    0.773747 0.459082 0.783282 0.130542
H32   H     H_    0.218280 0.445430 0.209460 0.131392
N1    N     N_R   0.433280 1.000000 0.657760 -0.265035
N2    N     N_R   0.566720 1.000000 0.342240 -0.264835
N3    N     N_R   0.933280 0.500000 0.657760 -0.264831
N4    N     N_R   0.066720 0.500000 0.342240 -0.265034
O1    O     O_R   0.600040 0.935040 0.546740 -0.556504
O2    O     O_R   0.399960 0.064960 0.453260 -0.555703
O3    O     O_R   0.399960 0.935040 0.453260 -0.558549
O4    O     O_R   0.600040 0.064960 0.546740 -0.554209
O5    O     O_R   0.100040 0.435040 0.546740 -0.558575
O6    O     O_R   0.899960 0.564960 0.453260 -0.554230
O7    O     O_R   0.899960 0.435040 0.453260 -0.556497
O8    O     O_R   0.100040 0.564960 0.546740 -0.555685
O9    O     O_R   0.555010 0.935070 0.653220 -0.561937
O10   O     O_R   0.444990 0.064930 0.346780 -0.532194
O11   O     O_R   0.444990 0.935070 0.346780 -0.565293
O12   O     O_R   0.555010 0.064930 0.653220 -0.532828
O13   O     O_R   0.055010 0.435070 0.653220 -0.565312
O14   O     O_R   0.944990 0.564930 0.346780 -0.532856
O15   O     O_R   0.944990 0.435070 0.346780 -0.561925
O16   O     O_R   0.055010 0.564930 0.653220 -0.532204
O17   O     O_3   0.428641 0.831899 0.254346 -0.591700
C113  C     C_3   0.487700 0.796909 0.357910 -0.297914
H33   H     H_    0.493163 0.751473 0.332093 0.170627
H34   H     H_    0.472676 0.791443 0.416688 0.128056
H35   H     H_    0.550288 0.819782 0.412637 0.200776
O18   O     O_3   0.690293 0.109736 0.880524 -0.555837
C114  C     C_3   0.778348 0.095989 0.960282 -0.363405
H36   H     H_    0.819287 0.136652 0.006560 0.165859
H37   H     H_    0.795420 0.072108 0.912967 0.152153
H38   H     H_    0.793588 0.065873 0.031271 0.179226
O19   O     O_3   0.594394 0.842289 0.785767 -0.596141
C115  C     C_3   0.544328 0.789592 0.733709 -0.308279
H39   H     H_    0.582340 0.747109 0.767365 0.150800
H40   H     H_    0.502497 0.791927 0.635276 0.164732
H41   H     H_    0.504127 0.787159 0.757439 0.179244
O20   O     O_3   0.294816 0.098212 0.114690 -0.571772
C116  C     C_3   0.209057 0.079717 0.045271 -0.376417
H42   H     H_    0.163790 0.115913 0.983453 0.178404
H43   H     H_    0.195726 0.064768 0.102806 0.159169
H44   H     H_    0.196757 0.040826 0.989196 0.174365
O21   O     O_3   0.905566 0.342302 0.214190 -0.596141
C117  C     C_3   0.955584 0.289582 0.266138 -0.308314
H45   H     H_    0.917533 0.247113 0.232342 0.150819
H46   H     H_    0.997390 0.291852 0.364574 0.164745
H47   H     H_    0.995811 0.287188 0.242448 0.179252
O22   O     O_3   0.205206 0.598198 0.885327 -0.571780
C118  C     C_3   0.290959 0.579698 0.954720 -0.376420
H48   H     H_    0.336238 0.615891 0.016542 0.178425
H49   H     H_    0.304273 0.564753 0.897165 0.159174
H50   H     H_    0.303260 0.540805 0.010789 0.174357
O23   O     O_3   0.071406 0.331901 0.745728 -0.591600
C119  C     C_3   0.012466 0.296710 0.642423 -0.298436
H51   H     H_    0.006800 0.251446 0.668571 0.170857
H52   H     H_    0.027774 0.290812 0.584040 0.128167
H53   H     H_    0.949902 0.319653 0.587175 0.200714
O24   O     O_3   0.809645 0.609707 0.119447 -0.555914
C120  C     C_3   0.721593 0.595948 0.039755 -0.363501
H54   H     H_    0.680650 0.636602 0.993440 0.165929
H55   H     H_    0.704551 0.572101 0.087137 0.152188
H56   H     H_    0.706331 0.565796 0.968794 0.179202
C121  C     C_3   0.261641 0.772871 0.673720 -0.383176
C122  C     C_3   0.243980 0.752369 0.561080 -0.374474
C123  C     C_3   0.292942 0.791628 0.539877 -0.858681
H57   H     H_    0.274302 0.839756 0.529620 0.255467
H58   H     H_    0.362016 0.787725 0.615839 0.247325
H59   H     H_    0.280518 0.776051 0.459211 0.251096
H60   H     H_    0.265260 0.704991 0.571547 0.212657
H61   H     H_    0.174790 0.755686 0.482659 0.222498
H62   H     H_    0.233584 0.818379 0.657712 0.185517
H63   H     H_    0.331923 0.776431 0.745691 0.200105
C124  C     C_3   0.663319 0.275483 0.253304 -0.414330
C125  C     C_3   0.573023 0.300793 0.161830 -0.346551
C126  C     C_3   0.514750 0.274650 0.180175 -0.860358
H64   H     H_    0.506685 0.225316 0.162389 0.256667
H65   H     H_    0.541708 0.282518 0.272714 0.257122
H66   H     H_    0.451450 0.296771 0.118123 0.255417
H67   H     H_    0.574953 0.350758 0.170371 0.223356
H68   H     H_    0.546294 0.289930 0.070653 0.217109
H69   H     H_    0.663091 0.225348 0.255186 0.193102
H70   H     H_    0.688766 0.290584 0.342198 0.209379
C127  C     C_3   0.744516 0.773288 0.332783 -0.383110
C128  C     C_3   0.733892 0.739760 0.412328 -0.362171
C129  C     C_3   0.673199 0.773585 0.417925 -0.893187
H71   H     H_    0.695704 0.820456 0.449842 0.254637
H72   H     H_    0.608887 0.775156 0.327996 0.271874
H73   H     H_    0.668926 0.749822 0.479325 0.236585
H74   H     H_    0.706809 0.694110 0.375510 0.219834
H75   H     H_    0.796638 0.735198 0.503727 0.210807
H76   H     H_    0.783341 0.814416 0.378914 0.184725
H77   H     H_    0.679689 0.787196 0.251503 0.209392
C130  C     C_3   0.361256 0.282940 0.796285 -0.407485
C131  C     C_3   0.396124 0.332263 0.766290 -0.368906
C132  C     C_3   0.479308 0.311564 0.799327 -0.847170
H78   H     H_    0.528959 0.305078 0.896761 0.256981
H79   H     H_    0.469631 0.268586 0.753406 0.251726
H80   H     H_    0.502942 0.345964 0.773554 0.247879
H81   H     H_    0.349884 0.341689 0.669927 0.231758
H82   H     H_    0.408067 0.374361 0.815836 0.225984
H83   H     H_    0.415538 0.270023 0.889460 0.204610
H84   H     H_    0.343070 0.242622 0.739591 0.191495
C133  C     C_3   0.755473 0.273327 0.667217 -0.383124
C134  C     C_3   0.766082 0.239848 0.587623 -0.362303
C135  C     C_3   0.826701 0.273752 0.581956 -0.892958
H85   H     H_    0.804097 0.320599 0.549962 0.254683
H86   H     H_    0.891009 0.275401 0.671878 0.271833
H87   H     H_    0.831019 0.250002 0.520594 0.236566
H88   H     H_    0.793222 0.194208 0.624432 0.219816
H89   H     H_    0.703322 0.235263 0.496247 0.210819
H90   H     H_    0.716642 0.314455 0.621125 0.184740
H91   H     H_    0.820304 0.287233 0.748495 0.209368
C136  C     C_3   0.138698 0.782960 0.203635 -0.407505
C137  C     C_3   0.103794 0.832316 0.233511 -0.368862
C138  C     C_3   0.020587 0.811639 0.200436 -0.847102
H92   H     H_    0.970985 0.805059 0.103021 0.256959
H93   H     H_    0.030266 0.768715 0.246496 0.251740
H94   H     H_    0.996885 0.846095 0.226019 0.247848
H95   H     H_    0.150007 0.841777 0.329863 0.231712
H96   H     H_    0.091873 0.874390 0.183920 0.225981
H97   H     H_    0.084439 0.770013 0.110468 0.204580
H98   H     H_    0.156868 0.742665 0.260377 0.191513
C139  C     C_3   0.238372 0.272852 0.326318 -0.383173
C140  C     C_3   0.255998 0.252320 0.438919 -0.374464
C141  C     C_3   0.206954 0.291519 0.460052 -0.858731
H99   H     H_    0.225486 0.339670 0.470220 0.255476
H100  H     H_    0.137890 0.287531 0.384097 0.247279
H101  H     H_    0.219409 0.275950 0.540748 0.251095
H102  H     H_    0.234759 0.204928 0.428436 0.212661
H103  H     H_    0.325176 0.255667 0.517374 0.222527
H104  H     H_    0.266436 0.318364 0.342373 0.185494
H105  H     H_    0.168092 0.276415 0.254322 0.200126
C142  C     C_3   0.836568 0.775415 0.746566 -0.414349
C143  C     C_3   0.926898 0.800674 0.838047 -0.346518
C144  C     C_3   0.985115 0.774522 0.819610 -0.860433
H106  H     H_    0.993135 0.725181 0.837324 0.256664
H107  H     H_    0.958135 0.782418 0.727067 0.257122
H108  H     H_    0.048439 0.796613 0.881666 0.255427
H109  H     H_    0.925026 0.850642 0.829594 0.223355
H110  H     H_    0.953642 0.789775 0.929216 0.217080
H111  H     H_    0.836737 0.725280 0.744630 0.193104
H112  H     H_    0.811124 0.790533 0.657682 0.209386
O25   O     O_3   0.430939 0.024755 0.156144 -0.552441
C145  C     C_3   0.368713 0.984312 0.131627 -0.132754
H113  H     H_    0.348521 0.996718 0.181238 0.212986
H114  H     H_    0.388231 0.936240 0.148607 0.131529
H115  H     H_    0.310611 0.988786 0.036675 0.135739
O26   O     O_3   0.568761 0.028131 0.841430 -0.545971
C146  C     C_3   0.632825 0.989590 0.866354 -0.124119
H116  H     H_    0.651335 0.001455 0.814508 0.200666
H117  H     H_    0.616488 0.941388 0.855285 0.154738
H118  H     H_    0.691754 0.996304 0.959834 0.123818
O27   O     O_3   0.931247 0.528137 0.158575 -0.546017
C147  C     C_3   0.867176 0.489596 0.133639 -0.124152
H119  H     H_    0.848667 0.501454 0.185487 0.200697
H120  H     H_    0.883507 0.441394 0.144707 0.154747
H121  H     H_    0.808250 0.496312 0.040158 0.123894
O28   O     O_3   0.069066 0.524759 0.843853 -0.552451
C148  C     C_3   0.131284 0.484314 0.868367 -0.132763
H122  H     H_    0.151475 0.496716 0.818752 0.212991
H123  H     H_    0.111759 0.436243 0.851390 0.131551
H124  H     H_    0.189389 0.488791 0.963317 0.135752
O29   O     O_3   0.705481 0.007609 0.527621 -0.559973
C149  C     C_3   0.736600 0.066844 0.542440 -0.347542
H125  H     H_    0.770822 0.081472 0.635178 0.184382
H126  H     H_    0.684336 0.099675 0.481454 0.161979
H127  H     H_    0.782408 0.068678 0.527993 0.144863
O30   O     O_3   0.293786 0.016823 0.478887 -0.566300
C150  C     C_3   0.277572 0.078647 0.481079 -0.349614
H128  H     H_    0.237348 0.096659 0.389203 0.187011
H129  H     H_    0.337369 0.105487 0.539219 0.172393
H130  H     H_    0.242730 0.085528 0.513031 0.138834
O31   O     O_3   0.206213 0.516840 0.521113 -0.566302
C151  C     C_3   0.222427 0.578663 0.518911 -0.349646
H131  H     H_    0.262642 0.596682 0.610781 0.187022
H132  H     H_    0.162631 0.605498 0.460765 0.172399
H133  H     H_    0.257277 0.585544 0.486971 0.138854
O32   O     O_3   0.794516 0.507624 0.472389 -0.559990
C152  C     C_3   0.763440 0.566868 0.457605 -0.347540
H134  H     H_    0.729191 0.581492 0.364858 0.184367
H135  H     H_    0.815732 0.599688 0.518572 0.162031
H136  H     H_    0.717669 0.568725 0.472117 0.144851
C153  C     C_3   0.221332 0.966277 0.580280 -0.395260
C154  C     C_3   0.158409 0.965242 0.443563 -0.285760
C155  C     C_3   0.071972 0.941216 0.394102 -0.929371
H137  H     H_    0.077415 0.893213 0.419944 0.264957
H138  H     H_    0.047266 0.968227 0.428420 0.257521
H139  H     H_    0.025945 0.944930 0.295639 0.247704
H140  H     H_    0.146888 0.011311 0.407169 0.242105
H141  H     H_    0.183317 0.936370 0.411816 0.230256
H142  H     H_    0.217445 0.920636 0.607047 0.195928
H143  H     H_    0.197877 0.999724 0.608467 0.195437
C156  C     C_3   0.779161 0.957905 0.428630 -0.392060
C157  C     C_3   0.829296 0.936610 0.557776 -0.287422
C158  C     C_3   0.912872 0.906350 0.607734 -0.919297
H144  H     H_    0.900453 0.863284 0.560645 0.255760
H145  H     H_    0.950565 0.936702 0.598423 0.257811
H146  H     H_    0.951090 0.896538 0.703646 0.254944
H147  H     H_    0.846758 0.975350 0.616899 0.249392
H148  H     H_    0.790803 0.904093 0.561751 0.222755
H149  H     H_    0.780757 0.918806 0.383834 0.196937
H150  H     H_    0.813566 0.995873 0.427762 0.186301
C159  C     C_3   0.720832 0.457925 0.571385 -0.392095
C160  C     C_3   0.670644 0.436700 0.442183 -0.287326
C161  C     C_3   0.587099 0.406391 0.392251 -0.919333
H151  H     H_    0.599563 0.363283 0.439249 0.255771
H152  H     H_    0.549441 0.436680 0.401720 0.257836
H153  H     H_    0.548829 0.396649 0.296303 0.254932
H154  H     H_    0.653144 0.475483 0.383126 0.249282
H155  H     H_    0.709115 0.404233 0.438081 0.222839
H156  H     H_    0.719244 0.418797 0.616135 0.196951
H157  H     H_    0.686460 0.495876 0.572356 0.186292
C162  C     C_3   0.278673 0.466302 0.419732 -0.395217
C163  C     C_3   0.341578 0.465239 0.556448 -0.285730
C164  C     C_3   0.428035 0.441259 0.605920 -0.929410
H158  H     H_    0.422601 0.393289 0.579924 0.264930
H159  H     H_    0.452787 0.468357 0.571753 0.257504
H160  H     H_    0.474026 0.444894 0.704393 0.247737
H161  H     H_    0.353078 0.511294 0.592890 0.242177
H162  H     H_    0.316666 0.436326 0.588143 0.230201
H163  H     H_    0.282565 0.420669 0.392939 0.195885
H164  H     H_    0.302137 0.499766 0.391583 0.195459

loop_
_geom_bond_atom_site_label_1
_geom_bond_atom_site_label_2
_ccdc_geom_bond_type
C22   N2    A    
C145  H115  S    
C33   C45   A    
C53   C69   A    
C6    O14   A    
C18   C156  S    
C114  H37   S    
C144  H108  S    
C156  H150  S    
C163  H161  S    
C7    O7    A    
C10   C94   A    
C141  H99   S    
C29   C33   A    
C62   C70   A    
C162  H163  S    
C37   C42   A    
C143  H109  S    
C14   C90   A    
C8    O16   A    
C6    O6    A    
C40   C43   A    
C130  C131  S    
O32   C152  S    
C56   C72   A    
C117  H46   S    
C128  H75   S    
C28   O27   S    
C118  H50   S    
C60   C92   A    
C35   C47   A    
O23   C119  S    
C79   C87   A    
C82   C98   A    
C73   C81   A    
C115  H40   S    
C25   C29   A    
C164  H160  S    
C149  H126  S    
C154  C155  S    
C27   C31   A    
C84   C100  A    
C151  H133  S    
C41   H9    S    
C28   C32   A    
C157  C158  S    
Cu4   O7    S    
C43   H11   S    
C12   C108  A    
Cu2   O9    S    
O30   C150  S    
C17   C21   A    
C130  H84   S    
C68   H15   S    
C19   C23   A    
C37   C38   A    
C15   C111  A    
C114  H36   S    
C54   C70   A    
C20   C162  S    
C59   C91   A    
C87   C103  A    
C63   C71   A    
C131  H81   S    
C49   C73   A    
C57   C133  S    
C39   C40   A    
C147  H119  S    
C108  H24   S    
C120  H54   S    
C135  H87   S    
C159  H157  S    
C24   O31   S    
C83   C91   A    
Cu3   O8    S    
C4    C49   S    
C121  H62   S    
C62   C124  S    
C16   H8    S    
C80   C88   A    
C19   C35   A    
C46   H30   S    
C129  H73   S    
C160  C161  S    
C42   H10   S    
C15   C91   A    
C118  H48   S    
C119  H52   S    
C163  C164  S    
C162  C163  S    
C41   C45   A    
Cu4   O16   S    
C102  C109  A    
C43   C47   A    
Cu2   O2    S    
C55   C71   A    
C44   C48   A    
C142  H111  S    
C155  H138  S    
C159  C160  S    
C161  H151  S    
C133  H91   S    
C76   O19   S    
C2    O10   A    
C65   H14   S    
C161  H153  S    
C146  H117  S    
C99   C108  A    
C59   C139  S    
C133  C134  S    
C45   H29   S    
C32   C36   A    
C50   C74   A    
C42   C46   A    
C138  H92   S    
C116  H43   S    
C113  H33   S    
C9    C105  A    
C122  H60   S    
O20   C116  S    
C25   N1    A    
C132  H78   S    
C152  H135  S    
O18   C114  S    
C13   C109  A    
C136  H98   S    
C59   C67   A    
C85   C93   A    
C148  H123  S    
C60   C142  S    
C87   C95   A    
C34   C46   A    
C21   N1    A    
C124  H70   S    
C147  H121  S    
C111  H27   S    
C77   C85   A    
C2    O2    A    
O21   C117  S    
C78   O21   S    
C75   O20   S    
C153  H142  S    
C125  C126  S    
C88   C104  A    
C3    C50   S    
O25   C145  S    
C158  H145  S    
C134  H89   S    
C47   H31   S    
C30   C34   A    
C125  H68   S    
C7    C54   S    
C136  H97   S    
C143  C144  S    
C64   C96   A    
C38   C41   A    
C71   H20   S    
C72   H19   S    
C80   O23   S    
O31   C151  S    
C151  H132  S    
C27   O28   S    
Cu4   O6    S    
C126  H64   S    
Cu1   O11   S    
C13   H5    S    
Cu2   O12   S    
C57   C65   A    
C121  C122  S    
C139  H104  S    
C51   C67   A    
C26   C30   A    
C154  H140  S    
C10   C106  A    
C157  H147  S    
C86   C102  A    
C14   C110  A    
C7    O15   A    
C150  H130  S    
C18   C22   A    
Cu1   N2    S    
C12   C96   A    
C137  C138  S    
C52   C76   A    
C8    C53   S    
C138  H94   S    
C39   C44   A    
C144  H107  S    
C156  H149  S    
C56   C80   A    
C132  H80   S    
C127  H77   S    
C163  H162  S    
C160  H154  S    
C18   C34   A    
C131  C132  S    
C99   C104  A    
C22   O29   S    
C107  H23   S    
C155  H139  S    
C143  H110  S    
C105  H21   S    
C21   O30   S    
C123  H59   S    
O24   C120  S    
C79   O24   S    
C109  H25   S    
C84   C92   A    
C113  H35   S    
Cu4   N3    S    
C118  H49   S    
C23   O32   S    
C141  H101  S    
C88   C96   A    
C69   H18   S    
C14   H6    S    
C5    C56   S    
C67   H16   S    
C6    C55   S    
C76   C84   A    
C135  H85   S    
C164  H159  S    
C117  H45   S    
C57   C89   A    
C126  H66   S    
O26   C146  S    
C61   C93   A    
C158  H146  S    
C11   C95   A    
C63   C95   A    
C130  H83   S    
C145  H113  S    
O17   C113  S    
C73   O18   S    
C74   O17   S    
C24   N4    A    
C117  H47   S    
C142  C143  S    
C97   C102  A    
C3    O11   A    
C63   C127  S    
C66   H13   S    
C81   C89   A    
O22   C118  S    
C1    O9    A    
C150  H128  S    
C83   C99   A    
C139  C140  S    
C131  H82   S    
C17   C33   A    
C74   C82   A    
C140  H102  S    
C147  H120  S    
C114  H38   S    
C26   N2    A    
C159  H156  S    
C124  C125  S    
C134  C135  S    
C158  H144  S    
C100  C103  A    
C162  H164  S    
C53   C77   A    
C155  H137  S    
C55   C79   A    
C156  C157  S    
C3    O3    A    
C128  H74   S    
C129  H72   S    
C61   C121  S    
Cu3   O14   S    
C1    O1    A    
C58   C90   A    
C49   C65   A    
C97   C106  A    
C4    O4    A    
C16   C92   A    
C5    O5    A    
C62   C94   A    
C31   C35   A    
Cu4   O13   S    
Cu1   O4    S    
C8    O8    A    
Cu2   O3    S    
C146  H116  S    
C115  H39   S    
C16   C112  A    
Cu1   Cu2   S    
C149  H125  S    
C27   N3    A    
C133  H90   S    
C161  H152  S    
C98   C101  A    
C82   C90   A    
C58   C136  S    
C101  C110  A    
C142  H112  S    
C17   C153  S    
C75   C83   A    
C116  H42   S    
C113  H34   S    
C122  H61   S    
C128  C129  S    
C1    C52   S    
C106  H22   S    
C2    C51   S    
O19   C115  S    
C20   C36   A    
C60   C68   A    
C148  H122  S    
C29   C37   A    
C140  C141  S    
C103  C112  A    
Cu2   N1    S    
C124  H69   S    
C137  H95   S    
Cu3   Cu4   S    
C54   C78   A    
C149  H127  S    
C25   O26   S    
C9    H1    S    
C153  C154  S    
C26   O25   S    
O27   C147  S    
C11   H3    S    
O29   C149  S    
C127  C128  S    
C98   C105  A    
C15   H7    S    
Cu3   O5    S    
C121  H63   S    
C51   C75   A    
C135  H86   S    
C110  H26   S    
C64   C130  S    
C86   C94   A    
Cu1   O10   S    
C12   H4    S    
C58   C66   A    
C20   C24   A    
C119  H51   S    
Cu3   N4    S    
C139  H105  S    
C70   H17   S    
C4    O12   A    
C36   C48   A    
C5    O13   A    
C52   C68   A    
C115  H41   S    
C78   C86   A    
C32   C40   A    
C154  H141  S    
C157  H148  S    
C146  H118  S    
C150  H129  S    
C140  H103  S    
C152  H134  S    
C138  H93   S    
C116  H44   S    
C144  H106  S    
C132  H79   S    
C152  H136  S    
C123  H57   S    
C10   H2    S    
C160  H155  S    
C148  H124  S    
C50   C66   A    
O28   C148  S    
C123  H58   S    
C28   N4    A    
C11   C107  A    
C137  H96   S    
Cu3   O15   S    
C136  C137  S    
C9    C93   A    
C153  H143  S    
C85   C101  A    
C120  H56   S    
C61   C69   A    
C134  H88   S    
C141  H100  S    
C23   N3    A    
C44   H12   S    
C100  C107  A    
C13   C89   A    
Cu1   O1    S    
C104  C111  A    
C164  H158  S    
C19   C159  S    
C151  H131  S    
C112  H28   S    
C126  H65   S    
C77   O22   S    
C81   C97   A    
C119  H53   S    
C48   H32   S    
C31   C39   A    
C125  H67   S    
C145  H114  S    
C64   C72   A    
C122  C123  S    
C129  H71   S    
C30   C38   A    
C120  H55   S    
C127  H76   S    
