data_mof_unit_42311.cif
_audit_creation_date              2012-12-10T20:45:34-0500
_audit_creation_method            fapswitch 2.2
_symmetry_space_group_name_H-M    P1
_symmetry_Int_Tables_number       1
_space_group_crystal_system       triclinic
_cell_length_a                    10.629729
_cell_length_b                    10.646871
_cell_length_c                    9.928124
_cell_angle_alpha                 89.98244
_cell_angle_beta                  90.96091
_cell_angle_gamma                 89.843443
_cell_volume                      1123.4368102

loop_
_atom_site_label
_atom_site_type_symbol
_atom_type_description
_atom_site_fract_x
_atom_site_fract_y
_atom_site_fract_z
_atom_type_partial_charge
C1    C     C_R   0.498138 0.260350 0.500341 0.890816
C2    C     C_R   0.826790 0.603633 0.978858 0.415437
C3    C     C_R   0.804172 0.480405 0.021176 -0.204698
C4    C     C_R   0.262645 0.522214 0.498898 0.871754
C5    C     C_R   0.826981 0.379620 0.935042 -0.207824
C6    C     C_R   0.872121 0.401525 0.806048 -0.123099
C7    C     C_R   0.892602 0.524918 0.761698 0.108021
C8    C     C_R   0.528381 0.063794 0.617446 0.127961
C9    C     C_R   0.486530 0.128458 0.503408 -0.116874
C10   C     C_R   0.426670 0.064768 0.397170 -0.181352
C11   C     C_R   0.428775 0.934928 0.396310 -0.192112
C12   C     C_R   0.222649 0.707138 0.019657 -0.165631
C13   C     C_R   0.488045 0.871396 0.503083 -0.110057
C14   C     C_R   0.528513 0.935780 0.617605 0.132969
C15   C     C_3   0.652398 0.928432 0.690867 -0.461867
C16   C     C_R   0.499225 0.739613 0.500260 0.871193
C17   C     C_3   0.652524 0.070858 0.690178 -0.477837
C18   C     C_R   0.503015 0.389902 0.070743 0.179455
C19   C     C_R   0.507947 0.609010 0.071831 -0.057609
C20   C     C_R   0.508458 0.608998 0.928414 -0.141004
C21   C     C_R   0.502205 0.390031 0.928881 0.212958
C22   C     C_3   0.407530 0.287323 0.921414 -0.469579
C23   C     C_R   0.934238 0.540086 0.380656 -0.198717
C24   C     C_3   0.409746 0.285755 0.074384 -0.458873
C25   C     C_R   0.741360 0.502223 0.501578 0.890037
C26   C     C_R   0.190607 0.787678 0.124296 0.431655
C27   C     C_R   0.138947 0.738553 0.241307 -0.167236
C28   C     C_R   0.114981 0.609244 0.251212 0.116192
C29   C     C_R   0.140018 0.529918 0.142573 -0.114481
C30   C     C_R   0.195914 0.578656 0.027826 -0.184204
C31   C     C_3   0.117118 0.791562 0.681307 -0.776159
C32   C     C_R   0.875844 0.522273 0.504443 -0.163452
C33   C     C_R   0.943836 0.545842 0.625905 -0.017781
C34   C     C_R   0.069484 0.579463 0.617661 0.177078
C35   C     C_R   0.131147 0.557663 0.496623 -0.170031
C36   C     C_R   0.061814 0.559563 0.375900 -0.007310
C37   C     C_R   0.869290 0.625964 0.848651 -0.144567
Cl1   Cl    Cl    0.213801 0.950036 0.107238 -0.692541
Cl2   Cl    Cl    0.802285 0.730502 0.088202 -0.669179
H1    H     H_    0.269617 0.744740 0.933061 0.152267
H2    H     H_    0.727751 0.111915 0.627397 0.198672
H3    H     H_    0.511827 0.697503 0.125000 0.186091
H4    H     H_    0.513221 0.697424 0.875378 0.161289
H5    H     H_    0.316098 0.318568 0.876782 0.209584
H6    H     H_    0.446373 0.200115 0.876835 0.213052
H7    H     H_    0.319224 0.314030 0.119811 0.216067
H8    H     H_    0.452358 0.198300 0.115671 0.217456
H9    H     H_    0.116525 0.800781 0.323905 0.158187
H10   H     H_    0.119363 0.430556 0.148407 0.140173
H11   H     H_    0.219746 0.516379 0.946219 0.150986
H12   H     H_    0.766997 0.462034 0.119687 0.166712
H13   H     H_    0.881042 0.542291 0.287540 0.203407
H14   H     H_    0.884327 0.721536 0.815730 0.167704
H15   H     H_    0.211809 0.635116 0.749793 0.249090
H16   H     H_    0.145044 0.850195 0.769078 0.266358
H17   H     H_    0.019805 0.818567 0.650213 0.247200
H18   H     H_    0.182058 0.811381 0.597291 0.227323
H19   H     H_    0.809297 0.284524 0.968176 0.163639
H20   H     H_    0.890421 0.322620 0.740283 0.130248
H21   H     H_    0.383090 0.114661 0.313809 0.191782
H22   H     H_    0.389296 0.884539 0.311179 0.197883
H23   H     H_    0.643550 0.887761 0.793403 0.220341
H24   H     H_    0.727866 0.886217 0.628972 0.200553
H25   H     H_    0.644567 0.112350 0.792381 0.205760
N1    N     N_R   0.499160 0.499140 0.142800 -0.116242
N2    N     N_R   0.499160 0.499180 0.857150 -0.115141
N3    N     N_2   0.123185 0.659771 0.717534 -0.312485
O1    O     O_R   0.500020 0.316790 0.614690 -0.611738
O2    O     O_R   0.500000 0.316760 0.385350 -0.619867
O3    O     O_R   0.316770 0.500030 0.614670 -0.635658
O4    O     O_R   0.316750 0.499990 0.385330 -0.609399
O5    O     O_R   0.500000 0.683240 0.614650 -0.635273
O6    O     O_R   0.499980 0.683210 0.385310 -0.619143
O7    O     O_R   0.683250 0.500010 0.614670 -0.606376
O8    O     O_R   0.683230 0.499970 0.385330 -0.610428
Zn1   Zn    Zn3+2 0.500010 0.500020 0.653130 0.938846
Zn2   Zn    Zn3+2 0.499990 0.499980 0.346870 0.959632

loop_
_geom_bond_atom_site_label_1
_geom_bond_atom_site_label_2
_ccdc_geom_bond_type
C27   H9    S    
C21   N2    A    
C18   C21   A    
O2    Zn2   S    
C19   C20   A    
C16   O5    A    
O5    Zn1   S    
C4    O3    A    
C29   H10   S    
C18   N1    A    
C31   N3    S    
C26   C27   A    
O7    Zn1   S    
C5    H19   S    
C18   C24   S    
C20   N2    A    
C28   C29   A    
C25   O7    A    
C17   H25   S    
C5    C6    A    
C1    O1    A    
C34   C35   A    
C2    Cl2   S    
C22   H5    S    
C35   C36   A    
C8    C9    A    
C8    C14   A    
C31   H17   S    
C9    C10   A    
C19   H3    S    
C37   H14   S    
C25   C32   S    
C30   H11   S    
C4    C35   S    
C13   C14   A    
C7    C33   S    
N1    Zn2   S    
C16   O6    A    
C1    C9    S    
C3    H12   S    
C26   Cl1   S    
H15   N3    S    
C3    C5    A    
C1    O2    A    
C12   C26   A    
C25   O8    A    
C12   H1    S    
C10   H21   S    
C29   C30   A    
N2    Zn1   S    
C33   C34   A    
C7    C37   A    
O8    Zn2   S    
O3    Zn1   S    
C22   C24   S    
O4    Zn2   S    
C20   H4    S    
C15   C17   S    
O6    Zn2   S    
C12   C30   A    
C24   H8    S    
C6    H20   S    
C11   H22   S    
C34   N3    S    
C6    C7    A    
O1    Zn1   S    
C8    C17   S    
C24   H7    S    
C32   C33   A    
C31   H18   S    
C2    C3    A    
C23   C32   A    
C11   C13   A    
C2    C37   A    
C23   H13   S    
C15   H23   S    
C19   N1    A    
C17   H2    S    
C10   C11   A    
C22   H6    S    
C28   C36   S    
C23   C36   A    
C13   C16   S    
C27   C28   A    
C15   H24   S    
C14   C15   S    
C31   H16   S    
C21   C22   S    
C4    O4    A    
