data_mof_unit_61232.cif
_audit_creation_date              2012-12-10T19:35:30-0500
_audit_creation_method            fapswitch 2.2
_symmetry_space_group_name_H-M    P1
_symmetry_Int_Tables_number       1
_space_group_crystal_system       triclinic
_cell_length_a                    30.744818
_cell_length_b                    31.850228
_cell_length_c                    21.638096
_cell_angle_alpha                 89.726142
_cell_angle_beta                  135.238598
_cell_angle_gamma                 90.066417
_cell_volume                      14919.8781345

loop_
_atom_site_label
_atom_site_type_symbol
_atom_type_description
_atom_site_fract_x
_atom_site_fract_y
_atom_site_fract_z
_atom_type_partial_charge
C1    C     C_R   0.499718 0.997915 0.379555 0.969427
C2    C     C_3   0.000794 0.791433 0.501232 -0.085587
C3    C     C_3   0.785413 0.075806 0.234976 0.788901
C4    C     C_R   0.716795 0.464279 0.706473 0.092481
C5    C     C_R   0.216934 0.963769 0.721486 0.015019
C6    C     C_R   0.685211 0.501693 0.684487 -0.218891
C7    C     C_R   0.185271 0.001754 0.687287 -0.273390
C8    C     C_R   0.717067 0.540201 0.715350 0.339857
C9    C     C_R   0.217294 0.039861 0.727159 0.438147
C10   C     C_3   0.534656 0.764058 0.488246 0.471641
C11   C     C_3   0.554082 0.236163 0.533710 0.495125
C12   C     C_3   0.033996 0.264006 0.487342 0.474006
C13   C     C_3   0.524758 0.763311 0.578989 -0.338562
C14   C     C_3   0.055310 0.736177 0.538475 0.493407
C15   C     C_R   0.281725 0.038876 0.793150 -0.272301
C16   C     C_R   0.781439 0.539417 0.777953 -0.268126
C17   C     C_R   0.313389 0.000567 0.818513 -0.167687
C18   C     C_R   0.813238 0.500864 0.809067 -0.151268
C19   C     C_R   0.280386 0.963117 0.786072 0.025825
C20   C     C_R   0.780181 0.463762 0.768678 0.012499
C21   C     C_3   0.284672 0.925719 0.748958 -0.537489
C22   C     C_3   0.784701 0.422959 0.807486 -0.538723
C23   C     C_3   0.714272 0.423547 0.738399 0.755345
C24   C     C_3   0.492707 0.236005 0.552240 -0.327668
C25   C     C_3   0.214178 0.926487 0.676753 0.799611
C26   C     C_1   0.500265 0.874318 0.501400 -0.084237
C27   C     C_1   0.499823 0.125685 0.500222 -0.115640
C28   C     C_1   0.000253 0.374315 0.501412 -0.084626
C29   C     C_1   0.999808 0.625685 0.500106 -0.116131
C30   C     C_1   0.499728 0.625696 0.499112 -0.009030
C31   C     C_1   0.500629 0.374319 0.501035 -0.093034
C32   C     C_1   0.999378 0.125693 0.498795 -0.059272
C33   C     C_1   0.000531 0.874319 0.500906 -0.089522
C34   C     C_3   0.443669 0.763903 0.437016 0.366252
C35   C     C_3   0.024975 0.263274 0.579054 -0.330008
C36   C     C_3   0.455362 0.236612 0.420740 0.357735
C37   C     C_3   0.943366 0.263965 0.437265 0.363968
C38   C     C_3   0.957729 0.736602 0.419957 0.359137
C39   C     C_3   0.500899 0.791398 0.501595 -0.055149
C40   C     C_3   0.500510 0.208608 0.501899 -0.049377
C41   C     C_3   0.000730 0.291391 0.501476 -0.053548
C42   C     C_3   0.000377 0.708609 0.501582 -0.050078
C43   C     C_3   0.988597 0.736007 0.547247 -0.330005
C44   C     C_3   0.559227 0.735532 0.565578 -0.201509
C45   C     C_3   0.547296 0.263988 0.584769 -0.238318
C46   C     C_3   0.058943 0.235452 0.564840 -0.225394
C47   C     C_3   0.044568 0.763998 0.584952 -0.230965
C48   C     C_1   0.500470 0.836829 0.501569 0.146091
C49   C     C_R   0.999717 0.497912 0.379555 0.969449
C50   C     C_1   0.499975 0.163176 0.500855 0.142431
C51   C     C_1   0.000408 0.336824 0.501545 0.144571
C52   C     C_1   0.999916 0.663176 0.500632 0.142467
C53   C     C_1   0.500164 0.663179 0.499122 0.149390
C54   C     C_1   0.500947 0.336837 0.501462 0.114859
C55   C     C_1   0.999704 0.163176 0.498718 0.119120
C56   C     C_1   0.000801 0.836838 0.501240 0.119410
C57   C     C_R   0.450868 0.011443 0.231034 0.106008
C58   C     C_R   0.950892 0.511478 0.231063 0.105002
C59   C     C_R   0.498462 0.992605 0.312332 -0.285083
C60   C     C_3   0.466627 0.735761 0.512838 0.459720
C61   C     C_R   0.998455 0.492604 0.312327 -0.284893
C62   C     C_R   0.544244 0.969306 0.326806 0.309419
C63   C     C_R   0.044197 0.469270 0.326760 0.308713
C64   C     C_R   0.551196 0.976316 0.269651 0.311607
C65   C     C_R   0.051158 0.476274 0.269614 0.311535
C66   C     C_R   0.500093 0.918776 0.500954 0.925070
C67   C     C_R   0.499939 0.081230 0.499894 0.877500
C68   C     C_R   0.000092 0.418775 0.500960 0.925297
C69   C     C_R   0.999938 0.581230 0.499873 0.877464
C70   C     C_R   0.504451 0.998931 0.190716 -0.263292
C71   C     C_3   0.447161 0.264091 0.469633 0.466909
C72   C     C_R   0.004450 0.498928 0.190717 -0.263283
C73   C     C_R   0.452785 0.013465 0.169853 0.026254
C74   C     C_R   0.952811 0.513502 0.169884 0.021458
C75   C     C_3   0.424310 0.056342 0.140280 -0.414824
C76   C     C_3   0.924420 0.556405 0.140408 -0.412983
C77   C     C_3   0.422191 0.053847 0.208172 -0.411213
C78   C     C_3   0.922294 0.553906 0.208291 -0.410201
C79   C     C_R   0.446671 0.995914 0.665883 0.149779
C80   C     C_R   0.946795 0.495573 0.665992 0.148418
C81   C     C_R   0.500561 0.003478 0.686976 -0.206012
C82   C     C_3   0.966705 0.235795 0.513274 0.467373
C83   C     C_R   0.000553 0.503513 0.686950 -0.204676
C84   C     C_R   0.554339 0.015710 0.772557 -0.182986
C85   C     C_R   0.054167 0.516080 0.772349 -0.182659
C86   C     C_R   0.556269 0.014796 0.838862 0.437188
C87   C     C_R   0.056131 0.515153 0.838689 0.437297
C88   C     C_R   0.502944 0.001242 0.817419 -0.195477
C89   C     C_R   0.003010 0.501240 0.817467 -0.196143
C90   C     C_R   0.447910 0.994853 0.730419 0.067290
C91   C     C_R   0.948074 0.494476 0.730568 0.062507
C92   C     C_R   0.500236 0.000317 0.620545 0.884706
C93   C     C_3   0.945627 0.764082 0.464228 0.466917
C94   C     C_R   0.000238 0.500339 0.620540 0.884810
C95   C     C_3   0.404050 0.958830 0.689559 -0.472066
C96   C     C_3   0.904820 0.458115 0.690249 -0.460693
C97   C     C_3   0.402688 0.959936 0.618035 -0.417245
C98   C     C_3   0.903392 0.459280 0.618667 -0.424283
C99   C     C_R   0.380218 0.500220 0.379990 0.891078
C100  C     C_R   0.880218 0.000220 0.379989 0.891967
C101  C     C_R   0.499420 0.581251 0.499252 0.976355
C102  C     C_R   0.500155 0.418752 0.500282 0.898709
C103  C     C_R   0.999340 0.081249 0.499175 0.969166
C104  C     C_3   0.500488 0.708594 0.499407 -0.095423
C105  C     C_R   0.000128 0.918753 0.500250 0.895544
C106  C     C_R   0.619761 0.500322 0.619839 1.005055
C107  C     C_R   0.119775 0.000538 0.620051 1.014257
C108  C     C_R   0.620293 0.999860 0.119191 0.955873
C109  C     C_R   0.120294 0.499860 0.119191 0.956445
C110  C     C_R   0.502442 0.999894 0.122679 1.028695
C111  C     C_R   0.002441 0.499894 0.122679 1.027508
C112  C     C_R   0.379501 0.000098 0.879761 0.914823
C113  C     C_R   0.879488 0.500125 0.879280 0.911304
C114  C     C_R   0.500867 0.000157 0.880813 0.859543
C115  C     C_3   0.500953 0.291432 0.501520 -0.083148
C116  C     C_R   0.000940 0.500157 0.880881 0.861587
C117  C     C_R   0.281476 0.532614 0.257607 0.069733
C118  C     C_R   0.781474 0.032604 0.257577 0.069912
C119  C     C_3   0.476567 0.736478 0.421657 -0.346236
C120  C     C_3   0.508830 0.264235 0.451000 -0.347284
C121  C     C_3   0.975765 0.236499 0.421118 -0.347645
C122  C     C_3   0.012660 0.764240 0.455401 -0.348848
C123  C     C_R   0.315144 0.499142 0.314364 -0.101176
C124  C     C_R   0.815143 0.999141 0.314362 -0.101659
C125  C     C_R   0.283605 0.464069 0.305927 -0.186824
C126  C     C_3   0.000071 0.208588 0.499050 -0.086965
C127  C     C_R   0.783604 0.964076 0.305952 -0.185980
C128  C     C_R   0.718943 0.963788 0.240231 -0.130338
C129  C     C_R   0.218944 0.463781 0.240207 -0.130889
C130  C     C_R   0.686102 0.999124 0.184803 -0.073759
C131  C     C_R   0.186103 0.499126 0.184805 -0.073871
C132  C     C_R   0.719431 0.032974 0.196137 -0.029615
C133  C     C_R   0.219432 0.532984 0.196167 -0.030219
C134  C     C_3   0.713940 0.076146 0.163826 -0.550605
C135  C     C_3   0.213944 0.576170 0.163908 -0.548937
C136  C     C_3   0.285417 0.575829 0.235056 0.788299
H1    H     H_    0.374445 0.052244 0.178731 0.221990
H2    H     H_    0.926913 0.429286 0.731681 0.225174
H3    H     H_    0.357092 0.969558 0.552955 0.218475
H4    H     H_    0.423545 0.931628 0.617446 0.205251
H5    H     H_    0.857637 0.468587 0.553476 0.217520
H6    H     H_    0.924685 0.431148 0.618441 0.205950
H7    H     H_    0.308696 0.437171 0.349221 0.185659
H8    H     H_    0.808696 0.937183 0.349266 0.185697
H9    H     H_    0.694970 0.936574 0.234080 0.218563
H10   H     H_    0.194971 0.436562 0.234038 0.218541
H11   H     H_    0.693376 0.098735 0.176305 0.211063
H12   H     H_    0.453113 0.076782 0.262424 0.206312
H13   H     H_    0.692326 0.075940 0.095420 0.231159
H14   H     H_    0.193382 0.598742 0.176414 0.211123
H15   H     H_    0.192331 0.575991 0.095502 0.231280
H16   H     H_    0.456781 0.725378 0.357379 0.211098
H17   H     H_    0.515273 0.275888 0.409508 0.208853
H18   H     H_    0.955561 0.225420 0.356596 0.210139
H19   H     H_    0.022351 0.775899 0.417744 0.209487
H20   H     H_    0.307040 0.068050 0.821637 0.219706
H21   H     H_    0.806615 0.568702 0.804913 0.219385
H22   H     H_    0.304463 0.897981 0.793327 0.222962
H23   H     H_    0.874544 0.552341 0.178846 0.221917
H24   H     H_    0.306699 0.933168 0.726008 0.178132
H25   H     H_    0.806916 0.426363 0.875954 0.203438
H26   H     H_    0.804219 0.397611 0.797844 0.210681
H27   H     H_    0.607111 0.723251 0.617957 0.227863
H28   H     H_    0.585875 0.275829 0.652488 0.201309
H29   H     H_    0.106820 0.223097 0.616790 0.219440
H30   H     H_    0.081078 0.775842 0.653162 0.209715
H31   H     H_    0.543952 0.774609 0.642820 0.214018
H32   H     H_    0.485712 0.224142 0.592986 0.212229
H33   H     H_    0.044591 0.274549 0.643139 0.212790
H34   H     H_    0.953257 0.576812 0.262592 0.206000
H35   H     H_    0.978368 0.724142 0.584137 0.213021
H36   H     H_    0.377766 0.056376 0.071612 0.213800
H37   H     H_    0.456306 0.080868 0.154858 0.227172
H38   H     H_    0.877875 0.556484 0.071743 0.214248
H39   H     H_    0.956464 0.580904 0.155042 0.227044
H40   H     H_    0.636609 0.755801 0.457417 0.400749
H41   H     H_    0.709993 0.245745 0.628723 0.394348
H42   H     H_    0.134779 0.255599 0.454472 0.402287
H43   H     H_    0.214974 0.745897 0.647745 0.394240
H44   H     H_    0.608515 0.020134 0.964921 0.322304
H45   H     H_    0.595674 0.024273 0.788989 0.202707
H46   H     H_    0.108383 0.520672 0.964713 0.322210
H47   H     H_    0.295141 0.602227 0.325993 0.336946
H48   H     H_    0.303730 0.604669 0.177285 0.357918
H49   H     H_    0.795136 0.102245 0.325884 0.336905
H50   H     H_    0.803726 0.104608 0.177174 0.357413
H51   H     H_    0.660674 0.591328 0.563777 0.361865
H52   H     H_    0.126361 0.125687 0.572344 0.383481
H53   H     H_    0.699367 0.401420 0.805408 0.332676
H54   H     H_    0.695664 0.364972 0.705932 0.340778
H55   H     H_    0.193581 0.867598 0.656990 0.369793
H56   H     H_    0.095366 0.524916 0.788621 0.202734
H57   H     H_    0.208281 0.960091 0.594712 0.321557
H58   H     H_    0.364721 0.744722 0.543663 0.393858
H59   H     H_    0.290518 0.254666 0.372244 0.397191
H60   H     H_    0.865979 0.244859 0.546166 0.393611
H61   H     H_    0.785194 0.754630 0.352091 0.396621
H62   H     H_    0.356981 0.754818 0.338117 0.366574
H63   H     H_    0.387587 0.246465 0.297156 0.364730
H64   H     H_    0.856557 0.254986 0.339003 0.366432
H65   H     H_    0.893873 0.746439 0.295831 0.364947
H66   H     H_    0.666226 0.925003 0.547110 0.392062
H67   H     H_    0.359292 0.967871 0.665818 0.205243
H68   H     H_    0.166091 0.424878 0.546996 0.392032
H69   H     H_    0.685101 0.008978 0.321794 0.380825
H70   H     H_    0.185111 0.508866 0.321858 0.380778
H71   H     H_    0.425648 0.929856 0.730580 0.224508
H72   H     H_    0.859933 0.466795 0.666424 0.211407
O1    O     O_R   0.448310 0.000000 0.356640 -0.621594
O2    O     O_R   0.091580 1.000000 0.643270 -0.601770
O3    O     O_2   0.615430 0.926968 0.256874 -0.252344
O4    O     O_3   0.639478 0.006830 0.274938 -0.604883
O5    O     O_2   0.174225 0.458938 0.400402 -0.209326
O6    O     O_2   0.115319 0.426880 0.256763 -0.252806
O7    O     O_3   0.139489 0.506725 0.274954 -0.604603
O8    O     O_R   0.591630 0.965220 0.091680 -0.607165
O9    O     O_R   0.591630 0.034780 0.091680 -0.611740
O10   O     O_R   0.091630 0.465220 0.091680 -0.607024
O11   O     O_R   0.091630 0.534780 0.091680 -0.611619
O12   O     O_R   0.500040 0.965230 0.091630 -0.589155
O13   O     O_R   0.500040 0.034770 0.091630 -0.616530
O14   O     O_R   0.000040 0.465230 0.091630 -0.592459
O15   O     O_R   0.000040 0.534770 0.091630 -0.615276
O16   O     O_R   0.408450 0.965250 0.908360 -0.618359
O17   O     O_R   0.948310 0.500000 0.356640 -0.621876
O18   O     O_R   0.408450 0.034750 0.908360 -0.629400
O19   O     O_R   0.908450 0.465250 0.908360 -0.621255
O20   O     O_R   0.908450 0.534750 0.908360 -0.630343
O21   O     O_R   0.500040 0.965230 0.908410 -0.623337
O22   O     O_R   0.500040 0.034770 0.908410 -0.616452
O23   O     O_R   0.000040 0.465230 0.908410 -0.621613
O24   O     O_R   0.000040 0.534770 0.908410 -0.617267
O25   O     O_R   0.551720 0.000000 0.460130 -0.560708
O26   O     O_R   0.051720 0.500000 0.460130 -0.560757
O27   O     O_R   0.448310 0.938390 0.448250 -0.614229
O28   O     O_R   0.500000 0.561620 0.551710 -0.594436
O29   O     O_R   0.448310 0.061610 0.448250 -0.611869
O30   O     O_R   0.948310 0.438390 0.448250 -0.614643
O31   O     O_R   0.948310 0.561610 0.448250 -0.612687
O32   O     O_R   0.551720 0.938410 0.551740 -0.588257
O33   O     O_R   0.551720 0.061590 0.551740 -0.596148
O34   O     O_R   0.051720 0.438410 0.551740 -0.588274
O35   O     O_R   0.051720 0.561590 0.551740 -0.595421
O36   O     O_R   0.448310 0.000000 0.539870 -0.618741
O37   O     O_R   0.948310 0.500000 0.539870 -0.619019
O38   O     O_R   0.551720 1.000000 0.643360 -0.628194
O39   O     O_R   0.500000 0.438380 0.551710 -0.604052
O40   O     O_R   0.051720 0.500000 0.643360 -0.627956
O41   O     O_R   0.408300 0.500000 0.356580 -0.593712
O42   O     O_R   0.908300 0.000000 0.356580 -0.593881
O43   O     O_R   0.408400 0.500000 0.460120 -0.621147
O44   O     O_R   0.908400 0.000000 0.460120 -0.620361
O45   O     O_R   0.499900 0.561630 0.448170 -0.594165
O46   O     O_R   0.499900 0.438370 0.448170 -0.617286
O47   O     O_R   0.999900 0.061630 0.448170 -0.601180
O48   O     O_R   0.999900 0.938370 0.448170 -0.607843
O49   O     O_2   0.540136 0.808436 0.388236 -0.221413
O50   O     O_R   1.000000 0.061620 0.551710 -0.582140
O51   O     O_2   0.630460 0.811199 0.547906 -0.260363
O52   O     O_3   0.612139 0.742862 0.466446 -0.516701
O53   O     O_2   0.656820 0.190757 0.657222 -0.277783
O54   O     O_2   0.614648 0.191356 0.509267 -0.270619
O55   O     O_3   0.671125 0.258357 0.605015 -0.532951
O56   O     O_2   0.038713 0.308380 0.386519 -0.222113
O57   O     O_2   0.129634 0.311005 0.546011 -0.258772
O58   O     O_3   0.110544 0.242697 0.463938 -0.528122
O59   O     O_2   0.156649 0.690954 0.667549 -0.274227
O60   O     O_2   0.121598 0.691312 0.524199 -0.270018
O61   O     O_R   1.000000 0.938380 0.551710 -0.612872
O62   O     O_3   0.175123 0.758470 0.620409 -0.536916
O63   O     O_3   0.611389 0.025128 0.922783 -0.746671
O64   O     O_3   0.111117 0.525820 0.922461 -0.746571
O65   O     O_3   0.313792 0.605109 0.303071 -0.744838
O66   O     O_3   0.310804 0.575991 0.201126 -0.710482
O67   O     O_3   0.813786 0.105107 0.302957 -0.742642
O68   O     O_3   0.810800 0.075939 0.201047 -0.710199
O69   O     O_2   0.638777 0.590369 0.697037 -0.264191
O70   O     O_2   0.723232 0.624904 0.726956 -0.269633
O71   O     O_3   0.632594 0.594621 0.571246 -0.549633
O72   O     O_R   0.591480 0.500000 0.539730 -0.621940
O73   O     O_2   0.135052 0.089247 0.701190 -0.289432
O74   O     O_2   0.224167 0.124102 0.743826 -0.285414
O75   O     O_3   0.138337 0.095645 0.584724 -0.563423
O76   O     O_3   0.689194 0.427748 0.772615 -0.749277
O77   O     O_3   0.686015 0.391910 0.675038 -0.751710
O78   O     O_3   0.187188 0.891718 0.678714 -0.731922
O79   O     O_3   0.187883 0.934857 0.591823 -0.738573
O80   O     O_2   0.369018 0.690071 0.450543 -0.279912
O81   O     O_2   0.459464 0.690589 0.610325 -0.263392
O82   O     O_3   0.390057 0.757493 0.536021 -0.516917
O83   O     O_R   0.091480 0.000000 0.539730 -0.581750
O84   O     O_2   0.386162 0.308376 0.493949 -0.269839
O85   O     O_2   0.344950 0.310140 0.346625 -0.301284
O86   O     O_3   0.329401 0.242008 0.396087 -0.505097
O87   O     O_2   0.869307 0.190207 0.452034 -0.277417
O88   O     O_2   0.960345 0.190629 0.611627 -0.260625
O89   O     O_3   0.891057 0.257605 0.538045 -0.519252
O90   O     O_2   0.878871 0.808359 0.478382 -0.270477
O91   O     O_2   0.844978 0.810117 0.335873 -0.301013
O92   O     O_3   0.825074 0.741980 0.379706 -0.505726
O93   O     O_3   0.383598 0.779727 0.370993 -0.683777
O94   O     O_R   0.591580 0.500000 0.643270 -0.566404
O95   O     O_3   0.407151 0.221298 0.335705 -0.688387
O96   O     O_3   0.883293 0.279862 0.371762 -0.685592
O97   O     O_3   0.912128 0.721276 0.334346 -0.688976
O98   O     O_2   0.544847 0.909061 0.414497 -0.309014
O99   O     O_2   0.604408 0.894809 0.381480 -0.167843
O100  O     O_3   0.648748 0.948482 0.504832 -0.487053
O101  O     O_2   0.044692 0.409023 0.414336 -0.309479
O102  O     O_2   0.104246 0.394730 0.381323 -0.168466
O103  O     O_3   0.148656 0.448370 0.504756 -0.486892
O104  O     O_2   0.674291 0.959070 0.400463 -0.209507
S1    S     S_3+6 0.580390 0.783538 0.472231 0.087013
S2    S     S_3+6 0.871850 0.783019 0.413336 0.055040
S3    S     S_3+6 0.585533 0.928488 0.407122 0.130723
S4    S     S_3+6 0.085416 0.428422 0.407009 0.130003
S5    S     S_3+6 0.622201 0.965499 0.302878 0.076800
S6    S     S_3+6 0.122147 0.465406 0.302826 0.076814
S7    S     S_3+6 0.625911 0.217265 0.577358 0.051641
S8    S     S_3+6 0.079256 0.283421 0.470458 0.082650
S9    S     S_3+6 0.128964 0.717334 0.588889 0.054703
S10   S     S_3+6 0.678151 0.589127 0.679626 0.029386
S11   S     S_3+6 0.178620 0.088873 0.691108 0.020882
S12   S     S_3+6 0.420175 0.716587 0.527814 0.060210
S13   S     S_3+6 0.375178 0.283038 0.425526 0.055784
S14   S     S_3+6 0.920745 0.216669 0.529145 0.062702
Zn1   Zn    Zn3+2 0.430960 0.000000 0.430900 1.024281
Zn2   Zn    Zn3+2 0.500030 0.046430 0.000010 1.021783
Zn3   Zn    Zn3+2 0.000030 0.453570 0.000010 1.044666
Zn4   Zn    Zn3+2 0.000030 0.546430 0.000010 1.020621
Zn5   Zn    Zn3+2 0.930960 0.500000 0.430900 1.022010
Zn6   Zn    Zn3+2 0.569060 1.000000 0.569100 1.082706
Zn7   Zn    Zn3+2 0.069060 0.500000 0.569100 1.082968
Zn8   Zn    Zn3+2 0.499870 0.500000 0.430790 1.072446
Zn9   Zn    Zn3+2 0.999870 1.000000 0.430790 1.096425
Zn10  Zn    Zn3+2 0.500010 0.500000 0.569060 1.101672
Zn11  Zn    Zn3+2 0.000010 1.000000 0.569060 1.088484
Zn12  Zn    Zn3+2 0.500030 0.953570 0.000010 1.049167

loop_
_geom_bond_atom_site_label_1
_geom_bond_atom_site_label_2
_ccdc_geom_bond_type
C63   C65   A    
C117  C133  A    
C90   C95   S    
C13   C60   S    
O102  S4    D    
C23   O76   S    
C73   C75   S    
C84   C86   A    
H49   O67   S    
C86   C88   A    
C128  H9    S    
H47   O65   S    
O45   Zn8   S    
C25   O78   S    
C61   C63   A    
O70   S10   D    
C79   C90   A    
C62   C64   A    
C109  O10   A    
C91   C96   S    
C1    O25   A    
O52   S1    S    
C97   H4    S    
C27   C50   T    
O80   S12   D    
C58   C61   A    
C8    C16   A    
O8    Zn12  S    
C34   C60   S    
C112  O16   A    
O41   Zn8   S    
C80   C83   A    
C89   C116  S    
C14   S9    S    
C29   C69   S    
O6    S6    D    
C121  H18   S    
C3    O68   S    
C60   S12   S    
C99   O43   A    
C4    C23   S    
C92   O38   A    
O25   Zn6   S    
O39   Zn10  S    
C1    O1    A    
C100  C124  S    
C101  O45   A    
C8    S10   S    
C3    C118  S    
C55   C126  S    
O28   Zn10  S    
C6    C106  S    
H54   O77   S    
C38   O97   S    
C118  C124  A    
C69   O31   A    
C124  C127  A    
C37   C121  S    
O40   Zn7   S    
H59   O86   S    
O72   Zn8   S    
C87   C89   A    
C2    C47   S    
O32   Zn6   S    
C65   S6    S    
H43   O62   S    
O9    Zn2   S    
C66   O32   A    
C79   C97   S    
C76   H39   S    
C95   C97   S    
H51   O71   S    
O21   Zn12  S    
H41   O55   S    
O87   S14   D    
H50   O68   S    
C9    C15   A    
C94   O37   A    
H44   O63   S    
C57   C59   A    
C4    C20   A    
C125  C129  A    
C10   S1    S    
C132  C134  S    
C133  C135  S    
O36   Zn1   S    
C22   C23   S    
O5    S6    D    
O37   Zn5   S    
C110  O13   A    
C43   C47   S    
C41   C51   S    
C13   C44   S    
C42   C52   S    
C46   H29   S    
O22   Zn2   S    
C122  H19   S    
C136  O65   S    
C99   O41   A    
C107  O2    A    
C74   C76   S    
O74   S11   D    
O71   S10   S    
C28   C68   S    
C76   C78   S    
C86   O63   S    
C96   H2    S    
C40   C50   S    
C113  O19   A    
C53   C104  S    
C95   H67   S    
H53   O76   S    
C78   H34   S    
C57   C73   A    
C10   C119  S    
C70   C110  S    
C81   C92   S    
C12   C121  S    
C96   C98   S    
C44   H27   S    
C89   C91   A    
C32   C55   T    
C108  C130  S    
C104  C119  S    
O86   S13   S    
C116  O24   A    
O27   Zn1   S    
C11   C120  S    
C18   C113  S    
C35   C82   S    
O43   Zn10  S    
O11   Zn4   S    
O16   Zn12  S    
C10   C44   S    
C34   C39   S    
C26   C66   S    
O13   Zn2   S    
C12   C46   S    
O92   S2    S    
C43   H35   S    
C134  H13   S    
C111  O14   A    
O54   S7    D    
C49   O26   A    
O100  S3    S    
C87   O64   S    
H60   O89   S    
C101  O28   A    
C75   C77   S    
O7    S6    S    
C103  O50   A    
C7    C107  S    
O29   Zn1   S    
O99   S3    D    
C49   O17   A    
O84   S13   D    
C58   C74   A    
C36   O95   S    
C119  H16   S    
C21   C25   S    
O42   Zn9   S    
O38   Zn6   S    
C102  O39   A    
C36   C71   S    
C3    O67   S    
O48   Zn9   S    
O18   Zn2   S    
C65   C72   A    
O34   Zn7   S    
C66   O27   A    
C3    C134  S    
C76   H38   S    
C106  O94   A    
C98   H5    S    
C2    C56   S    
O19   Zn3   S    
C35   C46   S    
C125  H7    S    
C38   C93   S    
C82   S14   S    
C31   C54   T    
C37   C41   S    
C11   C40   S    
C35   C41   S    
C118  C132  A    
C75   H36   S    
C60   C104  S    
C94   O40   A    
C97   H3    S    
O59   S9    D    
H70   O7    S    
H46   O64   S    
C14   C122  S    
O69   S10   D    
O57   S8    D    
C103  O47   A    
C21   H22   S    
O12   Zn12  S    
O73   S11   D    
O90   S2    D    
C114  O21   A    
O23   Zn3   S    
C135  C136  S    
C37   O96   S    
C134  H11   S    
H58   O82   S    
O88   S14   D    
O98   S3    D    
C77   H1    S    
O85   S13   D    
C1    C59   S    
C22   H26   S    
C28   C51   T    
C123  C125  A    
C82   C126  S    
O91   S2    D    
O3    S5    D    
C62   S3    S    
C109  C131  S    
C96   H72   S    
C26   C48   T    
C33   C56   T    
C72   C111  S    
C95   H71   S    
O17   Zn5   S    
H48   O66   S    
C2    C122  S    
C44   C104  S    
H62   O93   S    
C49   C61   S    
C31   C102  S    
C57   C77   S    
C33   C105  S    
C72   C74   A    
O82   S12   S    
C34   O93   S    
C47   H30   S    
H40   O52   S    
C6    C8    A    
H69   O4    S    
C100  O44   A    
C83   C94   S    
C67   O29   A    
C10   C39   S    
C102  O46   A    
C25   O79   S    
C130  C132  A    
C12   C41   S    
C109  O11   A    
H57   O79   S    
C54   C115  S    
C70   C73   A    
H42   O58   S    
C32   C103  S    
O4    S5    S    
C27   C67   S    
C111  O15   A    
O15   Zn4   S    
C77   H12   S    
O55   S7    S    
C129  H10   S    
C108  O8    A    
O51   S1    D    
C4    C6    A    
C83   C85   A    
C88   C90   A    
C71   S13   S    
C11   S7    S    
C35   H33   S    
C21   H24   S    
C37   C82   S    
C11   C45   S    
C42   C43   S    
C127  C128  A    
C135  H14   S    
C5    C7    A    
C34   C119  S    
C15   C17   A    
O47   Zn9   S    
C80   C98   S    
C16   H21   S    
C136  O66   S    
C69   O35   A    
C128  C130  A    
O1    Zn1   S    
C5    C19   A    
O10   Zn3   S    
H65   O97   S    
C80   C91   A    
O94   Zn10  S    
C135  H15   S    
C30   C101  S    
C43   C93   S    
O62   S9    S    
H63   O95   S    
C127  H8    S    
H64   O96   S    
C88   C114  S    
C36   C120  S    
C58   C78   S    
C78   H23   S    
O31   Zn5   S    
O50   Zn11  S    
C105  O48   A    
C117  C136  S    
C39   C48   S    
C19   C21   S    
H61   O92   S    
C9    S11   S    
C75   H37   S    
O26   Zn7   S    
C67   O33   A    
O14   Zn3   S    
C85   H56   S    
C24   C45   S    
C84   H45   S    
C24   H32   S    
C45   H28   S    
C38   C42   S    
C100  O42   A    
O35   Zn7   S    
C13   H31   S    
O61   Zn11  S    
O53   S7    D    
C63   S4    S    
O33   Zn6   S    
C24   C40   S    
O20   Zn4   S    
C68   O34   A    
C64   C70   A    
H68   O103  S    
C110  O12   A    
C14   C42   S    
H52   O75   S    
O103  S4    S    
O101  S4    D    
C107  O83   A    
C85   C87   A    
C30   C53   T    
C112  O18   A    
C36   C40   S    
H66   O100  S    
C79   C81   A    
C113  O20   A    
O30   Zn5   S    
O24   Zn4   S    
O49   S1    D    
C45   C115  S    
C93   S2    S    
C71   C115  S    
C38   C122  S    
C15   H20   S    
O56   S8    D    
C23   O77   S    
C105  O61   A    
C22   H25   S    
C116  O23   A    
C12   S8    S    
C5    C25   S    
C106  O72   A    
O44   Zn11  S    
C108  O9    A    
C17   C112  S    
C81   C84   A    
C99   C123  S    
C7    C9    A    
C59   C62   A    
C46   C126  S    
C2    C93   S    
O58   S8    S    
C20   C22   S    
C131  C133  A    
C114  O22   A    
C14   C47   S    
O60   S9    D    
O2    Zn11  S    
C64   S5    S    
C117  C123  A    
C121  C126  S    
C68   O30   A    
C92   O36   A    
O46   Zn8   S    
O83   Zn9   S    
C120  H17   S    
C17   C19   A    
C18   C20   A    
C13   C39   S    
O75   S11   S    
C24   C71   S    
C16   C18   A    
C115  C120  S    
O104  S5    D    
H55   O78   S    
C98   H6    S    
O81   S12   D    
O89   S14   S    
C129  C131  A    
C29   C52   T    
