data_mof_unit_57067.cif
_audit_creation_date              2013-03-05T15:44:37-0500
_audit_creation_method            fapswitch 2.2
_symmetry_space_group_name_H-M    P1
_symmetry_Int_Tables_number       1
_space_group_crystal_system       triclinic
_cell_length_a                    19.099135
_cell_length_b                    11.013265
_cell_length_c                    18.865808
_cell_angle_alpha                 90.270603
_cell_angle_beta                  89.379779
_cell_angle_gamma                 89.740061
_cell_volume                      3967.987885

loop_
_atom_site_label
_atom_site_type_symbol
_atom_site_description
_atom_site_fract_x
_atom_site_fract_y
_atom_site_fract_z
_atom_type_partial_charge
O1    O     O_R   0.787540 0.042690 0.170470 -0.486409
O2    O     O_R   0.212460 0.042690 0.829530 -0.488220
O3    O     O_R   0.287540 0.542690 0.170470 -0.486422
O4    O     O_R   0.712460 0.542690 0.829530 -0.488223
O5    O     O_R   0.765660 0.292160 0.175050 -0.500783
O6    O     O_R   0.234340 0.292160 0.824950 -0.501059
O7    O     O_R   0.265660 0.792160 0.175050 -0.500789
O8    O     O_R   0.734340 0.792160 0.824950 -0.501070
C1    C     C_R   0.731208 0.376799 0.146016 0.534375
C2    C     C_R   0.268737 0.376925 0.853931 0.537028
C3    C     C_R   0.231208 0.876800 0.146016 0.534346
C4    C     C_R   0.768737 0.876925 0.853931 0.537023
O9    O     O_R   0.670190 0.408980 0.168550 -0.514855
O10   O     O_R   0.329810 0.408980 0.831450 -0.507088
O11   O     O_R   0.170190 0.908980 0.168550 -0.514871
O12   O     O_R   0.829810 0.908980 0.831450 -0.507086
O13   O     O_R   0.556580 0.251450 0.175160 -0.460077
O14   O     O_R   0.443420 0.251450 0.824840 -0.458252
O15   O     O_R   0.056580 0.751450 0.175160 -0.460075
O16   O     O_R   0.943420 0.751450 0.824840 -0.458247
C5    C     C_R   0.531659 0.155335 0.146445 0.568523
C6    C     C_R   0.468508 0.155479 0.853432 0.567509
C7    C     C_R   0.031659 0.655335 0.146445 0.568546
C8    C     C_R   0.968508 0.655479 0.853432 0.567512
O17   O     O_R   0.545920 0.049510 0.170320 -0.440842
O18   O     O_R   0.454080 0.049510 0.829680 -0.439269
O19   O     O_R   0.045920 0.549510 0.170320 -0.440837
O20   O     O_R   0.954080 0.549510 0.829680 -0.439266
O21   O     O_R   0.681390 0.957840 0.176710 -0.504281
O22   O     O_R   0.318610 0.957840 0.823290 -0.499618
O23   O     O_R   0.181390 0.457840 0.176710 -0.504298
O24   O     O_R   0.818610 0.457840 0.823290 -0.499616
C9    C     C_R   0.741447 0.972090 0.146433 0.540866
C10   C     C_R   0.258625 0.972067 0.853531 0.544116
C11   C     C_R   0.241447 0.472090 0.146433 0.540819
C12   C     C_R   0.758625 0.472067 0.853531 0.544131
O25   O     O_R   0.787500 0.044280 0.330990 -0.457862
O26   O     O_R   0.212500 0.044280 0.669010 -0.429662
O27   O     O_R   0.287500 0.544280 0.330990 -0.457670
O28   O     O_R   0.712500 0.544280 0.669010 -0.429727
O29   O     O_R   0.765610 0.293630 0.323860 -0.510633
O30   O     O_R   0.234390 0.293630 0.676140 -0.479968
O31   O     O_R   0.265610 0.793630 0.323860 -0.510653
O32   O     O_R   0.734390 0.793630 0.676140 -0.479929
C13   C     C_R   0.730021 0.380125 0.351758 0.561324
C14   C     C_R   0.272062 0.375178 0.646440 0.543440
C15   C     C_R   0.230025 0.880122 0.351741 0.561285
C16   C     C_R   0.772052 0.875198 0.646450 0.543405
O33   O     O_R   0.670140 0.410570 0.329080 -0.495814
O34   O     O_R   0.329860 0.410570 0.670920 -0.514478
O35   O     O_R   0.170140 0.910570 0.329080 -0.495792
O36   O     O_R   0.829860 0.910570 0.670920 -0.514371
O37   O     O_R   0.556540 0.252920 0.323970 -0.483957
O38   O     O_R   0.443460 0.252920 0.676030 -0.494472
O39   O     O_R   0.056540 0.752920 0.323970 -0.483934
O40   O     O_R   0.943460 0.752920 0.676030 -0.494472
C17   C     C_R   0.533813 0.158593 0.354401 0.560496
C18   C     C_R   0.467239 0.156143 0.646322 0.516228
C19   C     C_R   0.033826 0.658588 0.354409 0.560627
C20   C     C_R   0.967263 0.656142 0.646335 0.516202
O41   O     O_R   0.545870 0.051100 0.330840 -0.521834
O42   O     O_R   0.454130 0.051100 0.669160 -0.521486
O43   O     O_R   0.045870 0.551100 0.330840 -0.521832
O44   O     O_R   0.954130 0.551100 0.669160 -0.521564
O45   O     O_R   0.681340 0.959300 0.325510 -0.529502
O46   O     O_R   0.318660 0.959300 0.674490 -0.527210
O47   O     O_R   0.181340 0.459300 0.325510 -0.529555
O48   O     O_R   0.818660 0.459300 0.674490 -0.527228
C21   C     C_R   0.740458 0.973000 0.354822 0.584824
C22   C     C_R   0.271983 0.019493 0.638244 0.575336
C23   C     C_R   0.240472 0.472961 0.354810 0.584611
C24   C     C_R   0.772031 0.519667 0.638288 0.575547
Cr1   Cr    Cr6+3 0.772000 0.169640 0.250110 1.082790
Cr2   Cr    Cr6+3 0.228000 0.169640 0.749890 1.102332
Cr3   Cr    Cr6+3 0.272000 0.669640 0.250110 1.082824
Cr4   Cr    Cr6+3 0.728000 0.669640 0.749890 1.102327
Cr5   Cr    Cr6+3 0.614960 0.323350 0.249260 1.088074
Cr6   Cr    Cr6+3 0.385040 0.323350 0.750740 1.083757
Cr7   Cr    Cr6+3 0.114960 0.823350 0.249260 1.088103
Cr8   Cr    Cr6+3 0.885040 0.823350 0.750740 1.083766
Cr9   Cr    Cr6+3 0.616670 0.010620 0.250840 1.072151
Cr10  Cr    Cr6+3 0.383330 0.010620 0.749160 1.072077
Cr11  Cr    Cr6+3 0.116670 0.510620 0.250840 1.072104
Cr12  Cr    Cr6+3 0.883330 0.510620 0.749160 1.072032
O49   O     O_3   0.667880 0.167870 0.250070 -0.283083
O50   O     O_3   0.332120 0.167870 0.749930 -0.305921
O51   O     O_3   0.167880 0.667870 0.250070 -0.283065
O52   O     O_3   0.832120 0.667870 0.749930 -0.306058
C25   C     C_R   0.500186 0.164308 0.925045 -0.059589
C26   C     C_R   0.500617 0.163713 0.074521 -0.059519
C27   C     C_R   0.000186 0.664308 0.925045 -0.059589
C28   C     C_R   0.000617 0.663713 0.074521 -0.059515
C29   C     C_R   0.502670 0.276764 0.962447 -0.066947
C30   C     C_R   0.497110 0.276426 0.037951 -0.066564
C31   C     C_R   0.002670 0.776764 0.962447 -0.066946
C32   C     C_R   0.997110 0.776426 0.037951 -0.066564
C33   C     C_R   0.496714 0.053949 0.035972 0.174422
C34   C     C_R   0.505922 0.054454 0.962610 0.175349
C35   C     C_R   0.996714 0.553949 0.035972 0.174423
C36   C     C_R   0.005922 0.554454 0.962610 0.175349
C37   C     C_R   0.510002 0.390342 0.926983 0.241231
C38   C     C_R   0.488879 0.389681 0.074302 0.238296
C39   C     C_R   0.010002 0.890342 0.926983 0.241233
C40   C     C_R   0.988879 0.889681 0.074302 0.238291
C41   C     C_R   0.002192 0.998491 0.964659 -0.033122
C42   C     C_R   0.996845 0.998134 0.037676 -0.039413
C43   C     C_R   0.502192 0.498491 0.964660 -0.033125
C44   C     C_R   0.496845 0.498134 0.037676 -0.039412
H1    H     H_    0.005733 0.084570 0.937330 0.221388
H2    H     H_    0.993052 0.083967 0.065774 0.217315
H3    H     H_    0.505733 0.584570 0.937330 0.221388
H4    H     H_    0.493052 0.583967 0.065774 0.217317
C45   C     C_R   0.698974 0.865780 0.040647 -0.091975
C46   C     C_R   0.302135 0.867167 0.959206 -0.092493
C47   C     C_R   0.198974 0.365780 0.040647 -0.091976
C48   C     C_R   0.802135 0.367167 0.959206 -0.092492
H5    H     H_    0.660207 0.819638 0.072910 0.198077
H6    H     H_    0.342072 0.822682 0.927040 0.199009
H7    H     H_    0.160207 0.319638 0.072910 0.198074
H8    H     H_    0.842072 0.322682 0.927040 0.199012
C49   C     C_R   0.696126 0.854638 0.967459 0.259306
C50   C     C_R   0.304517 0.855726 0.032394 0.259630
C51   C     C_R   0.196126 0.354638 0.967459 0.259306
C52   C     C_R   0.804517 0.355726 0.032394 0.259627
C53   C     C_R   0.746286 0.917482 0.924562 -0.039944
C54   C     C_R   0.253138 0.916924 0.075303 -0.040657
C55   C     C_R   0.246286 0.417482 0.924562 -0.039947
C56   C     C_R   0.753138 0.416924 0.075304 -0.040654
C57   C     C_R   0.791616 0.998534 0.956750 -0.101738
C58   C     C_R   0.206663 0.996403 0.043107 -0.101242
C59   C     C_R   0.291616 0.498534 0.956750 -0.101740
C60   C     C_R   0.706663 0.496403 0.043107 -0.101238
H9    H     H_    0.829300 0.050365 0.926022 0.182603
H10   H     H_    0.167979 0.047215 0.073766 0.182577
H11   H     H_    0.329299 0.550365 0.926022 0.182601
H12   H     H_    0.667979 0.547215 0.073766 0.182580
C61   C     C_R   0.798691 0.998847 0.028761 0.219070
C62   C     C_R   0.200166 0.996811 0.971008 0.219605
C63   C     C_R   0.298691 0.498847 0.028761 0.219075
C64   C     C_R   0.700166 0.496811 0.971008 0.219602
C65   C     C_R   0.750169 0.936512 0.072271 -0.055837
C66   C     C_R   0.249991 0.936228 0.927516 -0.056967
C67   C     C_R   0.250169 0.436513 0.072271 -0.055835
C68   C     C_R   0.749991 0.436228 0.927516 -0.056963
C69   C     C_R   0.474832 0.073802 0.456785 -0.190475
C70   C     C_R   0.467112 0.067022 0.528891 -0.187093
C71   C     C_R   0.975009 0.573667 0.456838 -0.190534
C72   C     C_R   0.967332 0.566881 0.528943 -0.187180
H13   H     H_    0.457224 0.998275 0.424603 0.157273
H14   H     H_    0.441111 0.987849 0.549908 0.159269
H15   H     H_    0.957459 0.498074 0.424677 0.157328
H16   H     H_    0.941439 0.487613 0.549967 0.159292
C73   C     C_R   0.490667 0.160905 0.573141 -0.034414
C74   C     C_R   0.508198 0.173164 0.426752 -0.018816
C75   C     C_R   0.990760 0.660884 0.573173 -0.034450
C76   C     C_R   0.008259 0.673118 0.426779 -0.019069
C77   C     C_R   0.524258 0.262856 0.544035 0.263149
C78   C     C_R   0.531058 0.271007 0.470625 0.256288
C79   C     C_R   0.024267 0.762902 0.544048 0.263239
C80   C     C_R   0.031064 0.771023 0.470634 0.256145
C81   C     C_R   0.813699 0.906168 0.454061 0.226420
C82   C     C_R   0.220323 0.058597 0.520099 0.260898
C83   C     C_R   0.313805 0.406603 0.454098 0.226435
C84   C     C_R   0.720409 0.558889 0.520087 0.260790
C85   C     C_R   0.820405 0.891267 0.526917 -0.116690
C86   C     C_R   0.214203 0.028911 0.448427 -0.072797
C87   C     C_R   0.320487 0.391769 0.526958 -0.116952
C88   C     C_R   0.714220 0.529053 0.448430 -0.072686
H17   H     H_    0.871614 0.871236 0.548304 0.136525
H18   H     H_    0.176662 0.077550 0.416418 0.132449
H19   H     H_    0.371739 0.372162 0.548380 0.136833
H20   H     H_    0.676631 0.577599 0.416435 0.132461
C89   C     C_R   0.761624 0.900069 0.572109 0.027133
C90   C     C_R   0.251996 0.931254 0.419382 0.007855
C91   C     C_R   0.261640 0.400069 0.572098 0.026835
C92   C     C_R   0.752010 0.431370 0.419390 0.007941
C93   C     C_R   0.695178 0.919025 0.544525 -0.126590
C94   C     C_R   0.301187 0.869714 0.460594 -0.156753
C95   C     C_R   0.195161 0.418462 0.544452 -0.126525
C96   C     C_R   0.801267 0.369980 0.460589 -0.156717
H21   H     H_    0.649453 0.923296 0.578956 0.148773
H22   H     H_    0.330717 0.793425 0.439271 0.155875
H23   H     H_    0.149388 0.422324 0.578838 0.148996
H24   H     H_    0.830805 0.293690 0.439281 0.155736
C97   C     C_R   0.687958 0.933316 0.471871 -0.188550
C98   C     C_R   0.308613 0.899751 0.531669 -0.189124
C99   C     C_R   0.187960 0.432673 0.471791 -0.188622
C100  C     C_R   0.808747 0.400143 0.531645 -0.188954
H25   H     H_    0.636431 0.953455 0.451389 0.148048
H26   H     H_    0.344739 0.847168 0.563137 0.146118
H27   H     H_    0.136386 0.452360 0.451270 0.148087
H28   H     H_    0.844908 0.347616 0.563099 0.146107
C101  C     C_R   0.747270 0.929287 0.426783 0.065792
C102  C     C_R   0.267163 0.991975 0.562378 0.063840
C103  C     C_R   0.247327 0.429165 0.426754 0.065710
C104  C     C_R   0.767281 0.492336 0.562373 0.063833
N1    N     N_R   0.482109 0.942384 0.072307 0.135043
O53   O     O_R   0.523358 0.848818 0.064581 -0.278865
O54   O     O_R   0.437872 0.944586 0.125272 -0.361520
N2    N     N_R   0.521906 0.943759 0.925111 0.133190
O55   O     O_R   0.481345 0.849727 0.931406 -0.276952
O56   O     O_R   0.565937 0.947932 0.872016 -0.365564
N3    N     N_R   0.982109 0.442384 0.072307 0.135041
O57   O     O_R   0.023358 0.348818 0.064581 -0.278869
O58   O     O_R   0.937872 0.444586 0.125272 -0.361503
N4    N     N_R   0.021906 0.443759 0.925111 0.133191
O59   O     O_R   0.981346 0.349727 0.931406 -0.276950
O60   O     O_R   0.065937 0.447933 0.872016 -0.365565
O61   O     O_3   0.870921 0.900357 0.408837 -0.685382
H29   H     H_    0.913688 0.892203 0.437474 0.317198
O62   O     O_3   0.179104 0.148686 0.550300 -0.663214
H30   H     H_    0.146069 0.180006 0.514469 0.325292
O63   O     O_3   0.371102 0.401287 0.408943 -0.685284
H31   H     H_    0.413877 0.393662 0.437633 0.317276
O64   O     O_3   0.679208 0.649016 0.550273 -0.663279
H32   H     H_    0.646195 0.680365 0.514430 0.325294
O65   O     O_3   0.532980 0.400590 0.857675 -0.686266
H33   H     H_    0.564059 0.330347 0.846897 0.319216
O66   O     O_3   0.464950 0.399330 0.143405 -0.686385
H34   H     H_    0.434441 0.328645 0.153329 0.323231
O67   O     O_3   0.032980 0.900590 0.857675 -0.686274
H35   H     H_    0.064059 0.830347 0.846896 0.319210
O68   O     O_3   0.964950 0.899330 0.143405 -0.686384
H36   H     H_    0.934441 0.828646 0.153329 0.323255
O69   O     O_3   0.643183 0.782481 0.942658 -0.571447
H37   H     H_    0.639833 0.785888 0.890968 0.399116
O70   O     O_3   0.358425 0.785411 0.057234 -0.572548
H38   H     H_    0.360394 0.787380 0.109066 0.397099
O71   O     O_3   0.143183 0.282481 0.942658 -0.571447
H39   H     H_    0.139832 0.285888 0.890968 0.399115
O72   O     O_3   0.858425 0.285411 0.057234 -0.572550
H40   H     H_    0.860394 0.287380 0.109066 0.397097
O73   O     O_3   0.854953 0.060284 0.054143 -0.647550
H41   H     H_    0.873402 0.013367 0.093891 0.371646
O74   O     O_3   0.143314 0.056956 0.945496 -0.646006
H42   H     H_    0.126110 0.010116 0.904995 0.371452
O75   O     O_3   0.354953 0.560284 0.054143 -0.647548
H43   H     H_    0.373402 0.513367 0.093891 0.371645
O76   O     O_3   0.643314 0.556956 0.945496 -0.646005
H44   H     H_    0.626110 0.510116 0.904995 0.371453
O77   O     O_3   0.550883 0.355950 0.584905 -0.621425
H45   H     H_    0.558443 0.326125 0.633660 0.332545
O78   O     O_3   0.563687 0.372665 0.444160 -0.633856
H46   H     H_    0.533589 0.405414 0.406296 0.337072
O79   O     O_3   0.050798 0.856097 0.584901 -0.621330
H47   H     H_    0.058387 0.826315 0.633660 0.332561
O80   O     O_3   0.063581 0.872769 0.444144 -0.633756
H48   H     H_    0.033438 0.905404 0.406283 0.337085

loop_
_geom_bond_atom_site_label_1
_geom_bond_atom_site_label_2
_geom_bond_distance
_ccdc_geom_bond_type
O7    Cr3   1.964922 S    
C18   O42   1.261612 A    
Cr11  O51   1.992833 S    
N3    O57   1.300954 A    
O4    C12   1.262197 A    
C98   H26   1.082762 S    
C29   C30   1.427265 A    
O39   C19   1.265552 A    
O20   Cr12  2.088180 S    
C83   C87   1.392156 A    
C31   C32   1.427264 A    
O8    Cr4   1.956474 S    
C52   O72   1.373329 S    
C19   C76   1.452905 S    
C40   C42   1.390825 A    
C33   C34   1.393299 A    
C49   O69   1.373656 S    
O32   C16   1.280645 A    
O63   H31   0.988330 S    
O45   C21   1.271903 A    
O15   Cr7   1.963632 S    
O7    C3    1.268452 A    
N3    O58   1.301610 A    
C27   C31   1.423755 A    
C77   C78   1.392986 A    
O36   Cr8   2.083235 S    
C37   O65   1.380017 S    
C46   C66   1.392128 A    
C87   C91   1.405146 A    
C74   C78   1.428468 A    
C59   H11   1.085236 S    
O38   C18   1.280957 A    
N4    O60   1.302007 A    
C60   H12   1.085133 S    
O47   C23   1.271988 A    
C95   C99   1.388681 A    
C82   O62   1.380820 S    
C54   C58   1.390204 A    
C85   C89   1.405049 A    
O78   H46   0.990076 S    
O21   C9    1.286420 A    
C28   C32   1.424689 A    
C93   C97   1.388699 A    
O32   Cr4   1.957353 S    
O77   H45   0.989977 S    
O30   C14   1.280672 A    
N1    O54   1.301610 A    
O70   H38   0.979121 S    
C77   O77   1.382039 S    
C79   O79   1.382011 S    
C100  C104  1.404069 A    
C1    O9    1.283972 A    
C96   C100  1.388571 A    
C71   C72   1.369040 A    
C49   C53   1.430481 A    
C82   C86   1.395879 A    
C63   C67   1.413696 A    
O11   Cr7   2.075665 S    
O76   H44   0.980386 S    
C45   C65   1.390686 A    
N2    O55   1.301210 A    
O74   H42   0.980384 S    
C26   C30   1.424687 A    
C72   C75   1.404432 A    
O27   Cr3   2.085184 S    
C27   C36   1.409453 A    
O28   C24   1.297541 A    
O73   H41   0.980401 S    
Cr4   O52   1.988617 S    
C26   C33   1.410489 A    
C99   H27   1.083634 S    
O2    Cr2   2.077075 S    
O8    C4    1.269069 A    
C23   C103  1.449641 S    
C52   C56   1.429752 A    
C44   H4    1.083358 S    
O2    C10   1.262197 A    
C83   C103  1.397314 A    
O42   Cr10  2.067067 S    
Cr5   O49   1.984642 S    
O18   Cr10  2.088180 S    
C48   C68   1.392128 A    
O75   H43   0.980403 S    
O31   Cr3   1.947387 S    
C62   O74   1.362806 S    
C58   H10   1.085131 S    
C3    O11   1.283972 A    
C56   C60   1.390204 A    
Cr7   O51   1.984642 S    
C57   C61   1.366692 A    
C31   C39   1.428062 A    
C69   C70   1.369143 A    
C95   H23   1.083533 S    
C5    C26   1.489737 S    
C84   O64   1.380816 S    
C85   H17   1.084184 S    
O24   Cr12  1.948964 S    
C47   C67   1.390685 A    
C72   H16   1.080254 S    
C86   C90   1.398864 A    
C1    C56   1.464763 S    
O30   Cr2   1.957353 S    
O22   C10   1.282949 A    
C75   C79   1.406613 A    
O48   Cr12  1.966207 S    
C4    O12   1.288228 A    
C76   C80   1.428467 A    
C3    C54   1.464765 S    
C47   C51   1.387287 A    
O68   H36   0.991829 S    
O61   H29   0.988182 S    
C2    O10   1.288228 A    
C13   C92   1.459406 S    
C29   C37   1.428063 A    
O66   H34   0.991830 S    
C59   C63   1.366692 A    
O16   Cr8   1.964876 S    
N4    O59   1.301210 A    
C15   O35   1.269597 A    
C4    C53   1.462611 S    
O26   Cr2   2.077405 S    
C9    C65   1.458770 S    
O65   H33   0.991906 S    
Cr10  O50   1.984986 S    
O6    Cr2   1.956474 S    
C81   O61   1.380253 S    
C64   O76   1.362805 S    
O13   C5    1.282683 A    
O28   Cr4   2.077405 S    
C47   H7    1.083297 S    
O43   Cr11  2.061339 S    
O48   C24   1.309079 A    
O12   Cr8   2.064751 S    
Cr12  O52   1.984986 S    
C50   C54   1.429751 A    
O15   C7    1.282683 A    
O64   H32   0.991697 S    
O62   H30   0.991708 S    
O5    C1    1.268452 A    
O71   H39   0.978841 S    
C18   C73   1.447956 S    
C33   N1    1.436781 S    
O46   Cr10  1.966207 S    
O67   H35   0.991906 S    
O39   Cr7   1.953798 S    
O25   C21   1.275395 A    
C92   C96   1.400469 A    
O45   Cr9   1.966812 S    
C79   C80   1.393021 A    
C51   O71   1.373656 S    
O3    C11   1.263615 A    
C22   C102  1.465549 S    
C82   C102  1.410645 A    
C21   C101  1.449545 S    
O69   H37   0.978841 S    
C61   C65   1.413696 A    
O23   Cr11  1.941666 S    
C81   C101  1.397060 A    
C39   C41   1.390772 A    
C94   H22   1.083254 S    
O47   Cr11  1.966812 S    
Cr2   O50   1.988617 S    
C71   H15   1.084328 S    
C38   C44   1.390825 A    
C71   C76   1.388852 A    
O35   Cr7   2.081083 S    
Cr1   O49   1.988794 S    
C46   H6    1.083436 S    
C97   H25   1.083545 S    
C45   H5    1.083296 S    
C69   C74   1.388884 A    
C38   O66   1.380252 S    
C84   C88   1.396104 A    
Cr3   O51   1.988794 S    
O26   C22   1.297506 A    
O72   H40   0.979121 S    
O21   Cr9   1.941666 S    
C86   H18   1.083803 S    
C7    O19   1.280677 A    
C32   C40   1.427799 A    
C53   C57   1.388678 A    
C91   C95   1.392187 A    
O37   Cr5   1.953798 S    
C57   H9    1.085235 S    
C19   O43   1.281533 A    
C43   C44   1.380216 A    
C61   O73   1.362514 S    
C2    C55   1.462611 S    
C58   C62   1.367222 A    
C8    C27   1.489235 S    
O24   C12   1.282949 A    
C51   C55   1.430481 A    
O34   Cr6   2.083235 S    
O3    Cr3   2.065679 S    
C8    O20   1.280399 A    
O14   Cr6   1.964876 S    
C16   C89   1.445992 S    
C42   H2    1.083357 S    
C88   H20   1.083770 S    
C7    C28   1.489737 S    
C88   C92   1.399017 A    
C70   H14   1.080297 S    
C5    O17   1.280677 A    
C10   C66   1.460147 S    
O37   C17   1.265518 A    
O22   Cr10  1.948964 S    
C48   C52   1.388303 A    
C99   C103  1.409777 A    
O14   C6    1.282219 A    
C43   H3    1.083315 S    
C98   C102  1.403994 A    
C90   C94   1.400550 A    
C64   C68   1.412858 A    
C97   C101  1.409652 A    
C100  H28   1.082714 S    
O17   Cr9   2.088606 S    
C24   C104  1.465946 S    
C87   H19   1.084268 S    
O80   H48   0.990080 S    
C84   C104  1.410706 A    
C17   O41   1.281583 A    
C25   C29   1.423755 A    
C60   C64   1.367222 A    
O5    Cr1   1.964922 S    
C41   C42   1.380216 A    
C14   O34   1.263737 A    
O25   Cr1   2.085184 S    
O40   Cr8   1.944472 S    
C35   C36   1.393297 A    
C34   N2    1.436579 S    
C25   C34   1.409453 A    
C20   O44   1.261612 A    
O1    Cr1   2.065679 S    
C81   C85   1.392243 A    
C55   C59   1.388677 A    
O19   Cr11  2.088606 S    
C12   C68   1.460147 S    
C20   C75   1.448004 S    
Cr8   O52   1.992415 S    
C40   O68   1.380252 S    
O41   Cr9   2.061339 S    
C39   O67   1.380017 S    
O9    Cr5   2.075665 S    
O13   Cr5   1.963632 S    
C83   O63   1.380386 S    
Cr6   O50   1.992415 S    
O46   C22   1.309171 A    
C70   C73   1.404475 A    
C41   H1    1.083315 S    
C93   H21   1.083451 S    
C50   O70   1.373329 S    
C46   C50   1.388303 A    
C62   C66   1.412858 A    
C6    C25   1.489234 S    
O33   Cr5   2.081083 S    
C13   O33   1.269622 A    
O23   C11   1.286420 A    
C78   O78   1.376955 S    
O10   Cr6   2.064751 S    
C73   C77   1.406609 A    
N1    O53   1.300953 A    
C48   H8    1.083437 S    
Cr9   O49   1.992833 S    
C63   O75   1.362513 S    
O4    Cr4   2.077075 S    
C15   C90   1.458968 S    
C36   N4    1.436579 S    
O6    C2    1.269069 A    
O1    C9    1.263615 A    
O29   Cr1   1.947387 S    
C94   C98   1.388484 A    
O40   C20   1.281010 A    
C16   O36   1.263768 A    
C45   C49   1.387287 A    
C30   C38   1.427799 A    
O44   Cr12  2.067067 S    
N2    O56   1.302006 A    
C6    O18   1.280399 A    
C35   N3    1.436780 S    
C37   C43   1.390771 A    
O29   C13   1.275969 A    
C14   C91   1.446036 S    
C80   O80   1.376940 S    
C89   C93   1.392058 A    
O79   H47   0.989979 S    
C17   C74   1.452922 S    
O31   C15   1.275775 A    
O16   C8    1.282219 A    
C69   H13   1.084334 S    
C96   H24   1.083243 S    
C28   C35   1.410490 A    
C11   C67   1.458770 S    
O38   Cr6   1.944472 S    
O27   C23   1.275392 A    
