data_mof_unit_20781.cif
_audit_creation_date              2012-12-10T20:51:46-0500
_audit_creation_method            fapswitch 2.2
_symmetry_space_group_name_H-M    P1
_symmetry_Int_Tables_number       1
_space_group_crystal_system       triclinic
_cell_length_a                    8.099522
_cell_length_b                    8.916547
_cell_length_c                    16.804577
_cell_angle_alpha                 89.423581
_cell_angle_beta                  94.605767
_cell_angle_gamma                 89.924299
_cell_volume                      1209.63965596

loop_
_atom_site_label
_atom_site_type_symbol
_atom_type_description
_atom_site_fract_x
_atom_site_fract_y
_atom_site_fract_z
_atom_type_partial_charge
C1    C     C_R   0.500055 0.217975 0.500015 0.938230
C2    C     C_R   0.567827 0.641865 0.143356 -0.255086
C3    C     C_R   0.562411 0.591069 0.901991 0.260072
C4    C     C_R   0.441481 0.569045 0.096279 0.249316
C5    C     C_R   0.698022 0.534819 0.865681 -0.185929
C6    C     C_R   0.321330 0.486234 0.132214 -0.181480
C7    C     C_R   0.684165 0.506032 0.784388 -0.288317
C8    C     C_R   0.333037 0.466514 0.214416 -0.281027
C9    C     C_1   0.500176 0.065188 0.500209 -0.217151
C10   C     C_1   0.499991 0.934757 0.500391 -0.225832
C11   C     C_3   0.641711 0.831981 0.303529 0.118139
C12   C     C_R   0.500019 0.781998 0.500458 0.906555
C13   C     C_3   0.656174 0.966115 0.246740 -0.392362
C14   C     C_3   0.608036 0.112361 0.285489 -0.915196
C15   C     C_3   0.254857 0.791608 0.708650 0.082274
C16   C     C_3   0.096266 0.827152 0.656255 -0.290233
C17   C     C_3   0.089745 0.991492 0.629907 -0.932891
C18   C     C_R   0.521308 0.504419 0.653801 0.885856
C19   C     C_R   0.478491 0.506007 0.346353 0.885820
C20   C     C_R   0.534580 0.535347 0.738855 -0.148241
C21   C     C_R   0.464086 0.531968 0.261020 -0.156811
C22   C     C_R   0.402085 0.604511 0.774216 0.439983
C23   C     C_R   0.577405 0.626951 0.225771 0.463516
C24   C     C_R   0.416422 0.630490 0.855675 -0.266802
H1    H     H_    0.659118 0.710247 0.116377 0.166721
H2    H     H_    0.573363 0.949413 0.191610 0.217408
H3    H     H_    0.478154 0.106733 0.302119 0.255390
H4    H     H_    0.618551 0.207016 0.242756 0.270789
H5    H     H_    0.691734 0.134231 0.339761 0.271124
H6    H     H_    0.363319 0.817842 0.674015 0.128661
H7    H     H_    0.258910 0.863503 0.762642 0.130086
H8    H     H_    0.090155 0.755393 0.602450 0.242438
H9    H     H_    0.986909 0.801870 0.690051 0.220792
H10   H     H_    0.093083 0.065671 0.682727 0.261842
H11   H     H_    0.973074 0.013255 0.592156 0.271424
H12   H     H_    0.311810 0.678056 0.883004 0.163502
H13   H     H_    0.196084 0.018405 0.594490 0.275176
H14   H     H_    0.811494 0.506236 0.901149 0.157965
H15   H     H_    0.222655 0.431701 0.096054 0.156564
H16   H     H_    0.788849 0.457561 0.757530 0.194661
H17   H     H_    0.242753 0.396924 0.241402 0.184614
H18   H     H_    0.719275 0.854645 0.359634 0.185658
H19   H     H_    0.511637 0.821037 0.320299 0.103469
H20   H     H_    0.785772 0.974974 0.229916 0.238516
N1    N     N_1   0.073640 0.500030 0.499990 -0.033930
N2    N     N_1   0.926360 0.499970 0.500010 -0.031448
N3    N     N_2   0.571431 0.595952 0.985795 -0.185213
N4    N     N_2   0.434762 0.571906 0.012476 -0.182071
O1    O     O_R   0.636850 0.285340 0.500000 -0.619169
O2    O     O_3   0.254281 0.638346 0.730661 -0.625609
O3    O     O_R   0.363150 0.714660 0.500000 -0.619498
O4    O     O_R   0.363100 0.285350 0.500000 -0.616475
O5    O     O_R   0.636900 0.714650 0.500000 -0.626272
O6    O     O_R   0.652140 0.498630 0.616140 -0.629502
O7    O     O_R   0.347860 0.501370 0.383860 -0.620992
O8    O     O_R   0.378390 0.498650 0.616130 -0.569601
O9    O     O_R   0.621610 0.501350 0.383870 -0.577380
O10   O     O_3   0.703586 0.699520 0.270585 -0.632010
Zn1   Zn    Zn3+2 0.682780 0.499990 0.500010 0.986492
Zn2   Zn    Zn3+2 0.317220 0.500010 0.499990 0.993470

loop_
_geom_bond_atom_site_label_1
_geom_bond_atom_site_label_2
_ccdc_geom_bond_type
C23   O10   S    
C2    C4    A    
C7    H16   S    
N1    Zn2   S    
C11   H19   S    
C14   H3    S    
C16   H8    S    
C11   O10   S    
O4    Zn2   S    
C9    C10   T    
C12   O5    A    
O1    Zn1   S    
C18   O8    A    
C22   O2    S    
C8    C21   A    
O5    Zn1   S    
C16   H9    S    
C17   H13   S    
C13   C14   S    
C19   O9    A    
C15   H7    S    
C11   C13   S    
C3    C24   A    
C24   H12   S    
C10   C12   S    
C15   H6    S    
C3    N3    S    
C19   C21   S    
C20   C22   A    
C5    H14   S    
C2    H1    S    
C18   C20   S    
O6    Zn1   S    
C21   C23   A    
O8    Zn2   S    
N2    Zn1   S    
C1    O4    A    
C22   C24   A    
C13   H2    S    
O9    Zn1   S    
C17   H10   S    
C18   O6    A    
C14   H5    S    
C15   C16   S    
N1    N2    T    
C12   O3    A    
C1    C9    S    
C8    H17   S    
C11   H18   S    
C4    C6    A    
C7    C20   A    
C4    N4    S    
C15   O2    S    
C19   O7    A    
C2    C23   A    
C5    C7    A    
C6    H15   S    
C6    C8    A    
O3    Zn2   S    
C17   H11   S    
C14   H4    S    
O7    Zn2   S    
C1    O1    A    
C13   H20   S    
N3    N4    D    
C16   C17   S    
C3    C5    A    
