data_mof_unit_51123.cif
_audit_creation_date              2012-10-26T19:20:18-0400
_audit_creation_method            fapswitch 2.2
_symmetry_space_group_name_H-M    P1
_symmetry_Int_Tables_number       1
_space_group_crystal_system       triclinic
_cell_length_a                    15.820112
_cell_length_b                    11.030012
_cell_length_c                    9.825649
_cell_angle_alpha                 86.489141
_cell_angle_beta                  90.064115
_cell_angle_gamma                 93.785091
_cell_volume                      1707.57857906

loop_
_atom_site_label
_atom_site_type_symbol
_atom_type_description
_atom_site_fract_x
_atom_site_fract_y
_atom_site_fract_z
_atom_type_partial_charge
C1    C     C_R   0.499808 0.265046 0.504984 0.552015
C2    C     C_2   0.517954 0.862263 0.480772 -0.073757
C3    C     C_2   0.483317 0.064115 0.411320 0.233141
C4    C     C_R   0.340382 0.502662 0.500000 0.587041
C5    C     C_2   0.492577 0.131274 0.522133 0.161167
C6    C     C_2   0.442659 0.433878 0.926678 0.352338
C7    C     C_2   0.444643 0.431713 0.085014 0.443908
C8    C     C_R   0.503544 0.732964 0.495557 0.577764
C9    C     C_R   0.659844 0.500697 0.499978 0.510757
C10   C     C_3   0.969491 0.424573 0.594418 0.259791
C11   C     C_3   0.024890 0.395183 0.473163 -0.074505
C12   C     C_3   0.083714 0.507560 0.501886 -0.036732
C13   C     C_1   0.250860 0.506185 0.500926 0.063845
C14   C     C_1   0.749664 0.502285 0.499767 0.042178
C15   C     C_3   0.029681 0.535133 0.625093 -0.079746
C16   C     C_3   0.309493 0.377497 0.173208 0.055058
C17   C     C_3   0.263986 0.293556 0.282561 -0.300926
C18   C     C_3   0.603227 0.643932 0.115718 0.033609
C19   C     C_3   0.631114 0.753082 0.020092 -0.354614
C20   C     C_3   0.581703 0.110192 0.246355 -0.002818
C21   C     C_3   0.594763 0.146746 0.096345 -0.298553
C22   C     C_3   0.976785 0.617469 0.528596 -0.178455
C23   C     C_3   0.917231 0.505693 0.499935 0.008918
C24   C     C_3   0.032764 0.590326 0.405548 -0.097375
C25   C     C_3   0.972534 0.478624 0.379292 0.253052
C26   C     C_1   0.175340 0.507817 0.501866 0.017219
C27   C     C_1   0.825370 0.503945 0.499581 0.060519
C28   C     C_2   0.460445 0.933807 0.426633 0.279180
Cu1   Cu    Cu3+1 0.500020 0.500020 0.638630 1.104653
Cu2   Cu    Cu3+1 0.499980 0.499980 0.361370 1.071820
H1    H     H_    0.045150 0.304055 0.450512 0.162380
H2    H     H_    0.304983 0.475107 0.191124 0.155092
H3    H     H_    0.302759 0.284486 0.376299 0.191267
H4    H     H_    0.201987 0.328611 0.307062 0.099967
H5    H     H_    0.251796 0.201887 0.243405 0.209854
H6    H     H_    0.644537 0.568398 0.097607 0.140986
H7    H     H_    0.612420 0.672659 0.220697 0.184165
H8    H     H_    0.591705 0.830438 0.037585 0.194072
H9    H     H_    0.698470 0.781524 0.039569 0.124048
H10   H     H_    0.624547 0.729617 0.912154 0.180460
H11   H     H_    0.979241 0.199020 0.880326 0.383095
H12   H     H_    0.553912 0.531675 0.890738 0.210360
H13   H     H_    0.995607 0.423032 0.020750 0.403951
H14   H     H_    0.242681 0.958111 0.311810 0.364686
H15   H     H_    0.603726 0.016557 0.264480 0.099366
H16   H     H_    0.621553 0.174236 0.306752 0.145260
H17   H     H_    0.570381 0.237630 0.071725 0.174095
H18   H     H_    0.663282 0.150475 0.070806 0.127206
H19   H     H_    0.560770 0.077715 0.035251 0.219033
H20   H     H_    0.059988 0.658092 0.326645 0.169133
H21   H     H_    0.956072 0.708354 0.551151 0.157882
H22   H     H_    0.054283 0.557207 0.727139 0.177693
H23   H     H_    0.581172 0.899485 0.504074 0.076006
H24   H     H_    0.553620 0.193742 0.816154 0.331483
H25   H     H_    0.276352 0.182236 0.934033 0.375687
H26   H     H_    0.270655 0.365790 0.082586 0.198634
N1    N     N_2   0.499090 0.498660 0.846910 -0.357647
N2    N     N_2   0.499070 0.498630 0.153040 -0.084417
O1    O     O_R   0.500010 0.321960 0.617040 -0.451402
O2    O     O_2   0.562625 0.983215 0.718242 -0.345872
O3    O     O_3   0.493626 0.161731 0.814903 -0.429872
O4    O     O_2   0.278720 0.416982 0.850956 -0.324607
O5    O     O_2   0.363986 0.292021 0.722155 -0.202220
O6    O     O_3   0.332870 0.215512 0.962598 -0.446498
O7    O     O_3   0.394154 0.342637 0.158900 -0.476251
O8    O     O_3   0.517372 0.609972 0.091168 -0.497341
O9    O     O_2   0.872542 0.375869 0.817448 -0.266641
O10   O     O_2   0.874392 0.217383 0.652635 -0.254428
O11   O     O_3   0.006951 0.252352 0.806322 -0.501804
O12   O     O_R   0.499990 0.321920 0.382900 -0.452311
O13   O     O_2   0.879609 0.325688 0.227197 -0.249804
O14   O     O_2   0.885374 0.543291 0.155058 -0.278586
O15   O     O_3   0.018793 0.423468 0.114378 -0.511326
O16   O     O_2   0.366948 0.809593 0.248184 -0.228371
O17   O     O_2   0.318100 0.795459 0.485874 -0.277820
O18   O     O_3   0.297982 0.995873 0.340030 -0.496871
O19   O     O_3   0.495095 0.114968 0.279892 -0.479216
O20   O     O_R   0.379090 0.500010 0.617050 -0.408633
O21   O     O_R   0.379060 0.499970 0.382910 -0.507445
O22   O     O_R   0.500010 0.678080 0.617100 -0.458466
O23   O     O_R   0.499990 0.678040 0.382960 -0.480786
O24   O     O_R   0.620940 0.500030 0.617090 -0.516683
O25   O     O_R   0.620910 0.499990 0.382950 -0.542464
O26   O     O_2   0.408318 0.981960 0.712369 -0.170481
S1    S     S_3+6 0.489029 0.061000 0.693484 0.041290
S2    S     S_3+6 0.354401 0.341145 0.858891 0.084865
S3    S     S_3+6 0.926944 0.314685 0.720607 0.025304
S4    S     S_3+6 0.935213 0.441670 0.214932 0.032324
S5    S     S_3+6 0.358719 0.878621 0.374217 0.088126

loop_
_geom_bond_atom_site_label_1
_geom_bond_atom_site_label_2
_ccdc_geom_bond_type
H13   O15   S    
C21   H19   S    
O4    S2    D    
C20   O19   S    
C1    C5    S    
O16   S5    D    
C3    C28   S    
C18   H7    S    
C10   C15   S    
C1    O1    A    
O3    S1    S    
C11   C25   S    
C4    C13   S    
C18   C19   S    
Cu2   O25   S    
H14   O18   S    
Cu2   O12   S    
N2    O8    S    
C15   C22   S    
Cu1   O20   S    
Cu1   O1    S    
C16   C17   S    
C28   S5    S    
C23   C27   S    
C14   C27   T    
C7    N2    D    
C20   H15   S    
O11   S3    S    
C9    O24   A    
C21   H18   S    
C5    S1    S    
C11   H1    S    
C6    N1    D    
C17   H3    S    
H12   N1    S    
O6    S2    S    
O14   S4    D    
C24   H20   S    
C10   S3    S    
C8    O23   A    
O26   S1    D    
C4    O21   A    
C10   C11   S    
C25   S4    S    
C12   C26   S    
C9    C14   S    
C16   H26   S    
O15   S4    S    
C4    O20   A    
Cu1   Cu2   S    
C19   H8    S    
C7    O7    S    
C12   C15   S    
C11   C12   S    
H25   O6    S    
C15   H22   S    
C24   C25   S    
C19   H9    S    
C9    O25   A    
Cu2   O21   S    
Cu1   N1    S    
O5    S2    D    
C22   C24   S    
C13   C26   T    
C16   H2    S    
C17   H4    S    
C3    O19   S    
H11   O11   S    
C2    C8    S    
C3    C5    D    
C2    H23   S    
O2    S1    D    
C6    C7    S    
H24   O3    S    
C10   C23   S    
C18   O8    S    
C12   C24   S    
O9    S3    D    
C1    O12   A    
C6    S2    S    
Cu2   O23   S    
Cu1   O24   S    
Cu1   O22   S    
Cu2   N2    S    
C23   C25   S    
C19   H10   S    
O17   S5    D    
O13   S4    D    
C20   C21   S    
C8    O22   A    
O10   S3    D    
C22   C23   S    
O18   S5    S    
C2    C28   D    
C16   O7    S    
C17   H5    S    
C18   H6    S    
C20   H16   S    
C22   H21   S    
C21   H17   S    
