data_mof_unit_57240.cif
_audit_creation_date              2012-12-11T15:33:51-0500
_audit_creation_method            fapswitch 2.2
_symmetry_space_group_name_H-M    P1
_symmetry_Int_Tables_number       1
_space_group_crystal_system       triclinic
_cell_length_a                    27.842497
_cell_length_b                    7.18911
_cell_length_c                    22.161434
_cell_angle_alpha                 89.99829
_cell_angle_beta                  101.384708
_cell_angle_gamma                 89.999223
_cell_volume                      4348.6129696

loop_
_atom_site_label
_atom_site_type_symbol
_atom_type_description
_atom_site_fract_x
_atom_site_fract_y
_atom_site_fract_z
_atom_type_partial_charge
O1    O     O_R   0.207310 0.594030 0.676830 -0.533016
O2    O     O_R   0.792690 0.405970 0.323170 -0.527586
O3    O     O_R   0.292690 0.094030 0.823170 -0.533018
O4    O     O_R   0.707310 0.905970 0.176830 -0.527517
O5    O     O_R   0.197320 0.262370 0.795700 -0.541588
O6    O     O_R   0.802680 0.737630 0.204300 -0.538146
O7    O     O_R   0.302680 0.762370 0.704300 -0.541586
O8    O     O_R   0.697320 0.237630 0.295700 -0.538155
C1    C     C_R   0.183509 0.434551 0.810693 0.661876
C2    C     C_R   0.814106 0.565748 0.186179 0.669586
C3    C     C_R   0.316491 0.934551 0.689307 0.661874
C4    C     C_R   0.685893 0.065746 0.313819 0.669681
O9    O     O_R   0.201410 0.264250 0.675590 -0.530926
O10   O     O_R   0.798590 0.735750 0.324410 -0.538722
O11   O     O_R   0.298590 0.764250 0.824410 -0.530920
O12   O     O_R   0.701410 0.235750 0.175590 -0.538732
O13   O     O_R   0.296810 0.094940 0.702210 -0.537330
O14   O     O_R   0.703190 0.905060 0.297790 -0.541709
O15   O     O_R   0.203190 0.594940 0.797790 -0.537324
O16   O     O_R   0.796810 0.405060 0.202210 -0.541749
C5    C     C_R   0.188369 0.432315 0.653485 0.684793
C6    C     C_R   0.811254 0.567584 0.346439 0.685453
C7    C     C_R   0.311633 0.932309 0.846513 0.684796
C8    C     C_R   0.688746 0.067591 0.153560 0.685535
O17   O     O_3   0.281300 0.427390 0.758870 -0.372174
O18   O     O_3   0.718700 0.572610 0.241130 -0.373454
O19   O     O_3   0.218700 0.927390 0.741130 -0.372177
O20   O     O_3   0.781300 0.072610 0.258870 -0.373598
V1    V     V_3+5 0.244190 0.152150 0.748350 1.377724
V2    V     V_3+5 0.755810 0.847850 0.251650 1.361247
V3    V     V_3+5 0.255810 0.652150 0.751650 1.377748
V4    V     V_3+5 0.744190 0.347850 0.248350 1.361181
C9    C     C_R   0.652218 0.062922 0.094659 -0.056441
C10   C     C_R   0.347761 0.929905 0.906452 -0.048500
C11   C     C_R   0.847779 0.562887 0.405342 -0.056356
C12   C     C_R   0.152244 0.429941 0.593544 -0.048483
C13   C     C_R   0.633279 0.115746 0.984922 -0.156544
C14   C     C_R   0.367462 0.807414 0.010387 -0.158913
C15   C     C_R   0.866698 0.615463 0.515091 -0.156516
C16   C     C_R   0.132550 0.307576 0.489595 -0.158904
C17   C     C_R   0.665867 0.125654 0.041056 -0.176272
C18   C     C_R   0.334425 0.836318 0.955849 -0.166414
C19   C     C_R   0.834112 0.625418 0.458956 -0.176304
C20   C     C_R   0.165585 0.336413 0.544140 -0.166446
C21   C     C_R   0.603055 0.010275 0.092123 -0.217577
C22   C     C_R   0.397329 0.985960 0.912585 -0.202769
C23   C     C_R   0.896951 0.510378 0.407872 -0.217253
C24   C     C_R   0.102677 0.485996 0.587412 -0.202757
C25   C     C_R   0.568919 0.991203 0.035036 0.074992
C26   C     C_R   0.433743 0.930380 0.964892 0.072434
C27   C     C_R   0.931085 0.491250 0.464959 0.074790
C28   C     C_R   0.066265 0.430469 0.535098 0.072413
C29   C     C_R   0.585629 0.046486 0.981250 0.115707
C30   C     C_R   0.416856 0.852081 0.015184 0.112226
C31   C     C_R   0.914362 0.546345 0.518754 0.115698
C32   C     C_R   0.083157 0.352242 0.484798 0.112222
C33   C     C_R   0.518752 0.927387 0.028745 0.000271
C34   C     C_R   0.485903 0.948223 0.969377 -0.001541
C35   C     C_R   0.981259 0.427515 0.471243 0.000157
C36   C     C_R   0.014104 0.448279 0.530615 -0.001513
C37   C     C_R   0.507497 0.963335 0.916226 0.077246
C38   C     C_R   0.499804 0.832730 0.076418 0.085272
C39   C     C_R   0.992506 0.463259 0.583768 0.077270
C40   C     C_R   0.000213 0.332940 0.423559 0.085364
C41   C     C_R   0.555780 0.025640 0.923371 -0.237904
C42   C     C_R   0.449255 0.804837 0.068893 -0.231370
C43   C     C_R   0.944212 0.525451 0.576630 -0.237865
C44   C     C_R   0.050761 0.305055 0.431081 -0.231390
H1    H     H_    0.406492 0.073232 0.877135 0.105018
H2    H     H_    0.592440 0.997482 0.135481 0.111387
H3    H     H_    0.093512 0.573224 0.622869 0.105012
H4    H     H_    0.907576 0.497824 0.364514 0.111280
C45   C     C_R   0.646149 0.884615 0.392741 0.077989
C46   C     C_R   0.371605 0.120210 0.627538 0.085211
C47   C     C_R   0.853844 0.384626 0.107252 0.078009
C48   C     C_R   0.128396 0.620205 0.872463 0.085221
C49   C     C_R   0.608986 0.876428 0.427876 -0.145969
C50   C     C_R   0.408284 0.118380 0.592182 -0.165259
C51   C     C_R   0.891005 0.376435 0.072114 -0.145974
C52   C     C_R   0.091716 0.618373 0.907818 -0.165264
H5    H     H_    0.605718 0.757515 0.456273 0.134420
H6    H     H_    0.416142 0.245720 0.569819 0.141502
H7    H     H_    0.894275 0.257516 0.043723 0.134420
H8    H     H_    0.083858 0.745708 0.930183 0.141496
C53   C     C_R   0.575256 0.019685 0.428185 -0.010846
C54   C     C_R   0.434202 0.958457 0.583513 -0.003165
C55   C     C_R   0.924734 0.519690 0.071801 -0.010846
C56   C     C_R   0.065796 0.458452 0.916484 -0.003161
C57   C     C_R   0.578407 0.177253 0.391706 -0.149822
C58   C     C_R   0.424463 0.795715 0.614131 -0.145940
C59   C     C_R   0.921583 0.677259 0.108277 -0.149818
C60   C     C_R   0.075533 0.295718 0.885864 -0.145935
C61   C     C_R   0.614398 0.189689 0.355487 -0.191201
C62   C     C_R   0.387645 0.793854 0.649763 -0.206282
C63   C     C_R   0.885594 0.689697 0.144499 -0.191210
C64   C     C_R   0.112353 0.293858 0.850234 -0.206294
C65   C     C_R   0.648777 0.046117 0.354816 -0.082507
C66   C     C_R   0.358485 0.951311 0.654907 -0.070017
C67   C     C_R   0.851218 0.546124 0.145176 -0.082461
C68   C     C_R   0.141515 0.451311 0.845092 -0.070019
N1    N     N_R   0.507446 0.145042 0.473947 -0.281899
N2    N     N_R   0.500718 0.825514 0.535788 -0.281828
N3    N     N_R   0.992569 0.644994 0.026072 -0.281913
N4    N     N_R   0.999256 0.325553 0.964175 -0.281837
N5    N     N_R   0.474894 0.129139 0.510389 -0.292464
N6    N     N_R   0.533388 0.841502 0.499309 -0.294036
N7    N     N_R   0.025123 0.629087 0.989635 -0.292469
N8    N     N_R   0.966583 0.341546 0.000650 -0.294047
C69   C     C_R   0.470787 0.969864 0.542386 0.520666
C70   C     C_R   0.537640 0.001626 0.467660 0.520080
C71   C     C_R   0.029210 0.469856 0.957609 0.520677
C72   C     C_R   0.962351 0.501628 0.032326 0.520092
H9    H     H_    0.571314 0.049959 0.882851 0.120536
H10   H     H_    0.434519 0.737477 0.105138 0.118905
H11   H     H_    0.928673 0.549648 0.617153 0.120526
H12   H     H_    0.065497 0.237731 0.394831 0.118913
H13   H     H_    0.298462 0.781125 0.952679 0.116114
H14   H     H_    0.701869 0.183379 0.042596 0.115114
H15   H     H_    0.201547 0.281220 0.547307 0.116112
H16   H     H_    0.798101 0.683039 0.457421 0.115150
H17   H     H_    0.645609 0.161334 0.943894 0.114816
H18   H     H_    0.354684 0.739108 0.047915 0.115404
H19   H     H_    0.854356 0.660904 0.556127 0.114812
H20   H     H_    0.145332 0.239320 0.452062 0.115402
C73   C     C_3   0.485493 0.876553 0.853815 -0.344508
C74   C     C_3   0.473562 0.669107 0.859842 -0.285770
C75   C     C_3   0.447074 0.588636 0.798586 -0.774024
H21   H     H_    0.410891 0.657344 0.784269 0.227966
H22   H     H_    0.469148 0.609095 0.762473 0.232129
H23   H     H_    0.441001 0.437266 0.803770 0.213505
H24   H     H_    0.508164 0.590737 0.875844 0.194821
H25   H     H_    0.449848 0.647586 0.893984 0.206402
H26   H     H_    0.453715 0.953694 0.828369 0.162537
H27   H     H_    0.512166 0.884260 0.822540 0.169948
C76   C     C_3   0.529908 0.728750 0.131390 -0.348719
C77   C     C_3   0.564501 0.583519 0.112349 -0.306385
C78   C     C_3   0.592614 0.481056 0.168622 -0.726943
H28   H     H_    0.615469 0.580049 0.200540 0.234583
H29   H     H_    0.566973 0.408223 0.193204 0.208320
H30   H     H_    0.616758 0.376296 0.153537 0.231086
H31   H     H_    0.542718 0.480845 0.080682 0.199286
H32   H     H_    0.591254 0.648029 0.087809 0.210226
H33   H     H_    0.547863 0.822039 0.168505 0.158025
H34   H     H_    0.505295 0.648518 0.155707 0.169908
C79   C     C_3   0.014525 0.376471 0.646176 -0.344504
C80   C     C_3   0.026495 0.169065 0.640144 -0.285786
C81   C     C_3   0.053017 0.088642 0.701392 -0.774008
H35   H     H_    0.089184 0.157469 0.715697 0.227984
H36   H     H_    0.030947 0.108990 0.737515 0.232107
H37   H     H_    0.059127 0.937300 0.696204 0.213501
H38   H     H_    0.991908 0.090605 0.624157 0.194822
H39   H     H_    0.050202 0.147627 0.605988 0.206421
H40   H     H_    0.046285 0.453684 0.671628 0.162539
H41   H     H_    0.987849 0.384066 0.677450 0.169938
C82   C     C_3   0.970108 0.229003 0.368582 -0.348550
C83   C     C_3   0.935564 0.083601 0.387636 -0.306757
C84   C     C_3   0.907135 0.982271 0.331320 -0.726480
H42   H     H_    0.884041 0.081847 0.299902 0.234936
H43   H     H_    0.932576 0.910520 0.306183 0.208222
H44   H     H_    0.883207 0.876726 0.346429 0.230941
H45   H     H_    0.957427 0.980278 0.418959 0.199197
H46   H     H_    0.909012 0.147775 0.412560 0.210276
H47   H     H_    0.952124 0.322323 0.331493 0.158140
H48   H     H_    0.994714 0.148917 0.344216 0.169625
C85   C     C_3   0.682530 0.722173 0.396799 -0.343628
C86   C     C_3   0.678305 0.569486 0.444653 -0.352665
C87   C     C_3   0.716851 0.416533 0.447805 -0.744149
H49   H     H_    0.702534 0.284642 0.463513 0.223862
H50   H     H_    0.726526 0.392299 0.402306 0.242538
H51   H     H_    0.750211 0.453128 0.481859 0.217595
H52   H     H_    0.682026 0.632014 0.491241 0.203583
H53   H     H_    0.641795 0.502413 0.431870 0.207609
H54   H     H_    0.676670 0.651858 0.351313 0.201257
H55   H     H_    0.720220 0.779779 0.407813 0.171924
C88   C     C_3   0.347137 0.306984 0.629291 -0.347431
C89   C     C_3   0.301969 0.318505 0.577965 -0.309044
C90   C     C_3   0.284446 0.518931 0.565929 -0.763633
H56   H     H_    0.272496 0.576336 0.606811 0.249778
H57   H     H_    0.314211 0.607079 0.554615 0.235546
H58   H     H_    0.253257 0.524094 0.526163 0.211488
H59   H     H_    0.310211 0.261772 0.534412 0.199318
H60   H     H_    0.273524 0.230703 0.591846 0.192547
H61   H     H_    0.339654 0.343104 0.675056 0.200806
H62   H     H_    0.372880 0.416399 0.620611 0.159438
C91   C     C_3   0.817463 0.222190 0.103199 -0.343600
C92   C     C_3   0.821679 0.069525 0.055337 -0.352692
C93   C     C_3   0.783128 0.916601 0.052187 -0.744167
H63   H     H_    0.797420 0.784751 0.036416 0.223852
H64   H     H_    0.773492 0.892239 0.097701 0.242544
H65   H     H_    0.749748 0.953319 0.018186 0.217622
H66   H     H_    0.817955 0.132076 0.008750 0.203594
H67   H     H_    0.858187 0.002420 0.068111 0.207615
H68   H     H_    0.823329 0.151857 0.148683 0.201275
H69   H     H_    0.779774 0.279807 0.092194 0.171923
C94   C     C_3   0.152866 0.806974 0.870717 -0.347447
C95   C     C_3   0.198028 0.818474 0.922053 -0.309043
C96   C     C_3   0.215563 0.018886 0.934074 -0.763627
H70   H     H_    0.227515 0.076250 0.893186 0.249776
H71   H     H_    0.185804 0.107076 0.945382 0.235540
H72   H     H_    0.246753 0.024034 0.973839 0.211492
H73   H     H_    0.189772 0.761796 0.965607 0.199326
H74   H     H_    0.226470 0.730616 0.908191 0.192527
H75   H     H_    0.160357 0.843104 0.824956 0.200827
H76   H     H_    0.127122 0.916395 0.879390 0.159433
H77   H     H_    0.552877 0.291266 0.390858 0.142618
H78   H     H_    0.444935 0.669679 0.610309 0.136881
H79   H     H_    0.947112 0.791272 0.109121 0.142609
H80   H     H_    0.055060 0.169686 0.889683 0.136875
H81   H     H_    0.615108 0.312708 0.327450 0.134413
H82   H     H_    0.382004 0.668744 0.674130 0.130933
H83   H     H_    0.884884 0.812717 0.172532 0.134359
H84   H     H_    0.117993 0.168752 0.825867 0.130942

loop_
_geom_bond_atom_site_label_1
_geom_bond_atom_site_label_2
_ccdc_geom_bond_type
C73   H27   S    
O17   V3    S    
O1    C5    A    
C74   C75   S    
C64   H84   S    
C55   C59   A    
O19   V1    S    
C9    C21   A    
O3    C7    A    
C81   H35   S    
C10   C18   A    
C60   C64   A    
C91   H69   S    
C52   H8    S    
C11   C23   A    
C51   C55   A    
C79   C80   S    
C91   C92   S    
C15   H19   S    
C76   C77   S    
C46   C66   A    
C5    C12   S    
O7    C3    A    
C6    C11   S    
C78   H29   S    
C40   C82   S    
C35   C40   A    
C84   H42   S    
C3    C66   S    
C40   C44   A    
O9    V1    S    
C83   C84   S    
C81   H36   S    
C14   C18   A    
O16   V4    S    
O4    C8    A    
C63   C67   A    
C94   H75   S    
C62   C66   A    
C85   H54   S    
O1    V3    S    
O13   V1    S    
O2    V4    S    
C92   H66   S    
O3    V1    S    
C43   H11   S    
C93   H65   S    
C77   H32   S    
C28   C36   A    
C59   H79   S    
C58   H78   S    
C56   C71   S    
C1    O15   A    
C15   C31   A    
C56   C60   A    
C2    O16   A    
C16   C32   A    
O2    C6    A    
C12   C24   A    
C10   C22   A    
C21   C25   A    
C17   H14   S    
C11   C19   A    
O15   V3    S    
C16   C20   A    
C19   H16   S    
C13   C29   A    
C7    C10   S    
C34   C37   A    
O11   C7    A    
C92   C93   S    
C83   H46   S    
C35   C36   A    
O12   C8    A    
C86   H53   S    
C92   H67   S    
C47   C91   S    
C41   H9    S    
O10   V2    S    
C82   H47   S    
C58   C62   A    
C87   H51   S    
O5    V1    S    
N1    N5    A    
C89   H59   S    
C16   H20   S    
C78   H30   S    
C39   C43   A    
O7    V3    S    
C38   C42   A    
C26   C34   A    
C48   C68   A    
C33   C38   A    
C81   H37   S    
C87   H50   S    
C53   C70   S    
C54   C58   A    
C87   H49   S    
C53   C57   A    
O18   V4    S    
C95   C96   S    
C15   C19   A    
C55   C72   S    
C20   H15   S    
C90   H57   S    
C85   H55   S    
C32   C44   A    
C59   C63   A    
C57   C61   A    
C25   C33   A    
N8    C72   A    
N3    C72   A    
O8    V4    S    
C38   C76   S    
C96   H72   S    
C45   C65   A    
C2    C67   S    
C75   H22   S    
O5    C1    A    
C77   H31   S    
C60   H80   S    
C48   C94   S    
C50   H6    S    
C31   C43   A    
C88   C89   S    
C14   C30   A    
C74   H25   S    
O8    C4    A    
C90   H58   S    
C54   C69   S    
C47   C67   A    
O9    C5    A    
C26   C30   A    
C4    C65   S    
C14   H18   S    
C86   H52   S    
C44   H12   S    
C13   H17   S    
C79   H41   S    
C45   C85   S    
C76   H34   S    
O6    V2    S    
C83   H45   S    
C62   H82   S    
C1    C68   S    
C36   C39   A    
C61   H81   S    
C86   C87   S    
C82   H48   S    
C80   H39   S    
C12   C20   A    
C27   C35   A    
C24   H3    S    
C95   H74   S    
C75   H21   S    
C61   C65   A    
N4    N8    A    
C29   C41   A    
C88   H61   S    
C80   C81   S    
N6    C70   A    
C73   H26   S    
N5    C69   A    
C37   C73   S    
C89   C90   S    
C42   H10   S    
C63   H83   S    
C21   H2    S    
N7    C71   A    
C90   H56   S    
C48   C52   A    
C91   H68   S    
C77   C78   S    
C3    O13   A    
O6    C2    A    
N4    C71   A    
C23   C27   A    
C18   H13   S    
O11   V3    S    
C94   H76   S    
C84   H44   S    
O12   V4    S    
C78   H28   S    
C22   C26   A    
C8    C9    S    
C9    C17   A    
O10   C6    A    
C96   H71   S    
N1    C70   A    
C75   H23   S    
C79   H40   S    
C46   C88   S    
C52   C56   A    
C94   C95   S    
C51   H7    S    
C50   C54   A    
C33   C34   A    
C73   C74   S    
C74   H24   S    
C25   C29   A    
C64   C68   A    
O20   V2    S    
C76   H33   S    
N2    N6    A    
C27   C31   A    
C57   H77   S    
C13   C17   A    
C96   H70   S    
C23   H4    S    
C93   H64   S    
C89   H60   S    
O14   V2    S    
C49   C53   A    
C80   H38   S    
C37   C41   A    
C85   C86   S    
C24   C28   A    
C93   H63   S    
C84   H43   S    
C49   H5    S    
C46   C50   A    
C4    O14   A    
C82   C83   S    
C22   H1    S    
C45   C49   A    
N2    C69   A    
N3    N7    A    
C95   H73   S    
C30   C42   A    
C47   C51   A    
C39   C79   S    
O4    V2    S    
C28   C32   A    
C88   H62   S    
