data_mof_unit_16528.cif
_audit_creation_date              2013-03-05T16:19:41-0500
_audit_creation_method            fapswitch 2.2
_symmetry_space_group_name_H-M    P1
_symmetry_Int_Tables_number       1
_space_group_crystal_system       triclinic
_cell_length_a                    10.877408
_cell_length_b                    9.927625
_cell_length_c                    27.168463
_cell_angle_alpha                 89.214759
_cell_angle_beta                  87.302054
_cell_angle_gamma                 90.436078
_cell_volume                      2930.2088292

loop_
_atom_site_label
_atom_site_type_symbol
_atom_site_description
_atom_site_fract_x
_atom_site_fract_y
_atom_site_fract_z
_atom_type_partial_charge
O1    O     O_R   0.314910 0.616040 0.499990 -0.670179
O2    O     O_R   0.314910 0.383960 0.499990 -0.635300
C1    C     C_R   0.256199 0.499873 0.501562 0.771258
O3    O     O_R   0.500140 0.616020 0.428740 -0.565864
O4    O     O_R   0.500140 0.383980 0.428740 -0.633641
C2    C     C_R   0.498047 0.500685 0.405927 0.984580
Zn1   Zn    Zn3+2 0.500150 0.654960 0.499980 0.914446
Zn2   Zn    Zn3+2 0.500150 0.345040 0.499980 0.928319
O5    O     O_R   0.685320 0.616040 0.499970 -0.648531
O6    O     O_R   0.685320 0.383960 0.499970 -0.615176
O7    O     O_R   0.500090 0.616050 0.571230 -0.611668
O8    O     O_R   0.500090 0.383950 0.571230 -0.589662
C3    C     C_R   0.740571 0.500217 0.500535 0.860961
C4    C     C_R   0.497193 0.499681 0.593934 0.870940
C5    C     C_R   0.322235 0.578883 0.181890 0.622216
O9    O     O_2   0.275228 0.680554 0.209168 -0.532537
N1    N     N_R   0.395652 0.485484 0.202892 -0.319834
C6    C     C_R   0.443237 0.379363 0.176921 0.648927
C7    C     C_R   0.366329 0.399468 0.287133 0.452543
C8    C     C_R   0.397707 0.400770 0.336262 -0.438493
C9    C     C_R   0.525793 0.600755 0.320821 0.296398
C10   C     C_R   0.501352 0.594017 0.270027 0.329492
C11   C     C_R   0.419560 0.495033 0.254099 0.179428
C12   C     C_R   0.342639 0.460302 0.104656 -0.137400
C13   C     C_R   0.295139 0.568856 0.132229 -0.067751
C14   C     C_R   0.217650 0.661820 0.110316 -0.118590
C15   C     C_R   0.416136 0.362498 0.127213 -0.093914
C16   C     C_R   0.476590 0.500233 0.353218 -0.164896
H1    H     H_    0.174190 0.739899 0.132324 0.195964
C17   C     C_R   0.463693 0.500274 0.646356 -0.161078
C18   C     C_R   0.273646 0.569801 0.978647 0.072617
C19   C     C_R   0.339399 0.334603 0.975849 -0.008840
C20   C     C_R   0.311573 0.455419 0.951320 0.004565
C21   C     C_R   0.265935 0.694434 0.953741 -0.249341
C22   C     C_R   0.285480 0.703542 0.902996 -0.156233
C23   C     C_R   0.317673 0.589923 0.875694 0.021808
C24   C     C_R   0.328460 0.463951 0.899627 -0.091035
C25   C     C_R   0.359165 0.347983 0.872136 -0.126692
C26   C     C_R   0.390913 0.366367 0.821339 0.540849
N2    N     N_R   0.379828 0.489824 0.799286 -0.339119
C27   C     C_R   0.342713 0.600262 0.824940 0.482672
C28   C     C_R   0.310270 0.479522 0.714542 0.167890
C29   C     C_R   0.339632 0.478447 0.663687 0.357417
C30   C     C_R   0.555035 0.526499 0.679371 -0.268940
C31   C     C_R   0.525772 0.526452 0.729656 -0.130170
C32   C     C_R   0.404744 0.501902 0.747328 0.214501
O10   O     O_2   0.330632 0.719420 0.801208 -0.590668
C33   C     C_R   0.257999 0.558714 0.030634 0.009315
C34   C     C_R   0.319584 0.452224 0.054114 0.040765
C35   C     C_R   0.361759 0.340262 0.026719 0.056549
C36   C     C_R   0.191556 0.652799 0.060475 0.140698
H2    H     H_    0.277738 0.800460 0.885178 0.183328
H3    H     H_    0.251034 0.787291 0.973368 0.167484
O11   O     O_2   0.516855 0.291332 0.199439 -0.455678
C37   C     C_R   0.462024 0.253019 0.099434 0.477371
H4    H     H_    0.357481 0.325934 0.361703 0.172400
C38   C     C_R   0.346950 0.214047 0.948838 0.386787
C39   C     C_R   0.354875 0.219588 0.896388 0.068603
O12   O     O_2   0.436364 0.264215 0.794073 -0.577392
C40   C     C_R   0.434642 0.243602 0.049707 -0.261996
H5    H     H_    0.649338 0.544804 0.666178 0.162245
H6    H     H_    0.597654 0.543149 0.755198 0.155695
H7    H     H_    0.478452 0.164574 0.028500 0.180086
C41   C     C_3   0.056441 0.608664 0.540209 -0.018579
C42   C     C_3   0.055958 0.358939 0.519132 0.012140
H8    H     H_    0.096154 0.591014 0.576654 0.174874
H9    H     H_    0.065350 0.353084 0.559871 0.124815
C43   C     C_3   0.915383 0.584461 0.545630 -0.409961
C44   C     C_3   0.918252 0.356773 0.511259 -0.414491
H10   H     H_    0.892085 0.531146 0.581249 0.148031
H11   H     H_    0.869737 0.310454 0.544517 0.168230
H12   H     H_    0.861982 0.679140 0.547429 0.195218
H13   H     H_    0.894503 0.293938 0.479323 0.195767
H14   H     H_    0.114958 0.639174 0.438228 0.166482
H15   H     H_    0.104633 0.468457 0.422383 0.184249
H16   H     H_    0.904176 0.657890 0.445091 0.180574
H17   H     H_    0.895861 0.491453 0.421232 0.171054
C45   C     C_3   0.073171 0.541180 0.450609 -0.380961
C46   C     C_3   0.115957 0.501118 0.502452 0.083643
C47   C     C_3   0.874236 0.499914 0.502115 0.096049
C48   C     C_3   0.931582 0.551785 0.451801 -0.388732
C49   C     C_3   0.398422 0.077291 0.471497 -0.402330
C50   C     C_3   0.406282 0.919762 0.466902 -0.349407
H18   H     H_    0.393740 0.125500 0.434465 0.205028
H19   H     H_    0.428138 0.894072 0.427682 0.211169
H20   H     H_    0.312495 0.093164 0.491155 0.165434
H21   H     H_    0.315747 0.873112 0.474602 0.152638
H22   H     H_    0.616084 0.113562 0.433811 0.180303
H23   H     H_    0.637961 0.881169 0.439960 0.207351
C51   C     C_3   0.612867 0.082772 0.473438 -0.283730
C52   C     C_3   0.617691 0.922579 0.477315 -0.332088
C53   C     C_3   0.491286 0.080020 0.551181 0.624583
C54   C     C_3   0.481567 0.915036 0.551101 0.541337
N3    N     N_3   0.499750 0.138610 0.498940 -0.097804
N4    N     N_3   0.499750 0.861390 0.498940 -0.122652
H24   H     H_    0.697548 0.128317 0.487429 0.164909
H25   H     H_    0.698633 0.893274 0.498144 0.140433
O13   O     O_3   0.597089 0.701878 0.339556 -0.770736
H26   H     H_    0.589755 0.783887 0.318783 0.348500
O14   O     O_3   0.285248 0.305052 0.270079 -0.727912
H27   H     H_    0.256193 0.245225 0.297835 0.341310
O15   O     O_3   0.534709 0.157102 0.120960 -0.681326
H28   H     H_    0.557384 0.086918 0.096622 0.330989
O16   O     O_3   0.330335 0.093754 0.974700 -0.794034
H29   H     H_    0.371882 0.020441 0.956528 0.332719
C55   C     C_3   0.340249 0.090699 0.867551 -0.340869
C56   C     C_3   0.462924 0.018054 0.858328 -0.762224
H30   H     H_    0.536328 0.088818 0.844394 0.290246
H31   H     H_    0.494062 0.969276 0.892429 0.215891
H32   H     H_    0.451786 0.938649 0.830526 0.284201
H33   H     H_    0.272408 0.023306 0.887292 0.182680
H34   H     H_    0.296414 0.110358 0.832157 0.240029
C57   C     C_3   0.074304 0.760297 0.526549 -0.378502
C58   C     C_3   0.042581 0.853010 0.570205 -0.920061
H35   H     H_    0.941980 0.859101 0.578229 0.261460
H36   H     H_    0.086453 0.817406 0.603955 0.277223
H37   H     H_    0.075311 0.956825 0.561415 0.235544
H38   H     H_    0.168051 0.779196 0.513358 0.213874
H39   H     H_    0.016891 0.790984 0.495683 0.215410
C59   C     C_3   0.105317 0.223588 0.500725 -0.357650
C60   C     C_3   0.130744 0.211798 0.444917 -0.842739
H40   H     H_    0.049328 0.241096 0.424305 0.249804
H41   H     H_    0.211038 0.273861 0.431969 0.263752
H42   H     H_    0.150678 0.105275 0.435805 0.231602
H43   H     H_    0.182812 0.201845 0.523158 0.184396
H44   H     H_    0.038641 0.141979 0.511852 0.187466
O17   O     O_3   0.557642 0.678568 0.234868 -0.729011
H45   H     H_    0.637304 0.710008 0.246863 0.351108
O18   O     O_3   0.598672 0.122327 0.574745 -0.717923
H46   H     H_    0.671048 0.068722 0.563907 0.330964
O19   O     O_3   0.573185 0.865522 0.581937 -0.766764
H47   H     H_    0.629644 0.803528 0.564241 0.357191
C61   C     C_3   0.380873 0.142744 0.583252 -0.332751
C62   C     C_3   0.407899 0.157495 0.638232 -0.650501
H48   H     H_    0.448227 0.064963 0.653461 0.268182
H49   H     H_    0.476593 0.237281 0.643926 0.281959
H50   H     H_    0.322273 0.181213 0.659971 0.220790
H51   H     H_    0.350875 0.238570 0.568321 0.229353
H52   H     H_    0.291498 0.092801 0.581882 0.108603
C63   C     C_3   0.356372 0.855906 0.573676 -0.333498
C64   C     C_3   0.337258 0.841924 0.630095 -0.773972
H53   H     H_    0.424648 0.831333 0.649115 0.307270
H54   H     H_    0.282734 0.926539 0.645406 0.238022
H55   H     H_    0.281433 0.750189 0.639441 0.234570
H56   H     H_    0.278575 0.905429 0.557515 0.126888
H57   H     H_    0.343218 0.754985 0.561008 0.266964
O20   O     O_3   0.244695 0.455961 0.632626 -0.830355
H58   H     H_    0.275679 0.459368 0.598012 0.312634
C65   C     C_3   0.177735 0.457654 0.733359 -0.338909
C66   C     C_3   0.139107 0.309844 0.730884 -0.835501
H59   H     H_    0.135184 0.277679 0.692046 0.282962
H60   H     H_    0.204488 0.245016 0.750369 0.267577
H61   H     H_    0.045980 0.296123 0.748864 0.242689
H62   H     H_    0.163005 0.490569 0.771996 0.193339
H63   H     H_    0.115553 0.520266 0.711353 0.228694
C67   C     C_3   0.083684 0.733378 0.042347 -0.448723
C68   C     C_3   0.964207 0.701957 0.072466 -0.796406
H64   H     H_    0.945486 0.591745 0.073162 0.269223
H65   H     H_    0.968991 0.738172 0.110792 0.263921
H66   H     H_    0.886316 0.753597 0.055367 0.252429
H67   H     H_    0.104813 0.842821 0.044281 0.230168
H68   H     H_    0.064052 0.708850 0.003828 0.225695

loop_
_geom_bond_atom_site_label_1
_geom_bond_atom_site_label_2
_geom_bond_distance
_ccdc_geom_bond_type
C43   C47   1.540719 S    
C50   H21   1.095013 S    
C68   H64   1.111149 S    
C42   C46   1.601314 S    
C7    C8    1.393410 A    
C12   C15   1.413896 A    
C8    H4    1.083350 S    
C1    C46   1.524678 S    
C62   H50   1.107753 S    
C58   H35   1.107944 S    
C10   O17   1.380968 S    
C65   C66   1.526539 S    
C55   H34   1.108850 S    
C31   C32   1.398369 A    
C59   C60   1.534606 S    
Zn1   O7    1.968692 S    
C37   O15   1.383316 S    
N1    C11   1.431567 S    
C40   H7    1.080195 S    
C49   N3    1.490257 S    
C41   C43   1.551062 S    
C23   C24   1.409857 A    
O18   H46   0.989205 S    
C64   H54   1.106508 S    
C42   C44   1.523038 S    
O4    C2    1.307318 A    
O7    C4    1.301616 A    
C59   H44   1.112419 S    
C5    C13   1.399222 A    
C55   C56   1.533497 S    
C5    O9    1.349861 S    
C31   H6    1.082881 S    
C5    N1    1.364822 A    
C21   C22   1.386635 A    
C28   C32   1.409590 A    
C44   H11   1.116420 S    
C28   C65   1.519742 S    
O5    C3    1.301723 A    
C53   C54   1.640545 S    
C60   H42   1.110075 S    
O20   H58   0.983965 S    
C25   C39   1.426263 A    
C64   H53   1.108132 S    
C33   C36   1.424059 A    
C2    C16   1.461774 S    
C53   C61   1.586540 S    
C42   H9    1.117064 S    
C66   H61   1.110318 S    
C56   H30   1.109077 S    
C18   C20   1.418539 A    
C44   H13   1.114517 S    
H23   C52   1.113264 S    
Zn2   O8    1.979077 S    
C3    C47   1.456603 S    
C67   H68   1.107826 S    
C61   H51   1.087491 S    
C54   N4    1.525421 S    
C57   H39   1.109609 S    
C37   C40   1.401292 A    
C56   H31   1.107858 S    
C17   C30   1.394943 A    
C23   C27   1.395156 A    
C19   C38   1.413350 A    
C4    C17   1.453475 S    
O3    Zn1   1.978904 S    
O16   H29   0.985674 S    
C52   H25   1.107400 S    
C51   N3    1.497308 S    
C38   C39   1.423834 A    
C55   H33   1.106896 S    
C10   C11   1.406789 A    
C36   C67   1.522238 S    
Zn2   N3    2.049917 S    
C12   C13   1.408450 A    
O3    C2    1.309992 A    
C64   H55   1.110548 S    
C63   H57   1.074547 S    
C26   N2    1.365510 A    
C45   C46   1.551721 S    
C62   H49   1.102220 S    
C8    C16   1.400087 A    
C13   C14   1.400239 A    
C49   H20   1.068269 S    
C49   C50   1.573223 S    
C20   C24   1.409081 A    
O1    C1    1.313216 A    
C22   C23   1.396289 A    
C41   H8    1.111039 S    
C63   H56   1.089048 S    
C7    C11   1.400069 A    
C65   H62   1.108472 S    
C24   C25   1.414489 A    
H17   C48   1.113532 S    
C43   H12   1.109129 S    
C26   O12   1.347352 S    
C53   N3    1.524959 S    
N1    C6    1.367474 A    
C27   O10   1.349747 S    
C18   C21   1.407069 A    
C50   N4    1.485102 S    
C63   C64   1.541336 S    
C51   H24   1.108477 S    
C19   C35   1.416323 A    
C60   H40   1.108426 S    
C14   H1    1.083277 S    
C43   H10   1.114315 S    
N2    C27   1.360904 A    
C50   H19   1.114219 S    
C9    C16   1.407300 A    
O8    C4    1.311366 A    
C67   H67   1.111308 S    
C34   C35   1.413564 A    
C68   H66   1.110679 S    
C49   H18   1.111721 S    
C18   C33   1.417318 A    
C61   C62   1.544588 S    
C56   H32   1.109105 S    
C66   H60   1.110528 S    
C17   C29   1.422198 A    
C28   C29   1.403568 A    
N2    C32   1.428046 S    
C68   H65   1.109612 S    
O19   H47   0.986482 S    
C30   C31   1.388093 A    
C57   C58   1.539241 S    
C12   C34   1.410658 A    
Zn1   O5    2.053769 S    
C38   O16   1.383571 S    
C67   C68   1.530547 S    
C41   C57   1.554035 S    
O1    Zn1   2.048739 S    
O2    Zn2   2.054517 S    
C6    C15   1.407705 A    
H22   C51   1.114002 S    
C47   C48   1.555104 S    
O6    C3    1.297805 A    
H16   C48   1.111901 S    
O4    Zn2   1.968514 S    
C58   H36   1.108298 S    
C7    O14   1.381619 S    
C61   H52   1.090363 S    
C62   H48   1.104679 S    
C30   H5    1.083727 S    
Zn1   N4    2.049209 S    
C35   C40   1.407539 A    
C19   C20   1.406031 A    
C53   O18   1.421605 S    
C65   H63   1.111567 S    
C54   C63   1.573090 S    
C54   O19   1.418239 S    
C14   C36   1.400456 A    
C9    O13   1.381186 S    
C45   C48   1.543363 S    
C51   C52   1.593812 S    
C25   C26   1.415800 A    
C33   C34   1.416292 A    
O14   H27   0.991838 S    
C41   C46   1.609127 S    
C42   C59   1.532329 S    
O2    C1    1.320544 A    
C15   C37   1.412554 A    
C59   H43   1.084492 S    
O15   H28   0.991682 S    
H15   C45   1.104819 S    
C60   H41   1.105959 S    
C58   H37   1.107093 S    
C29   O20   1.382778 S    
C6    O11   1.349596 S    
C52   N4    1.505783 S    
C57   H38   1.079029 S    
C21   H3    1.080746 S    
Zn2   O6    2.047992 S    
O13   H26   0.990133 S    
H14   C45   1.111797 S    
C22   H2    1.076805 S    
C66   H59   1.109247 S    
C44   C47   1.523873 S    
C39   C55   1.520697 S    
C9    C10   1.419978 A    
O17   H45   0.989809 S    
