data_mof_unit_51959.cif
_audit_creation_date              2012-12-10T18:14:39-0500
_audit_creation_method            fapswitch 2.2
_symmetry_space_group_name_H-M    P1
_symmetry_Int_Tables_number       1
_space_group_crystal_system       triclinic
_cell_length_a                    10.726966
_cell_length_b                    9.406538
_cell_length_c                    27.783767
_cell_angle_alpha                 90.308753
_cell_angle_beta                  89.871663
_cell_angle_gamma                 89.986268
_cell_volume                      2803.43465535

loop_
_atom_site_label
_atom_site_type_symbol
_atom_type_description
_atom_site_fract_x
_atom_site_fract_y
_atom_site_fract_z
_atom_type_partial_charge
C1    C     C_R   0.259729 0.500020 0.500991 0.881454
C2    C     C_R   0.443843 0.601954 0.278850 -0.066554
C3    C     C_R   0.510665 0.497311 0.253742 0.254101
C4    C     C_R   0.514677 0.478949 0.101920 -0.051589
C5    C     C_R   0.404843 0.448351 0.127582 -0.088040
C6    C     C_R   0.300922 0.397535 0.102771 -0.130245
C7    C     C_R   0.624218 0.510603 0.127516 -0.080891
C8    C     C_R   0.507786 0.498021 0.354732 -0.126121
C9    C     C_R   0.501567 0.501827 0.645593 -0.025603
C10   C     C_R   0.401697 0.455402 0.974778 0.064205
C11   C     C_R   0.624379 0.518997 0.974716 -0.000418
C12   C     C_R   0.502711 0.499486 0.407560 0.903833
C13   C     C_R   0.512750 0.489816 0.949422 0.073661
C14   C     C_R   0.288998 0.453013 0.948700 -0.108972
C15   C     C_R   0.287891 0.457788 0.898820 -0.101526
C16   C     C_R   0.398546 0.477465 0.873177 -0.014849
C17   C     C_R   0.510610 0.501248 0.898340 -0.098862
C18   C     C_R   0.619309 0.539576 0.872516 -0.121624
C19   C     C_R   0.615142 0.537350 0.821629 0.599092
C20   C     C_R   0.398501 0.480392 0.822800 0.557709
C21   C     C_R   0.490753 0.376452 0.721666 -0.071199
C22   C     C_R   0.489541 0.374547 0.671470 -0.175898
C23   C     C_R   0.739721 0.499989 0.501946 0.910959
C24   C     C_R   0.515170 0.630808 0.670855 -0.160853
C25   C     C_R   0.516720 0.632358 0.721018 -0.073480
C26   C     C_R   0.504464 0.505286 0.746581 0.326361
C27   C     C_R   0.404558 0.438990 0.025634 -0.028347
C28   C     C_R   0.515590 0.475101 0.050830 -0.000379
C29   C     C_R   0.628516 0.502920 0.025582 0.001084
C30   C     C_R   0.302724 0.383625 0.052856 0.354091
C31   C     C_R   0.736937 0.521608 0.102681 -0.139136
C32   C     C_R   0.724270 0.578448 0.948742 -0.162686
C33   C     C_R   0.725389 0.583499 0.898699 0.414763
C34   C     C_R   0.500255 0.500414 0.592596 0.847248
C35   C     C_R   0.741216 0.508854 0.052763 0.345369
C36   C     C_3   0.072526 0.630835 0.530223 -0.440694
C37   C     C_3   0.072582 0.365391 0.527679 -0.444412
C38   C     C_3   0.929223 0.636119 0.528642 0.266324
C39   C     C_3   0.929266 0.361336 0.526681 0.263477
C40   C     C_3   0.069372 0.503406 0.448519 0.670810
C41   C     C_3   0.121603 0.499994 0.501268 -0.105432
C42   C     C_3   0.877443 0.499893 0.503028 -0.123405
C43   C     C_3   0.924591 0.502284 0.450170 -0.552543
C44   C     C_3   0.628552 0.083613 0.499260 -0.185052
C45   C     C_3   0.628572 0.916266 0.499431 -0.188311
C46   C     C_3   0.439454 0.084457 0.544854 -0.193583
C47   C     C_3   0.438971 0.916814 0.544750 -0.187805
C48   C     C_3   0.431854 0.083128 0.459114 -0.168382
C49   C     C_3   0.432361 0.915693 0.458984 -0.180243
C50   C     C_R   0.404676 0.458242 0.178050 0.587977
C51   C     C_R   0.620158 0.519946 0.177945 0.583999
C52   C     C_R   0.577008 0.393921 0.279106 -0.098839
C53   C     C_R   0.576588 0.393653 0.329306 0.339497
C54   C     C_R   0.442849 0.602699 0.329055 -0.204817
Cu1   Cu    Cu3+1 0.499860 0.642410 0.500020 0.948502
Cu2   Cu    Cu3+1 0.499860 0.357590 0.500020 0.970576
H1    H     H_    0.389814 0.683853 0.347879 0.199839
H2    H     H_    0.629403 0.313730 0.259569 0.186738
H3    H     H_    0.800692 0.629751 0.966915 0.223950
H4    H     H_    0.527221 0.732310 0.740099 0.152577
H5    H     H_    0.109861 0.731950 0.515421 0.194499
H6    H     H_    0.108899 0.266437 0.510584 0.194780
H7    H     H_    0.106036 0.624590 0.568046 0.221359
H8    H     H_    0.107345 0.365570 0.565405 0.220683
H9    H     H_    0.392673 0.682519 0.259425 0.172927
H10   H     H_    0.683064 0.122820 0.530643 0.186924
H11   H     H_    0.682662 0.878484 0.530997 0.186920
H12   H     H_    0.677480 0.121729 0.466419 0.186878
H13   H     H_    0.677962 0.876624 0.466753 0.160957
H14   H     H_    0.334039 0.122371 0.459128 0.183286
H15   H     H_    0.334812 0.875712 0.458609 0.189091
H16   H     H_    0.474721 0.120307 0.425014 0.202696
H17   H     H_    0.476291 0.878412 0.424934 0.169702
H18   H     H_    0.342256 0.124866 0.547854 0.147904
H19   H     H_    0.341467 0.877297 0.547379 0.148782
H20   H     H_    0.220350 0.359155 0.122395 0.228584
H21   H     H_    0.481480 0.277814 0.741266 0.150504
H22   H     H_    0.199052 0.450202 0.880501 0.221413
H23   H     H_    0.199379 0.454696 0.966210 0.227265
N1    N     N_R   0.511154 0.494863 0.202102 -0.461986
N2    N     N_R   0.506209 0.507041 0.798207 -0.483128
N3    N     N_3   0.500250 0.143650 0.501060 -0.142652
N4    N     N_3   0.500250 0.856350 0.501060 -0.139112
O1    O     O_R   0.317570 0.620260 0.500030 -0.581793
O2    O     O_R   0.317570 0.379740 0.500030 -0.586137
O3    O     O_R   0.499900 0.620250 0.430280 -0.599104
O4    O     O_R   0.499900 0.379750 0.430280 -0.544705
O5    O     O_R   0.682190 0.620260 0.500010 -0.595333
O6    O     O_R   0.682190 0.379740 0.500010 -0.581945
O7    O     O_R   0.499860 0.620280 0.569750 -0.593279
O8    O     O_R   0.499860 0.379720 0.569750 -0.591588
O9    O     O_2   0.299615 0.429130 0.202935 -0.490611
O10   O     O_2   0.291595 0.456998 0.798470 -0.493147
O11   O     O_2   0.724316 0.553596 0.202678 -0.496117
O12   O     O_2   0.718696 0.562276 0.795454 -0.423815
H24   H     H_    0.823815 0.531015 0.122287 0.226292
H25   H     H_    0.525137 0.730479 0.651941 0.156570
Cl1   Cl    Cl    0.860527 0.656623 0.872129 -0.463483
Cl2   Cl    Cl    0.890349 0.468158 0.029138 -0.540126
Cl3   Cl    Cl    0.865744 0.667128 0.587649 -0.536597
Cl4   Cl    Cl    0.867540 0.326562 0.585603 -0.538588
H26   H     H_    0.902090 0.730837 0.507170 0.125260
H27   H     H_    0.900979 0.268452 0.504194 0.128564
Cl5   Cl    Cl    0.121819 0.658834 0.416956 -0.602020
Cl6   Cl    Cl    0.123592 0.353399 0.413940 -0.561523
H28   H     H_    0.885975 0.597011 0.431518 0.213793
H29   H     H_    0.887084 0.408370 0.430401 0.238660
H30   H     H_    0.489322 0.121385 0.577603 0.159777
H31   H     H_    0.487866 0.879901 0.577586 0.156868
H32   H     H_    0.478803 0.273664 0.653020 0.148777
Cl7   Cl    Cl    0.189342 0.265977 0.029361 -0.515168
Cl8   Cl    Cl    0.669132 0.265449 0.358462 -0.615162

loop_
_geom_bond_atom_site_label_1
_geom_bond_atom_site_label_2
_ccdc_geom_bond_type
C10   C27   A    
C21   C26   A    
C44   H10   S    
Cu1   Cu2   S    
C2    H9    S    
C37   H6    S    
C44   C45   S    
C1    O1    A    
C23   C42   S    
C28   C29   A    
C38   C42   S    
Cu1   O7    S    
C44   N3    S    
C5    C6    A    
C9    C22   A    
C15   H22   S    
C31   H24   S    
C18   C19   A    
Cu1   O5    S    
C34   O8    A    
C20   N2    A    
C46   N3    S    
Cu2   O8    S    
C33   Cl1   S    
C16   C17   A    
C22   H32   S    
C46   H30   S    
C45   H11   S    
C23   O6    A    
C25   H4    S    
C47   N4    S    
C36   H7    S    
C16   C20   A    
C21   C22   A    
C27   C30   A    
C36   C41   S    
C45   N4    S    
C48   H16   S    
C4    C7    A    
C35   Cl2   S    
C3    N1    S    
C4    C28   A    
C39   Cl4   S    
C39   C42   S    
C40   C43   S    
C1    O2    A    
C7    C31   A    
C45   H13   S    
C24   H25   S    
C24   C25   A    
C38   Cl3   S    
C2    C54   A    
C8    C54   A    
Cu2   O4    S    
C20   O10   S    
C25   C26   A    
C47   H31   S    
C43   H28   S    
C34   O7    A    
C40   Cl5   S    
C8    C12   S    
C17   C18   A    
C43   H29   S    
C14   H23   S    
C6    H20   S    
C52   H2    S    
C53   Cl8   S    
C50   O9    S    
C48   C49   S    
C6    C30   A    
C11   C32   A    
C26   N2    S    
C23   O5    A    
C10   C14   A    
C9    C34   S    
C31   C35   A    
C5    C50   A    
C44   H12   S    
C42   C43   S    
Cu1   N4    S    
C36   H5    S    
C46   H18   S    
C37   H8    S    
C19   O12   S    
C52   C53   A    
C1    C41   S    
Cu2   O6    S    
C46   C47   S    
C40   C41   S    
C12   O4    A    
C48   H14   S    
C4    C5    A    
C10   C13   A    
C50   N1    A    
C8    C53   A    
C3    C52   A    
C9    C24   A    
Cu2   N3    S    
C12   O3    A    
C29   C35   A    
C13   C17   A    
C30   Cl7   S    
C32   C33   A    
C49   N4    S    
Cu1   O3    S    
C36   C38   S    
C2    C3    A    
C47   H19   S    
C37   C39   S    
C11   C13   A    
Cu2   O2    S    
C51   N1    A    
C48   N3    S    
C49   H17   S    
C37   C41   S    
C18   C33   A    
C51   O11   S    
C7    C51   A    
C11   C29   A    
C38   H26   S    
C49   H15   S    
C21   H21   S    
C27   C28   A    
C39   H27   S    
C14   C15   A    
C32   H3    S    
Cu1   O1    S    
C19   N2    A    
C15   C16   A    
C40   Cl6   S    
C54   H1    S    
