data_mof_unit_62425.cif
_audit_creation_date              2012-10-26T19:44:44-0400
_audit_creation_method            fapswitch 2.2
_symmetry_space_group_name_H-M    P1
_symmetry_Int_Tables_number       1
_space_group_crystal_system       monoclinic
_cell_length_a                    19.325779
_cell_length_b                    11.726673
_cell_length_c                    10.470951
_cell_angle_alpha                 89.951589
_cell_angle_beta                  90.0
_cell_angle_gamma                 90.0
_cell_volume                      2373.00031602

loop_
_atom_site_label
_atom_site_type_symbol
_atom_type_description
_atom_site_fract_x
_atom_site_fract_y
_atom_site_fract_z
_atom_type_partial_charge
C1    C     C_R   0.500000 0.283327 0.500052 0.568114
C2    C     C_1   0.500000 0.940268 0.499958 0.014994
C3    C     C_1   0.500000 0.499997 0.072070 0.141993
C4    C     C_1   0.500000 0.500003 0.927930 0.143011
C5    C     C_R   0.254607 0.589360 0.556672 0.050065
C6    C     C_R   0.744167 0.408249 0.441566 0.111046
C7    C     C_R   0.745393 0.589360 0.556673 0.050065
C8    C     C_R   0.255833 0.408249 0.441566 0.111046
C9    C     C_R   0.181816 0.588579 0.554968 0.090833
C10   C     C_R   0.816604 0.407542 0.439385 0.079356
C11   C     C_R   0.818184 0.588579 0.554968 0.090833
C12   C     C_R   0.500000 0.716673 0.499952 0.573466
C13   C     C_R   0.183396 0.407542 0.439385 0.079356
C14   C     C_R   0.146138 0.498038 0.496060 0.038688
C15   C     C_R   0.853862 0.498038 0.496060 0.038688
C16   C     C_R   0.291494 0.499143 0.499686 -0.014261
C17   C     C_R   0.708506 0.499143 0.499686 -0.014261
C18   C     C_R   0.929995 0.497881 0.495852 0.363888
C19   C     C_R   0.070005 0.497881 0.495852 0.363887
C20   C     C_R   0.367203 0.499953 0.499978 0.577489
C21   C     C_R   0.632797 0.499953 0.499978 0.577489
C22   C     C_1   0.500000 0.161952 0.500117 0.036587
C23   C     C_1   0.500000 0.838047 0.499896 0.039643
C24   C     C_1   0.500000 0.059731 0.500058 0.013951
Cu1   Cu    Cu3+1 0.500000 0.500000 0.625300 1.079417
Cu2   Cu    Cu3+1 0.500000 0.500000 0.374700 1.076331
H1    H     H_    0.157308 0.756547 0.563566 0.267175
H2    H     H_    0.156379 0.687532 0.706505 0.271011
H3    H     H_    0.886205 0.278006 0.449406 0.248229
H4    H     H_    0.878687 0.339769 0.302716 0.267936
H5    H     H_    0.842692 0.756547 0.563567 0.267176
H6    H     H_    0.843621 0.687531 0.706506 0.271011
H7    H     H_    0.113795 0.278006 0.449407 0.248229
H8    H     H_    0.121312 0.339768 0.302717 0.267936
I1    I     I_    0.307988 0.730903 0.639959 -0.320269
I2    I     I_    0.690017 0.266514 0.361043 -0.249762
I3    I     I_    0.692012 0.730903 0.639959 -0.320269
I4    I     I_    0.309983 0.266514 0.361044 -0.249762
N1    N     N_1   0.500000 0.500000 0.186410 -0.174460
N2    N     N_3   0.148585 0.311949 0.383017 -0.566681
N3    N     N_1   0.500000 0.500000 0.813590 -0.173046
N4    N     N_R   0.034407 0.484816 0.385241 -0.228466
N5    N     N_R   0.965581 0.512131 0.606378 -0.171151
N6    N     N_R   0.965593 0.484816 0.385241 -0.228466
N7    N     N_R   0.034419 0.512130 0.606378 -0.171151
N8    N     N_3   0.143348 0.680983 0.609898 -0.570401
N9    N     N_3   0.851415 0.311950 0.383017 -0.566681
N10   N     N_3   0.856652 0.680983 0.609898 -0.570401
O1    O     O_R   0.500000 0.337200 0.605810 -0.493667
O2    O     O_R   0.500000 0.662800 0.394190 -0.492630
O3    O     O_R   0.500000 0.662800 0.605810 -0.467473
O4    O     O_R   0.500000 0.337200 0.394190 -0.471807
O5    O     O_R   0.400140 0.500000 0.605850 -0.473996
O6    O     O_R   0.599860 0.500000 0.394150 -0.477940
O7    O     O_R   0.599860 0.500000 0.605850 -0.473996
O8    O     O_R   0.400140 0.500000 0.394150 -0.477940

loop_
_geom_bond_atom_site_label_1
_geom_bond_atom_site_label_2
_ccdc_geom_bond_type
C6    C10   A    
C15   C18   S    
C12   O2    A    
C9    C14   A    
Cu1   O3    S    
C5    C9    A    
C8    C13   A    
C18   N6    A    
H6    N10   S    
C19   N4    A    
C16   C20   S    
C20   O8    A    
C11   C15   A    
C19   N7    A    
C7    I3    S    
C3    N1    T    
C9    N8    S    
C8    C16   A    
C18   N5    A    
C7    C11   A    
N5    N7    A    
C12   C23   S    
H2    N8    S    
C11   N10   S    
N4    N6    A    
C8    I4    S    
H3    N9    S    
H8    N2    S    
C5    I1    S    
H1    N8    S    
C6    I2    S    
Cu1   O1    S    
C10   C15   A    
Cu2   O2    S    
C2    C24   S    
C21   O6    A    
C1    O4    A    
C22   C24   T    
Cu2   N1    S    
C10   N9    S    
H7    N2    S    
C4    N3    T    
C3    C4    S    
Cu2   O6    S    
H4    N9    S    
C1    C22   S    
C12   O3    A    
H5    N10   S    
Cu1   N3    S    
C2    C23   T    
C21   O7    A    
C6    C17   A    
C13   N2    S    
C7    C17   A    
Cu1   Cu2   S    
C13   C14   A    
C1    O1    A    
C14   C19   S    
Cu2   O4    S    
C17   C21   S    
Cu1   O7    S    
Cu1   O5    S    
C20   O5    A    
C5    C16   A    
Cu2   O8    S    
