data_mof_unit_7897.cif
_audit_creation_date              2012-12-10T18:06:44-0500
_audit_creation_method            fapswitch 2.2
_symmetry_space_group_name_H-M    P1
_symmetry_Int_Tables_number       1
_space_group_crystal_system       triclinic
_cell_length_a                    12.605109
_cell_length_b                    13.024625
_cell_length_c                    15.486644
_cell_angle_alpha                 83.320201
_cell_angle_beta                  99.515743
_cell_angle_gamma                 95.930476
_cell_volume                      2481.34659585

loop_
_atom_site_label
_atom_site_type_symbol
_atom_type_description
_atom_site_fract_x
_atom_site_fract_y
_atom_site_fract_z
_atom_type_partial_charge
C1    C     C_R   0.441732 0.308641 0.504343 0.884781
C2    C     C_R   0.419445 0.472673 0.099077 0.097068
C3    C     C_R   0.325146 0.521876 0.060945 0.169526
C4    C     C_R   0.484009 0.435801 0.044960 0.073639
C5    C     C_R   0.465785 0.467278 0.953792 0.067385
C6    C     C_R   0.367744 0.509997 0.916641 -0.199587
C7    C     C_R   0.297594 0.535511 0.969692 -0.229341
C8    C     C_R   0.565280 0.368093 0.078647 -0.223179
C9    C     C_R   0.630050 0.336807 0.024051 -0.203987
C10   C     C_R   0.620021 0.376816 0.935945 0.134693
C11   C     C_R   0.542874 0.448600 0.901761 0.051430
C12   C     C_R   0.434212 0.511508 0.336155 0.853059
C13   C     C_R   0.684777 0.344148 0.881130 -0.244893
C14   C     C_R   0.669012 0.376824 0.791139 -0.038127
C15   C     C_R   0.546825 0.499546 0.817114 -0.065644
C16   C     C_R   0.651806 0.944644 0.369855 -0.193495
C17   C     C_R   0.576061 0.803000 0.463070 -0.067246
C18   C     C_R   0.313854 0.158848 0.539568 -0.213315
C19   C     C_R   0.272564 0.056489 0.533124 -0.182879
C20   C     C_R   0.322855 0.991148 0.489881 -0.046881
C21   C     C_R   0.420349 0.030173 0.457469 0.014208
C22   C     C_R   0.445203 0.137920 0.445677 0.084383
C23   C     C_R   0.554705 0.692428 0.488043 0.866610
C24   C     C_R   0.497563 0.967332 0.440470 0.110515
C25   C     C_R   0.576327 0.008460 0.387388 0.178014
C26   C     C_R   0.579384 0.113141 0.355055 -0.239979
C27   C     C_R   0.515573 0.178048 0.385445 -0.184972
C28   C     C_R   0.505315 0.868212 0.483499 -0.176986
C29   C     C_R   0.650391 0.841285 0.406420 -0.187859
C30   C     C_R   0.399542 0.200888 0.495274 -0.103390
C31   C     C_R   0.139377 0.630882 0.631439 -0.274959
C32   C     C_R   0.757599 0.384294 0.392336 0.042410
C33   C     C_R   0.852770 0.358806 0.369858 -0.248418
C34   C     C_R   0.564369 0.483099 0.664034 0.891222
C35   C     C_R   0.950581 0.401108 0.412062 -0.186161
C36   C     C_R   0.952951 0.470020 0.476773 0.017018
C37   C     C_R   0.853617 0.492347 0.497965 0.231196
C38   C     C_R   0.049254 0.518011 0.520593 -0.017764
C39   C     C_R   0.044753 0.584238 0.586592 0.168105
C40   C     C_R   0.945914 0.604428 0.606235 -0.249954
C41   C     C_R   0.851571 0.560132 0.561460 -0.193824
C42   C     C_R   0.150683 0.503881 0.501099 -0.049334
C43   C     C_R   0.237166 0.613614 0.608896 0.035432
C44   C     C_R   0.391663 0.511639 0.242651 -0.055230
C45   C     C_R   0.598301 0.455569 0.758497 -0.197693
C46   C     C_R   0.261308 0.558855 0.114744 -0.194439
C47   C     C_R   0.294510 0.553771 0.205508 -0.178721
C48   C     C_R   0.451374 0.469151 0.189847 -0.267136
H1    H     H_    0.223928 0.569716 0.939256 0.153253
H2    H     H_    0.741443 0.286691 0.907150 0.164186
H3    H     H_    0.705062 0.791096 0.388843 0.166930
H4    H     H_    0.635475 0.145919 0.311104 0.134130
H5    H     H_    0.710954 0.974354 0.327715 0.141904
H6    H     H_    0.454312 0.840139 0.532556 0.149786
H7    H     H_    0.276092 0.206174 0.576828 0.173576
H8    H     H_    0.200177 0.029113 0.560976 0.192167
H9    H     H_    0.520415 0.259061 0.360758 0.146104
H10   H     H_    0.311661 0.649137 0.642232 0.151821
H11   H     H_    0.941388 0.655909 0.655484 0.160500
H12   H     H_    0.137584 0.681012 0.682262 0.162138
H13   H     H_    0.162791 0.455754 0.452231 0.126508
H14   H     H_    0.681379 0.353380 0.358686 0.114303
H15   H     H_    0.022185 0.378443 0.392511 0.139477
H16   H     H_    0.850731 0.306902 0.319728 0.146063
H17   H     H_    0.778107 0.581169 0.577331 0.209511
H18   H     H_    0.688862 0.281824 0.051127 0.144803
H19   H     H_    0.187963 0.594814 0.086381 0.144335
H20   H     H_    0.246354 0.585668 0.246006 0.171328
H21   H     H_    0.526615 0.438900 0.220117 0.151449
H22   H     H_    0.342603 0.521131 0.846238 0.163035
H23   H     H_    0.576294 0.333367 0.145947 0.136115
N1    N     N_R   0.239390 0.551900 0.544730 -0.105412
N2    N     N_R   0.759950 0.448600 0.455730 -0.123626
O1    O     O_R   0.374950 0.371210 0.521360 -0.624717
O2    O     O_R   0.542050 0.338030 0.492790 -0.576975
O3    O     O_R   0.368720 0.526070 0.390200 -0.609332
O4    O     O_R   0.535820 0.492890 0.361630 -0.634429
O5    O     O_R   0.457950 0.661970 0.507210 -0.590452
O6    O     O_R   0.625050 0.628790 0.478640 -0.640565
O7    O     O_R   0.464180 0.507110 0.638370 -0.606993
O8    O     O_R   0.631280 0.473930 0.609800 -0.610746
Zn1   Zn    Zn3+2 0.388420 0.522150 0.519080 0.964712
Zn2   Zn    Zn3+2 0.611580 0.477850 0.480920 0.956471
C49   C     C_2   0.262497 0.890934 0.467145 0.882105
O9    O     O_2   0.281695 0.848616 0.405602 -0.616837
O10   O     O_R   0.178583 0.848229 0.512475 -0.821649
H24   H     H_    0.138833 0.784375 0.486668 0.350845
C50   C     C_1   0.513022 0.603963 0.794092 0.160267
N3    N     N_1   0.486712 0.687294 0.775850 -0.217740
C51   C     C_2   0.724824 0.323546 0.734589 0.935759
O11   O     O_2   0.673136 0.280965 0.672639 -0.607080
O12   O     O_R   0.836387 0.317656 0.755136 -0.806368
H25   H     H_    0.865487 0.278810 0.712278 0.344039

loop_
_geom_bond_atom_site_label_1
_geom_bond_atom_site_label_2
_ccdc_geom_bond_type
C19   H8    S    
C43   N1    A    
C17   C29   A    
C35   C36   A    
C48   H21   S    
C4    C8    A    
C26   C27   A    
C17   C23   S    
C31   C43   A    
C1    O1    A    
O12   H25   S    
C36   C37   A    
C49   O10   S    
C5    C11   A    
C3    C7    A    
C38   C39   A    
O4    Zn2   S    
C18   C19   A    
C16   H5    S    
C14   C51   S    
C43   H10   S    
C34   O7    A    
C9    H18   S    
C11   C15   A    
C19   C20   A    
C8    C9    A    
C18   C30   A    
C34   O8    A    
C9    C10   A    
C44   C47   A    
C40   H11   S    
C21   C22   A    
O1    Zn1   S    
O8    Zn2   S    
C14   C45   A    
C1    O2    A    
C49   O9    D    
C7    H1    S    
O7    Zn1   S    
C27   H9    S    
O3    Zn1   S    
C32   N2    A    
C28   H6    S    
O10   H24   S    
C41   H17   S    
C2    C48   A    
C25   C26   A    
C31   H12   S    
C2    C4    A    
C26   H4    S    
O5    Zn1   S    
C51   O12   S    
C12   O4    A    
C20   C21   A    
C42   N1    A    
C34   C45   S    
C24   C25   A    
C42   H13   S    
C18   H7    S    
C40   C41   A    
C22   C27   A    
C20   C49   S    
C15   C45   A    
C47   H20   S    
C39   C40   A    
C29   H3    S    
C16   C25   A    
C6    H22   S    
C37   N2    A    
C46   C47   A    
C8    H23   S    
C22   C30   A    
C17   C28   A    
C24   C28   A    
C4    C5    A    
C10   C13   A    
C38   C42   A    
C6    C7    A    
C3    C46   A    
C32   C33   A    
C12   O3    A    
C2    C3    A    
C16   C29   A    
C32   H14   S    
C46   H19   S    
C12   C44   S    
O6    Zn2   S    
O2    Zn2   S    
C51   O11   D    
C5    C6    A    
C33   H16   S    
C36   C38   A    
C1    C30   S    
C33   C35   A    
C31   C39   A    
C23   O5    A    
C37   C41   A    
C10   C11   A    
C13   H2    S    
C50   N3    T    
C21   C24   A    
C35   H15   S    
C23   O6    A    
C13   C14   A    
N2    Zn2   S    
N1    Zn1   S    
C44   C48   A    
C15   C50   S    
