data_mof_unit_62622.cif
_audit_creation_date              2012-12-10T19:04:56-0500
_audit_creation_method            fapswitch 2.2
_symmetry_space_group_name_H-M    P1
_symmetry_Int_Tables_number       1
_space_group_crystal_system       triclinic
_cell_length_a                    13.060184
_cell_length_b                    13.626889
_cell_length_c                    15.756336
_cell_angle_alpha                 90.027397
_cell_angle_beta                  92.55849
_cell_angle_gamma                 85.732745
_cell_volume                      2793.57755192

loop_
_atom_site_label
_atom_site_type_symbol
_atom_type_description
_atom_site_fract_x
_atom_site_fract_y
_atom_site_fract_z
_atom_type_partial_charge
C1    C     C_R   0.481224 0.685157 0.499107 0.893649
C2    C     C_2   0.544529 0.020497 0.502233 -0.161293
C3    C     C_2   0.455459 0.979502 0.497913 -0.157713
C4    C     C_R   0.499230 0.499961 0.661975 0.905801
C5    C     C_1   0.457507 0.875753 0.497995 0.012495
C6    C     C_1   0.542484 0.124247 0.502110 0.011907
C7    C     C_1   0.466332 0.788330 0.498403 -0.174701
C8    C     C_2   0.033298 0.472980 0.476095 -0.241259
C9    C     C_2   0.966707 0.526997 0.523982 -0.235900
C10   C     C_1   0.854684 0.519543 0.517268 0.140698
C11   C     C_1   0.145318 0.480450 0.482771 0.148800
C12   C     C_3   0.395668 0.550199 0.047178 -0.448775
C13   C     C_R   0.518775 0.314843 0.500904 0.892093
C14   C     C_R   0.500750 0.500040 0.338017 0.904259
C15   C     C_3   0.394044 0.552417 0.948626 -0.150665
C16   C     C_3   0.586744 0.557944 0.953057 -0.420171
C17   C     C_3   0.588406 0.558260 0.051094 -0.392677
C18   C     C_1   0.501998 0.500359 0.249237 -0.175847
C19   C     C_3   0.496277 0.500392 0.917376 0.255312
C20   C     C_2   0.297903 0.511453 0.909711 0.917690
C21   C     C_3   0.499440 0.500761 0.082575 0.329418
C22   C     C_3   0.511419 0.393675 0.049570 -0.381117
C23   C     C_3   0.512600 0.393470 0.951721 -0.372399
C24   C     C_1   0.501525 0.500593 0.173973 -0.104905
C25   C     C_1   0.496796 0.500132 0.825920 -0.102320
C26   C     C_1   0.497638 0.499999 0.750719 -0.149389
C27   C     C_1   0.533663 0.211670 0.501656 -0.175888
H1    H     H_    0.384963 0.626846 0.071532 0.163099
H2    H     H_    0.578953 0.635083 0.929017 0.175189
H3    H     H_    0.580880 0.635520 0.074325 0.174133
H4    H     H_    0.663551 0.524076 0.076690 0.177914
H5    H     H_    0.452899 0.346930 0.924827 0.211135
H6    H     H_    0.587858 0.359257 0.931895 0.167566
H7    H     H_    0.446795 0.351870 0.070270 0.190752
H8    H     H_    0.172020 0.535185 0.831458 0.346744
H9    H     H_    0.331334 0.509971 0.070730 0.194462
H10   H     H_    0.584068 0.355613 0.076448 0.167217
H11   H     H_    0.382179 0.023082 0.494354 0.162800
H12   H     H_    0.617809 0.976917 0.505787 0.161518
H13   H     H_    0.996246 0.578582 0.569795 0.169662
H14   H     H_    0.003756 0.421393 0.430285 0.165215
H15   H     H_    0.391420 0.631035 0.928588 0.135116
H16   H     H_    0.661150 0.523636 0.931481 0.185551
N1    N     N_1   0.234540 0.484780 0.486630 -0.090038
N2    N     N_1   0.765460 0.515220 0.513370 -0.091981
O1    O     O_R   0.402510 0.634760 0.495110 -0.605893
O2    O     O_R   0.233801 0.569922 0.853558 -0.805174
O3    O     O_R   0.572960 0.644530 0.503690 -0.606129
O4    O     O_R   0.414740 0.495110 0.618560 -0.598433
O5    O     O_R   0.585180 0.504880 0.627150 -0.612709
O6    O     O_R   0.427040 0.355470 0.496310 -0.604982
O7    O     O_R   0.597490 0.365240 0.504890 -0.608247
O8    O     O_R   0.414820 0.495120 0.372850 -0.609136
O9    O     O_R   0.585260 0.504890 0.381440 -0.610637
O10   O     O_2   0.275807 0.428483 0.927450 -0.638678
Zn1   Zn    Zn3+2 0.386190 0.493480 0.494270 0.988647
Zn2   Zn    Zn3+2 0.613810 0.506520 0.505730 0.978213

loop_
_geom_bond_atom_site_label_1
_geom_bond_atom_site_label_2
_ccdc_geom_bond_type
C8    C9    D    
C4    C26   S    
C1    O3    A    
C12   H9    S    
O4    Zn1   S    
C9    C10   S    
N1    Zn1   S    
C19   C23   S    
C6    C27   T    
C12   C15   S    
C4    O4    A    
H8    O2    S    
C23   H5    S    
C10   N2    T    
C2    C3    D    
C25   C26   T    
C11   N1    T    
C13   O6    A    
C21   C22   S    
C22   H7    S    
C15   C19   S    
C17   H3    S    
C22   H10   S    
C16   H16   S    
N2    Zn2   S    
C2    C6    S    
C12   H1    S    
C16   C19   S    
C18   C24   T    
C2    H12   S    
C14   O9    A    
C8    C11   S    
C15   C20   S    
C17   H4    S    
C1    O1    A    
C21   C24   S    
C20   O2    S    
C20   O10   D    
O7    Zn2   S    
C19   C25   S    
C13   O7    A    
O3    Zn2   S    
C14   O8    A    
C8    H14   S    
C3    H11   S    
O6    Zn1   S    
O8    Zn1   S    
O1    Zn1   S    
C5    C7    T    
C14   C18   S    
C22   C23   S    
C13   C27   S    
C3    C5    S    
C16   H2    S    
C1    C7    S    
O5    Zn2   S    
C12   C21   S    
C9    H13   S    
C17   C21   S    
C15   H15   S    
C4    O5    A    
C16   C17   S    
C23   H6    S    
O9    Zn2   S    
