data_mof_unit_20827.cif
_audit_creation_date              2012-12-11T16:26:16-0500
_audit_creation_method            fapswitch 2.2
_symmetry_space_group_name_H-M    P1
_symmetry_Int_Tables_number       1
_space_group_crystal_system       triclinic
_cell_length_a                    14.019417
_cell_length_b                    14.019415
_cell_length_c                    31.887533
_cell_angle_alpha                 90.0
_cell_angle_beta                  90.000018
_cell_angle_gamma                 120.000251
_cell_volume                      5427.63082084

loop_
_atom_site_label
_atom_site_type_symbol
_atom_type_description
_atom_site_fract_x
_atom_site_fract_y
_atom_site_fract_z
_atom_type_partial_charge
C1    C     C_R   0.567247 0.444387 0.810341 0.522853
C2    C     C_R   0.444387 0.567247 0.189659 0.522854
C3    C     C_R   0.432753 0.877140 0.310341 0.522853
C4    C     C_R   0.122860 0.555613 0.189659 0.522852
C5    C     C_1   0.005381 0.536387 0.018695 -0.021245
C6    C     C_1   0.531004 0.994619 0.481305 -0.021244
C7    C     C_1   0.463614 0.468995 0.018695 -0.021245
C8    C     C_1   0.005381 0.536384 0.481305 -0.021245
C9    C     C_1   0.531005 0.994619 0.018695 -0.021245
C10   C     C_1   0.463615 0.468996 0.481305 -0.021245
C11   C     C_1   0.536385 0.005380 0.518695 -0.021244
C12   C     C_R   0.877140 0.432753 0.689659 0.522854
C13   C     C_1   0.994618 0.531006 0.981305 -0.021245
C14   C     C_1   0.468995 0.463615 0.518695 -0.021245
C15   C     C_1   0.536385 0.005380 0.981305 -0.021245
C16   C     C_1   0.994620 0.531004 0.518695 -0.021244
C17   C     C_1   0.468995 0.463615 0.981305 -0.021245
C18   C     C_R   0.931618 0.469962 0.851564 0.005428
C19   C     C_R   0.538343 0.068381 0.648436 0.005427
C20   C     C_R   0.530037 0.461656 0.851564 0.005427
C21   C     C_R   0.931620 0.469964 0.648437 0.005426
C22   C     C_R   0.538343 0.068381 0.851564 0.005427
C23   C     C_R   0.555613 0.122860 0.810341 0.522853
C24   C     C_R   0.530037 0.461656 0.648436 0.005427
C25   C     C_R   0.469963 0.931619 0.351564 0.005427
C26   C     C_R   0.068382 0.538344 0.148436 0.005428
C27   C     C_R   0.461656 0.530037 0.351564 0.005427
C28   C     C_R   0.469963 0.931619 0.148436 0.005427
C29   C     C_R   0.068381 0.538343 0.351564 0.005427
C30   C     C_R   0.461656 0.530037 0.148436 0.005427
C31   C     C_R   0.967656 0.577595 0.867461 0.234993
C32   C     C_R   0.609940 0.032346 0.632538 0.234992
C33   C     C_R   0.422406 0.390058 0.867462 0.234992
C34   C     C_R   0.567247 0.444387 0.689659 0.522854
C35   C     C_R   0.967649 0.577594 0.632538 0.234990
C36   C     C_R   0.609940 0.032347 0.867462 0.234991
C37   C     C_R   0.422406 0.390058 0.632538 0.234991
C38   C     C_R   0.577594 0.967653 0.367462 0.234991
C39   C     C_R   0.032344 0.609938 0.132539 0.234993
C40   C     C_R   0.390058 0.422406 0.367462 0.234991
C41   C     C_R   0.577594 0.967653 0.132538 0.234992
C42   C     C_R   0.032348 0.609940 0.367462 0.234991
C43   C     C_R   0.390058 0.422406 0.132538 0.234991
C44   C     C_R   0.988987 0.597763 0.910425 -0.046062
C45   C     C_R   0.877140 0.432753 0.810341 0.522851
C46   C     C_R   0.608776 0.011014 0.589575 -0.046062
C47   C     C_R   0.402238 0.391223 0.910425 -0.046062
C48   C     C_R   0.988981 0.597760 0.589574 -0.046063
C49   C     C_R   0.608776 0.011015 0.910425 -0.046063
C50   C     C_R   0.402239 0.391222 0.589575 -0.046063
C51   C     C_R   0.597761 0.988984 0.410426 -0.046063
C52   C     C_R   0.011012 0.608774 0.089575 -0.046062
C53   C     C_R   0.391223 0.402239 0.410425 -0.046062
C54   C     C_R   0.597761 0.988984 0.089575 -0.046062
C55   C     C_R   0.011016 0.608776 0.410426 -0.046062
C56   C     C_R   0.555613 0.122860 0.689659 0.522853
C57   C     C_R   0.391222 0.402239 0.089575 -0.046063
C58   C     C_R   0.980147 0.514525 0.937019 -0.012767
C59   C     C_R   0.534376 0.019851 0.562981 -0.012766
C60   C     C_R   0.485475 0.465624 0.937019 -0.012766
C61   C     C_R   0.980151 0.514525 0.562981 -0.012766
C62   C     C_R   0.534376 0.019851 0.937019 -0.012766
C63   C     C_R   0.485475 0.465624 0.562981 -0.012766
C64   C     C_R   0.514525 0.980148 0.437019 -0.012766
C65   C     C_R   0.019852 0.534378 0.062981 -0.012767
C66   C     C_R   0.465624 0.485475 0.437019 -0.012766
C67   C     C_R   0.444387 0.567247 0.310341 0.522854
C68   C     C_R   0.514525 0.980149 0.062981 -0.012766
C69   C     C_R   0.019851 0.534375 0.437019 -0.012766
C70   C     C_R   0.465624 0.485475 0.062981 -0.012767
C71   C     C_R   0.954488 0.412113 0.920818 -0.127737
C72   C     C_R   0.457619 0.045506 0.579182 -0.127737
C73   C     C_R   0.587886 0.542381 0.920818 -0.127737
C74   C     C_R   0.954503 0.412116 0.579183 -0.127736
C75   C     C_R   0.457619 0.045505 0.920818 -0.127736
C76   C     C_R   0.587886 0.542382 0.579183 -0.127737
C77   C     C_R   0.412114 0.954494 0.420818 -0.127737
C78   C     C_R   0.432753 0.877140 0.189659 0.522853
C79   C     C_R   0.045512 0.457624 0.079182 -0.127737
C80   C     C_R   0.542381 0.587886 0.420818 -0.127737
C81   C     C_R   0.412114 0.954495 0.079182 -0.127737
C82   C     C_R   0.045504 0.457618 0.420817 -0.127737
C83   C     C_R   0.542381 0.587886 0.079182 -0.127737
C84   C     C_R   0.930379 0.389846 0.878507 -0.147603
C85   C     C_R   0.459462 0.069615 0.621494 -0.147604
C86   C     C_R   0.610153 0.540538 0.878506 -0.147603
C87   C     C_R   0.930393 0.389850 0.621495 -0.147603
C88   C     C_R   0.459462 0.069615 0.878506 -0.147603
C89   C     C_R   0.122860 0.555613 0.310341 0.522853
C90   C     C_R   0.610152 0.540539 0.621494 -0.147603
C91   C     C_R   0.389847 0.930385 0.378506 -0.147603
C92   C     C_R   0.069621 0.459466 0.121493 -0.147604
C93   C     C_R   0.540538 0.610153 0.378506 -0.147603
C94   C     C_R   0.389848 0.930385 0.121494 -0.147603
C95   C     C_R   0.069614 0.459461 0.378505 -0.147603
C96   C     C_R   0.540538 0.610152 0.121494 -0.147603
Cr1   Cr    Cr6+3 0.504240 0.249200 0.750000 1.063548
Cr2   Cr    Cr6+3 0.744960 0.495760 0.750000 1.063548
Cr3   Cr    Cr6+3 0.750800 0.255040 0.750000 1.063548
Cr4   Cr    Cr6+3 0.249200 0.504240 0.250000 1.063548
Cr5   Cr    Cr6+3 0.495760 0.744960 0.250000 1.063548
Cr6   Cr    Cr6+3 0.255040 0.750800 0.250000 1.063548
H1    H     H_    0.987975 0.666242 0.076987 0.140558
H2    H     H_    0.666247 0.987982 0.923014 0.140558
H3    H     H_    0.012009 0.678263 0.576985 0.140557
H4    H     H_    0.321734 0.333752 0.923014 0.140558
H5    H     H_    0.096032 0.403199 0.132447 0.170303
H6    H     H_    0.307170 0.903977 0.367551 0.170303
H7    H     H_    0.596808 0.692830 0.132449 0.170303
H8    H     H_    0.096021 0.403191 0.367551 0.170303
H9    H     H_    0.307170 0.903978 0.132449 0.170301
H10   H     H_    0.596808 0.692830 0.367551 0.170303
H11   H     H_    0.403193 0.096023 0.632448 0.170303
H12   H     H_    0.678265 0.012017 0.423014 0.140558
H13   H     H_    0.903968 0.307167 0.867552 0.170303
H14   H     H_    0.692829 0.596809 0.632449 0.170305
H15   H     H_    0.403192 0.096022 0.867551 0.170303
H16   H     H_    0.903990 0.307175 0.632450 0.170302
H17   H     H_    0.692830 0.596808 0.867551 0.170301
H18   H     H_    0.997896 0.650887 0.813656 0.332555
H19   H     H_    0.652995 0.002107 0.686343 0.332556
H20   H     H_    0.349111 0.347002 0.813657 0.332556
H21   H     H_    0.997887 0.650891 0.686342 0.332556
H22   H     H_    0.652996 0.002107 0.813657 0.332556
H23   H     H_    0.333751 0.321734 0.076986 0.140558
H24   H     H_    0.349111 0.347001 0.686343 0.332556
H25   H     H_    0.650889 0.997892 0.313657 0.332556
H26   H     H_    0.002103 0.652989 0.186344 0.332556
H27   H     H_    0.347002 0.349111 0.313657 0.332556
H28   H     H_    0.650889 0.997892 0.186343 0.332556
H29   H     H_    0.002109 0.652997 0.313658 0.332556
H30   H     H_    0.347002 0.349111 0.186343 0.332556
H31   H     H_    0.051274 0.398941 0.058725 0.130442
H32   H     H_    0.347669 0.948735 0.441273 0.130442
H33   H     H_    0.601067 0.652331 0.058727 0.130442
H34   H     H_    0.987983 0.666247 0.423014 0.140558
H35   H     H_    0.051263 0.398931 0.441273 0.130442
H36   H     H_    0.347670 0.948736 0.058727 0.130442
H37   H     H_    0.601067 0.652331 0.441273 0.130442
H38   H     H_    0.398934 0.051265 0.558726 0.130442
H39   H     H_    0.948726 0.347668 0.941275 0.130442
H40   H     H_    0.652330 0.601068 0.558727 0.130442
H41   H     H_    0.398933 0.051264 0.941273 0.130442
H42   H     H_    0.948749 0.347673 0.558728 0.130442
H43   H     H_    0.652331 0.601067 0.941273 0.130442
H44   H     H_    0.678265 0.012018 0.076986 0.140558
H45   H     H_    0.333752 0.321735 0.423014 0.140558
H46   H     H_    0.666246 0.987980 0.576986 0.140558
H47   H     H_    0.012024 0.678268 0.923013 0.140558
H48   H     H_    0.321735 0.333751 0.576986 0.140557
O1    O     O_R   0.480350 0.140770 0.796330 -0.500022
O2    O     O_R   0.140770 0.480350 0.203670 -0.500022
O3    O     O_R   0.519650 0.660420 0.296330 -0.500022
O4    O     O_R   0.339580 0.859230 0.203670 -0.500023
O5    O     O_R   0.514930 0.348530 0.793250 -0.486236
O6    O     O_R   0.833600 0.485070 0.706750 -0.486235
O7    O     O_R   0.651470 0.166400 0.793250 -0.486236
O8    O     O_R   0.514930 0.348530 0.706750 -0.486236
O9    O     O_R   0.833600 0.485070 0.793250 -0.486238
O10   O     O_R   0.651470 0.166400 0.706750 -0.486235
O11   O     O_R   0.348530 0.514930 0.293250 -0.486236
O12   O     O_R   0.660420 0.519650 0.703670 -0.500021
O13   O     O_R   0.485070 0.833600 0.206750 -0.486236
O14   O     O_R   0.166400 0.651470 0.293250 -0.486236
O15   O     O_R   0.348530 0.514930 0.206750 -0.486237
O16   O     O_R   0.485070 0.833600 0.293250 -0.486236
O17   O     O_R   0.166400 0.651470 0.206750 -0.486237
O18   O     O_3   0.666667 0.333333 0.750000 -0.248595
O19   O     O_3   0.333333 0.666667 0.250000 -0.248595
O20   O     O_3   0.981384 0.664006 0.842579 -0.685800
O21   O     O_3   0.682626 0.018621 0.657421 -0.685799
O22   O     O_3   0.335995 0.317372 0.842579 -0.685800
O23   O     O_R   0.859230 0.339580 0.796330 -0.500022
O24   O     O_3   0.981368 0.664004 0.657420 -0.685798
O25   O     O_3   0.682627 0.018623 0.842579 -0.685799
O26   O     O_3   0.335995 0.317370 0.657420 -0.685800
O27   O     O_3   0.664005 0.981377 0.342580 -0.685800
O28   O     O_3   0.018615 0.682620 0.157422 -0.685799
O29   O     O_3   0.317371 0.335995 0.342580 -0.685800
O30   O     O_3   0.664005 0.981377 0.157420 -0.685799
O31   O     O_3   0.018624 0.682628 0.342580 -0.685799
O32   O     O_3   0.317371 0.335995 0.157420 -0.685799
O33   O     O_R   0.480350 0.140770 0.703670 -0.500022
O34   O     O_R   0.660420 0.519650 0.796330 -0.500023
O35   O     O_R   0.859230 0.339580 0.703670 -0.500022
O36   O     O_R   0.140770 0.480350 0.296330 -0.500022
O37   O     O_R   0.519650 0.660420 0.203670 -0.500022
O38   O     O_R   0.339580 0.859230 0.296330 -0.500022

loop_
_geom_bond_atom_site_label_1
_geom_bond_atom_site_label_2
_ccdc_geom_bond_type
C19   C56   S    
C21   C87   A    
C52   H1    S    
Cr6   O17   S    
C65   C79   A    
C29   C42   A    
C64   C77   A    
C60   C73   A    
C41   O30   S    
C45   O9    A    
C3    O38   A    
C39   O28   S    
C7    C70   S    
C29   C89   S    
C72   C85   A    
C88   H15   S    
H22   O25   S    
Cr4   O2    S    
H27   O29   S    
C8    C69   S    
C67   O3    A    
C68   C81   A    
C12   O6    A    
C71   C84   A    
C82   H35   S    
C38   C51   A    
C57   H23   S    
C46   C59   A    
C26   C39   A    
C54   C68   A    
C63   C76   A    
C19   C32   A    
C26   C92   A    
C55   H34   S    
C28   C41   A    
C53   H45   S    
C28   C94   A    
C89   O36   A    
C6    C64   S    
C1    O5    A    
C50   H48   S    
C2    O37   A    
C23   O1    A    
C69   C82   A    
H30   O32   S    
C47   C60   A    
C46   H46   S    
Cr4   O11   S    
C44   C58   A    
C7    C17   T    
C20   C86   A    
C18   C84   A    
Cr5   O19   S    
C86   H17   S    
C82   C95   A    
C22   C88   A    
C57   C70   A    
C28   C78   S    
Cr6   O4    S    
C89   O14   A    
C5    C13   T    
C59   C72   A    
C71   H39   S    
Cr6   O19   S    
C39   C52   A    
C78   O13   A    
C8    C16   T    
C38   O27   S    
Cr3   O10   S    
C50   C63   A    
C32   C46   A    
C49   H2    S    
C11   C59   S    
C35   C48   A    
Cr2   O12   S    
C1    O34   A    
Cr1   O33   S    
C10   C66   S    
C42   O31   S    
C81   H36   S    
C79   H31   S    
Cr2   O6    S    
C25   C91   A    
C51   H12   S    
C31   C44   A    
H25   O27   S    
C3    C25   S    
C87   H16   S    
C5    C65   S    
C10   C14   T    
C6    C11   T    
C29   C95   A    
C78   O4    A    
C13   C58   S    
C93   H10   S    
C19   C85   A    
C12   C21   S    
Cr6   O38   S    
C73   H43   S    
Cr4   O15   S    
Cr4   O36   S    
C36   C49   A    
C70   C83   A    
C45   O23   A    
C25   C38   A    
C40   O29   S    
C67   O11   A    
C92   H5    S    
C48   H3    S    
Cr3   O23   S    
Cr5   O3    S    
C94   H9    S    
C47   H4    S    
C56   O33   A    
C24   C37   A    
Cr1   O1    S    
C4    O2    A    
C53   C66   A    
C2    O15   A    
C79   C92   A    
C55   C69   A    
H28   O30   S    
C20   C33   A    
C34   O8    A    
H19   O21   S    
C32   O21   S    
C84   H13   S    
C90   H14   S    
Cr3   O7    S    
C74   C87   A    
C30   C43   A    
C27   C93   A    
H26   O28   S    
C16   C61   S    
C80   H37   S    
C18   C45   S    
Cr3   O35   S    
H21   O24   S    
H24   O26   S    
Cr3   O18   S    
C74   H42   S    
C77   C91   A    
C1    C20   S    
C49   C62   A    
C27   C40   A    
Cr4   O19   S    
C35   O24   S    
C83   H33   S    
C91   H6    S    
C22   C36   A    
C51   C64   A    
C34   O12   A    
C95   H8    S    
C24   C90   A    
C4    C26   S    
C75   H41   S    
C21   C35   A    
C31   O20   S    
C61   C74   A    
Cr1   O18   S    
C66   C80   A    
C96   H7    S    
C43   O32   S    
H20   O22   S    
C44   H47   S    
C4    O17   A    
C54   H44   S    
C2    C30   S    
Cr1   O8    S    
C85   H11   S    
C9    C15   T    
C9    C68   S    
C56   O10   A    
C37   O26   S    
C81   C94   A    
H29   O31   S    
H18   O20   S    
C48   C61   A    
C83   C96   A    
C42   C55   A    
C33   C47   A    
C12   O35   A    
C23   O7    A    
Cr5   O13   S    
C37   C50   A    
C15   C62   S    
C14   C63   S    
Cr1   O5    S    
C41   C54   A    
Cr2   O34   S    
Cr5   O16   S    
C62   C75   A    
C24   C34   S    
C73   C86   A    
C27   C67   S    
C58   C71   A    
C43   C57   A    
C17   C60   S    
C30   C96   A    
C75   C88   A    
C72   H38   S    
Cr2   O9    S    
C36   O25   S    
Cr6   O14   S    
C40   C53   A    
C77   H32   S    
C22   C23   S    
C18   C31   A    
C80   C93   A    
Cr5   O37   S    
C33   O22   S    
Cr2   O18   S    
C52   C65   A    
C3    O16   A    
C76   C90   A    
C76   H40   S    
