data_mof_unit_18220.cif
_audit_creation_date              2013-03-05T15:52:19-0500
_audit_creation_method            fapswitch 2.2
_symmetry_space_group_name_H-M    P1
_symmetry_Int_Tables_number       1
_space_group_crystal_system       triclinic
_cell_length_a                    14.842539
_cell_length_b                    15.328668
_cell_length_c                    9.893921
_cell_angle_alpha                 90.191024
_cell_angle_beta                  90.3335
_cell_angle_gamma                 89.425188
_cell_volume                      2250.865331

loop_
_atom_site_label
_atom_site_type_symbol
_atom_site_description
_atom_site_fract_x
_atom_site_fract_y
_atom_site_fract_z
_atom_type_partial_charge
O1    O     O_R   0.408390 0.908380 0.614690 -0.649559
O2    O     O_R   0.408390 0.091620 0.614690 -0.655421
O3    O     O_R   0.908390 0.408380 0.614690 -0.649532
O4    O     O_R   0.908390 0.591620 0.614690 -0.655444
O5    O     O_R   0.408370 0.908380 0.385360 -0.598756
O6    O     O_R   0.408370 0.091620 0.385360 -0.602653
O7    O     O_R   0.908370 0.408380 0.385360 -0.598830
O8    O     O_R   0.908370 0.591620 0.385360 -0.602613
C1    C     C_R   0.393041 0.870643 0.499570 0.933222
C2    C     C_R   0.391744 0.129149 0.499759 0.911581
C3    C     C_R   0.893069 0.370631 0.499569 0.933342
C4    C     C_R   0.891776 0.629163 0.499760 0.911498
Zn1   Zn    Zn3+2 0.500010 1.000000 0.653130 0.918887
Zn2   Zn    Zn3+2 0.000010 0.500000 0.653130 0.918877
Zn3   Zn    Zn3+2 0.499980 1.000000 0.346870 1.068236
Zn4   Zn    Zn3+2 0.999980 0.500000 0.346870 1.068305
O9    O     O_R   0.591620 0.091610 0.614640 -0.664694
O10   O     O_R   0.591620 0.908390 0.614640 -0.631755
O11   O     O_R   0.091620 0.591610 0.614640 -0.664617
O12   O     O_R   0.091620 0.408390 0.614640 -0.631870
O13   O     O_R   0.591610 0.091610 0.385310 -0.555342
O14   O     O_R   0.591610 0.908390 0.385310 -0.563860
O15   O     O_R   0.091610 0.591610 0.385310 -0.555453
O16   O     O_R   0.091610 0.408390 0.385310 -0.563668
C5    C     C_R   0.620055 0.121718 0.500659 0.895854
C6    C     C_R   0.628067 0.887724 0.499375 0.904591
C7    C     C_R   0.120007 0.621754 0.500652 0.895836
C8    C     C_R   0.128121 0.387798 0.499391 0.904507
C9    C     C_R   0.393042 0.258559 0.729359 -0.143408
C10   C     C_R   0.372417 0.755861 0.738635 -0.137637
C11   C     C_R   0.893016 0.758648 0.729343 -0.143494
C12   C     C_R   0.872633 0.255761 0.738569 -0.137627
H1    H     H_    0.449330 0.213584 0.733715 0.164181
H2    H     H_    0.442188 0.775642 0.734388 0.172462
H3    H     H_    0.949213 0.713546 0.733930 0.164130
H4    H     H_    0.942378 0.275619 0.734262 0.172404
C13   C     C_R   0.383385 0.315167 0.838948 -0.067067
C14   C     C_R   0.337230 0.733147 0.863097 -0.072235
C15   C     C_R   0.883408 0.815391 0.838784 -0.066923
C16   C     C_R   0.837551 0.232925 0.863036 -0.072470
H5    H     H_    0.427715 0.308976 0.925786 0.190923
H6    H     H_    0.379378 0.735716 0.952395 0.224543
H7    H     H_    0.927696 0.809213 0.925677 0.190781
H8    H     H_    0.879744 0.235482 0.952287 0.224346
C17   C     C_R   0.820965 0.883386 0.832757 -0.085625
C18   C     C_R   0.747204 0.211081 0.872232 -0.092141
C19   C     C_R   0.320839 0.383067 0.833132 -0.085591
C20   C     C_R   0.246847 0.711412 0.872212 -0.092089
H9    H     H_    0.817215 0.930575 0.914206 0.186828
H10   H     H_    0.717304 0.200034 0.969306 0.242777
H11   H     H_    0.317039 0.430159 0.914702 0.187356
H12   H     H_    0.216866 0.700483 0.969266 0.242719
C21   C     C_R   0.766210 0.893251 0.718959 -0.139208
C22   C     C_R   0.694982 0.202458 0.755637 -0.178227
C23   C     C_R   0.266095 0.393021 0.719339 -0.139146
C24   C     C_R   0.194698 0.702735 0.755551 -0.178093
H13   H     H_    0.726162 0.952043 0.712240 0.153463
H14   H     H_    0.624278 0.191055 0.770919 0.173805
H15   H     H_    0.226031 0.451800 0.712753 0.153561
H16   H     H_    0.123969 0.691376 0.770705 0.173592
C25   C     C_R   0.769915 0.832681 0.611094 0.076750
C26   C     C_R   0.733926 0.212247 0.625999 0.062172
C27   C     C_R   0.269880 0.332602 0.611288 0.076726
C28   C     C_R   0.233738 0.712412 0.625961 0.062142
C29   C     C_R   0.336278 0.266208 0.614083 0.072281
C30   C     C_R   0.318374 0.751803 0.620917 0.058078
C31   C     C_R   0.836299 0.766271 0.613997 0.072338
C32   C     C_R   0.818533 0.251705 0.620912 0.058134
C33   C     C_R   0.347789 0.214463 0.496500 -0.298255
C34   C     C_R   0.345513 0.788379 0.498480 -0.298703
C35   C     C_R   0.847809 0.714466 0.496469 -0.298188
C36   C     C_R   0.845605 0.288328 0.498480 -0.298775
C37   C     C_R   0.315696 0.246284 0.371457 0.216058
C38   C     C_R   0.311883 0.756032 0.376226 0.227514
C39   C     C_R   0.815605 0.746159 0.371416 0.216217
C40   C     C_R   0.812014 0.255936 0.376237 0.227493
C41   C     C_R   0.744689 0.805235 0.371015 0.237170
C42   C     C_R   0.736784 0.203571 0.377371 0.246645
C43   C     C_R   0.244924 0.305541 0.371073 0.237978
C44   C     C_R   0.236634 0.703702 0.377346 0.246637
C45   C     C_R   0.713650 0.839899 0.495246 -0.312451
C46   C     C_R   0.693823 0.184267 0.501734 -0.297186
C47   C     C_R   0.213740 0.340009 0.495330 -0.312551
C48   C     C_R   0.193685 0.684384 0.501702 -0.297076
H17   H     H_    0.640220 0.004022 0.126727 0.217079
H18   H     H_    0.140205 0.504203 0.126722 0.217403
C49   C     C_R   0.335407 0.999995 0.138938 -0.010023
C50   C     C_R   0.835409 0.499855 0.138937 -0.009917
H19   H     H_    0.329905 0.000584 0.246088 0.183247
H20   H     H_    0.829905 0.500516 0.246086 0.183271
C51   C     C_R   0.254220 0.999755 0.067973 -0.059645
C52   C     C_R   0.754224 0.499531 0.067972 -0.059371
H21   H     H_    0.191011 0.000008 0.122055 0.163112
H22   H     H_    0.691015 0.499739 0.122053 0.163240
C53   C     C_R   0.254144 0.999244 0.928116 -0.160943
C54   C     C_R   0.754148 0.499044 0.928115 -0.160845
H23   H     H_    0.190861 0.999247 0.873122 0.157227
H24   H     H_    0.690865 0.499015 0.873121 0.157300
C55   C     C_R   0.335212 0.999327 0.858385 -0.135034
C56   C     C_R   0.835214 0.499224 0.858385 -0.135024
H25   H     H_    0.329423 0.000271 0.751216 0.213673
H26   H     H_    0.829423 0.500240 0.751218 0.213702
C57   C     C_R   0.418784 0.999220 0.926922 0.150187
C58   C     C_R   0.918786 0.499149 0.926921 0.150213
C59   C     C_R   0.418850 0.999462 0.071672 0.186512
C60   C     C_R   0.918851 0.499383 0.071672 0.186503
N1    N     N_R   0.498810 1.000000 0.142780 -0.124368
N2    N     N_R   0.998810 0.500000 0.142780 -0.124373
C61   C     C_R   0.577319 0.002194 0.072277 0.057370
C62   C     C_R   0.077311 0.502294 0.072276 0.057472
H27   H     H_    0.640581 0.006881 0.877096 0.140457
H28   H     H_    0.140564 0.507113 0.877109 0.140441
C63   C     C_R   0.577348 0.002932 0.929375 -0.111389
C64   C     C_R   0.077340 0.503043 0.929378 -0.111567
N3    N     N_R   0.498740 1.000000 0.857170 -0.136007
N4    N     N_R   0.998740 0.500000 0.857170 -0.135988
N5    N     N_R   0.357442 0.222250 0.245462 0.235792
O17   O     O_R   0.309129 0.197340 0.142487 -0.366453
O18   O     O_R   0.443522 0.233410 0.229935 -0.341905
N6    N     N_R   0.353601 0.776027 0.249686 0.235185
O19   O     O_R   0.305929 0.809464 0.151826 -0.426182
O20   O     O_R   0.439177 0.760862 0.232257 -0.343530
N7    N     N_R   0.857252 0.722039 0.245395 0.235931
O21   O     O_R   0.808878 0.696889 0.142631 -0.366236
O22   O     O_R   0.943283 0.733373 0.229600 -0.341968
N8    N     N_R   0.853779 0.275891 0.249714 0.235186
O23   O     O_R   0.806123 0.309207 0.151743 -0.425911
O24   O     O_R   0.939391 0.260880 0.232441 -0.344335
N9    N     N_R   0.709539 0.833811 0.243201 0.244541
O25   O     O_R   0.642464 0.792550 0.187928 -0.314435
O26   O     O_R   0.757149 0.886165 0.169816 -0.396531
N10   N     N_R   0.706418 0.169358 0.250454 0.226296
O27   O     O_R   0.636472 0.204213 0.191010 -0.359794
O28   O     O_R   0.757745 0.115012 0.184247 -0.418895
N11   N     N_R   0.210330 0.334777 0.243311 0.244172
O29   O     O_R   0.143632 0.293730 0.186683 -0.315106
O30   O     O_R   0.258159 0.387718 0.171312 -0.396778
N12   N     N_R   0.206214 0.669572 0.250401 0.226305
O31   O     O_R   0.136172 0.704391 0.191167 -0.359894
O32   O     O_R   0.257566 0.615338 0.183979 -0.418075

loop_
_geom_bond_atom_site_label_1
_geom_bond_atom_site_label_2
_geom_bond_distance
_ccdc_geom_bond_type
C55   C57   1.410193 A    
C27   C29   1.409793 A    
N8    O23   1.299526 A    
C49   C51   1.391144 A    
C40   N8    1.435363 S    
O10   C6    1.301881 A    
C56   C58   1.410187 A    
C44   C48   1.422403 A    
C58   C60   1.432140 A    
N7    O21   1.300900 A    
C16   C18   1.388973 A    
C59   N1    1.376220 A    
Zn1   O10   1.982415 S    
C39   N7    1.440398 S    
C12   H4    1.083055 S    
C23   C27   1.413091 A    
C7    C48   1.462377 S    
H18   C62   1.075664 S    
C40   C42   1.381820 A    
C14   H6    1.080421 S    
C23   H15   1.076495 S    
N5    O18   1.300810 A    
C44   N12   1.431362 S    
N7    O22   1.300788 A    
C31   C35   1.416102 A    
C9    H1    1.078587 S    
C52   C54   1.383729 A    
C10   C14   1.387217 A    
N11   O30   1.300483 A    
Zn3   N1    2.019224 S    
O2    Zn1   1.981287 S    
C42   N10   1.431345 S    
C28   C48   1.429168 A    
O6    Zn3   1.982522 S    
C58   N4    1.376463 A    
C21   C25   1.413171 A    
Zn2   N4    2.018953 S    
Zn3   O14   1.981281 S    
C19   H11   1.082315 S    
C50   C52   1.391133 A    
C11   C15   1.393685 A    
N10   O27   1.301151 A    
C43   C47   1.414988 A    
C54   H24   1.082754 S    
C34   C38   1.397137 A    
C24   C28   1.418922 A    
C33   C37   1.409924 A    
Zn4   N2    2.019224 S    
O15   C7    1.299326 A    
O4    C4    1.297408 A    
O11   C7    1.294545 A    
C62   C64   1.413911 A    
C16   H8    1.080427 S    
C14   C20   1.389018 A    
C61   C63   1.413945 A    
C12   C32   1.411877 A    
C26   C46   1.429314 A    
C17   C21   1.392488 A    
Zn4   O16   1.981281 S    
C38   C44   1.381725 A    
C8    C47   1.461123 S    
C13   H5    1.082956 S    
N1    C61   1.362338 A    
C56   H26   1.063433 S    
C10   C30   1.411885 A    
N6    O20   1.301327 A    
O7    C3    1.293537 A    
C37   N5    1.440470 S    
C10   H2    1.083070 S    
Zn2   O12   1.982415 S    
N11   O29   1.301353 A    
O1    C1    1.295778 A    
C1    C34   1.451056 S    
H27   C63   1.076609 S    
C21   H13   1.076619 S    
C3    C36   1.451102 S    
C15   H7    1.083007 S    
O12   C8    1.301804 A    
C24   H16   1.077283 S    
C27   C47   1.418204 A    
C32   C36   1.399516 A    
C28   C30   1.400469 A    
C57   N3    1.376463 A    
O5    C1    1.293530 A    
C51   H21   1.082715 S    
C50   C60   1.409337 A    
C42   C46   1.422489 A    
C49   C59   1.409337 A    
Zn3   O13   1.998746 S    
O8    C4    1.291902 A    
C18   C22   1.392706 A    
C52   H22   1.082714 S    
C17   H9    1.082378 S    
C37   C43   1.381781 A    
C36   C40   1.397089 A    
C57   C59   1.432136 A    
C41   N9    1.433412 S    
C39   C41   1.381608 A    
Zn1   N3    2.018953 S    
O3    Zn2   1.998755 S    
C25   C31   1.409844 A    
C9    C29   1.418495 A    
H28   C64   1.076559 S    
N10   O28   1.301109 A    
O7    Zn4   2.003537 S    
C55   H25   1.063434 S    
C4    C35   1.455889 S    
C50   H20   1.063743 S    
Zn4   O15   1.998746 S    
C49   H19   1.063751 S    
C5    C46   1.462552 S    
C11   H3    1.078865 S    
C13   C19   1.388819 A    
O2    C2    1.297407 A    
C43   N11   1.433163 S    
N6    O19   1.299566 A    
C19   C23   1.392507 A    
N9    O25   1.301622 A    
C22   H14   1.077227 S    
C20   C24   1.392733 A    
O13   C5    1.299424 A    
N8    O24   1.301245 A    
Zn2   O11   2.003427 S    
O16   C8    1.288069 A    
O6    C2    1.291892 A    
C64   N4    1.365554 A    
C53   H23   1.082759 S    
N12   O32   1.301313 A    
Zn1   O9    2.003427 S    
C6    C45   1.460957 S    
C22   C26   1.418958 A    
C18   H10   1.075000 S    
H17   C61   1.075741 S    
C15   C17   1.388988 A    
O9    C5    1.294519 A    
C25   C45   1.418187 A    
N5    O17   1.300936 A    
C35   C39   1.409880 A    
C30   C34   1.399570 A    
C60   N2    1.376218 A    
C29   C33   1.416041 A    
C54   C56   1.390486 A    
N2    C62   1.362304 A    
C53   C55   1.390494 A    
C26   C32   1.400540 A    
C12   C16   1.387154 A    
O4    Zn2   1.981287 S    
O5    Zn3   2.003537 S    
O3    C3    1.295793 A    
N12   O31   1.301146 A    
C11   C31   1.418609 A    
C51   C53   1.383730 A    
C38   N6    1.435337 S    
C2    C33   1.455954 S    
C20   H12   1.075043 S    
O1    Zn1   1.998755 S    
O8    Zn4   1.982522 S    
C41   C45   1.415149 A    
O14   C6    1.287878 A    
C9    C13   1.393620 A    
C63   N3    1.365575 A    
N9    O26   1.300689 A    
