data_mof_unit_22766.cif
_audit_creation_date              2013-03-05T15:52:17-0500
_audit_creation_method            fapswitch 2.2
_symmetry_space_group_name_H-M    P1
_symmetry_Int_Tables_number       1
_space_group_crystal_system       triclinic
_cell_length_a                    21.518319
_cell_length_b                    7.251388
_cell_length_c                    14.962048
_cell_angle_alpha                 89.975841
_cell_angle_beta                  73.620024
_cell_angle_gamma                 90.004334
_cell_volume                      2239.88589218

loop_
_atom_site_label
_atom_site_type_symbol
_atom_site_description
_atom_site_fract_x
_atom_site_fract_y
_atom_site_fract_z
_atom_type_partial_charge
O1    O     O_R   0.464160 0.506670 0.130070 -0.601240
O2    O     O_R   0.535840 0.006670 0.869930 -0.600970
O3    O     O_R   0.589710 0.179080 0.006710 -0.564525
O4    O     O_R   0.410290 0.679080 0.993290 -0.564782
C1    C     C_R   0.616326 0.344407 0.001284 0.983353
C2    C     C_R   0.383672 0.844395 0.998739 0.983177
O5    O     O_R   0.467940 0.177220 0.138010 -0.564235
O6    O     O_R   0.532060 0.677220 0.861990 -0.564044
O7    O     O_R   0.413200 0.002810 0.002170 -0.578344
O8    O     O_R   0.586800 0.502810 0.997830 -0.577998
C3    C     C_R   0.456237 0.345730 0.174278 0.986124
C4    C     C_R   0.543718 0.845823 0.825716 0.986238
O9    O     O_3   0.482180 0.337850 0.955280 -0.273336
O10   O     O_3   0.517820 0.837850 0.044720 -0.273014
V1    V     V_3+5 0.503310 0.064600 0.008300 1.288543
V2    V     V_3+5 0.496690 0.564600 0.991700 1.288439
C5    C     C_R   0.571688 0.854531 0.724463 -0.125999
C6    C     C_R   0.428264 0.354048 0.275528 -0.125898
C7    C     C_R   0.927988 0.863497 0.274578 -0.155514
C8    C     C_R   0.072015 0.363943 0.725447 -0.155583
C9    C     C_R   0.558995 0.858585 0.569256 -0.157057
C10   C     C_R   0.440931 0.352820 0.430756 -0.156728
C11   C     C_R   0.531774 0.853338 0.665451 -0.153733
C12   C     C_R   0.468138 0.348909 0.334558 -0.155524
C13   C     C_R   0.638980 0.862221 0.686976 -0.168086
C14   C     C_R   0.361003 0.364159 0.313010 -0.166323
C15   C     C_R   0.668174 0.858817 0.589622 0.126977
C16   C     C_R   0.331782 0.358876 0.410347 0.126721
C17   C     C_R   0.626599 0.860900 0.530990 0.149604
C18   C     C_R   0.373348 0.357299 0.469003 0.149765
C19   C     C_R   0.736923 0.853437 0.548860 -0.002336
C20   C     C_R   0.263017 0.354921 0.451082 -0.002454
C21   C     C_R   0.762889 0.859208 0.449791 0.056974
C22   C     C_R   0.237071 0.358993 0.550177 0.057090
C23   C     C_R   0.719159 0.866879 0.394720 -0.101733
C24   C     C_R   0.280817 0.363317 0.605282 -0.101096
C25   C     C_R   0.652611 0.865817 0.434679 -0.199417
C26   C     C_R   0.347353 0.360552 0.565328 -0.198683
C27   C     C_R   0.780344 0.837186 0.603883 -0.226691
C28   C     C_R   0.219551 0.341547 0.395991 -0.226298
C29   C     C_R   0.847045 0.831859 0.564440 0.348191
C30   C     C_R   0.152822 0.337716 0.435434 0.348148
C31   C     C_R   0.873366 0.844375 0.467732 -0.053000
C32   C     C_R   0.126553 0.348124 0.532217 -0.053317
C33   C     C_R   0.831653 0.856060 0.409150 0.084723
C34   C     C_R   0.168306 0.357152 0.590822 0.084957
C35   C     C_R   0.941156 0.843501 0.428548 -0.057682
C36   C     C_R   0.058765 0.347383 0.571463 -0.058000
C37   C     C_R   0.968080 0.854201 0.332828 -0.027914
C38   C     C_R   0.031892 0.356365 0.667219 -0.028830
C39   C     C_R   0.860750 0.862943 0.311770 -0.127197
C40   C     C_R   0.139245 0.362822 0.688231 -0.126723
H1    H     H_    0.621116 0.869352 0.389461 0.171240
H2    H     H_    0.378851 0.361322 0.610567 0.169836
H3    H     H_    0.832963 0.867727 0.262354 0.156000
H4    H     H_    0.167047 0.366541 0.737651 0.155396
H5    H     H_    0.667064 0.873418 0.735533 0.173934
H6    H     H_    0.332975 0.378419 0.264496 0.172442
C41   C     C_3   0.230796 0.836139 0.903453 0.061193
C42   C     C_3   0.769240 0.335744 0.096470 0.061363
C43   C     C_3   0.303948 0.816827 0.901547 0.115855
C44   C     C_3   0.696097 0.316142 0.098395 0.115817
H7    H     H_    0.330306 0.930903 0.856408 0.055127
H8    H     H_    0.669663 0.429762 0.143738 0.055267
C45   C     C_3   0.200060 0.703313 0.069010 0.266523
C46   C     C_3   0.799961 0.203675 0.930818 0.266695
C47   C     C_3   0.208111 0.054382 0.039550 0.086496
C48   C     C_3   0.791886 0.554599 0.960519 0.086210
C49   C     C_3   0.185946 0.863744 0.006244 -0.453066
C50   C     C_3   0.814074 0.363800 0.993688 -0.453558
C51   C     C_3   0.312225 0.852107 0.001253 -0.351958
C52   C     C_3   0.687781 0.352138 0.998757 -0.352598
C53   C     C_3   0.272249 0.706689 0.070551 -0.378682
C54   C     C_3   0.727778 0.207235 0.929243 -0.378188
C55   C     C_3   0.282248 0.047850 0.032773 0.115258
C56   C     C_3   0.717717 0.548094 0.967500 0.116035
H9    H     H_    0.306320 0.144980 0.975687 0.119697
H10   H     H_    0.693693 0.644745 0.024784 0.119990
O11   O     O_R   0.913210 0.208550 0.002110 -0.556696
O12   O     O_R   0.086790 0.708550 0.997890 -0.556959
O13   O     O_R   0.032060 0.539960 0.861980 -0.559201
O14   O     O_R   0.967940 0.039960 0.138020 -0.558897
C57   C     C_R   0.044123 0.372533 0.825996 1.000528
C58   C     C_R   0.955901 0.872445 0.174016 1.000615
O15   O     O_R   0.910290 0.538020 0.993280 -0.596073
O16   O     O_R   0.089710 0.038020 0.006720 -0.596001
O17   O     O_R   0.964160 0.712340 0.130090 -0.587798
O18   O     O_R   0.035840 0.212340 0.869910 -0.587862
C59   C     C_R   0.884654 0.369891 0.995756 1.046858
C60   C     C_R   0.115360 0.869884 0.004186 1.046230
O19   O     O_3   0.017820 0.379210 0.044690 -0.267953
O20   O     O_3   0.982180 0.879210 0.955310 -0.267949
V3    V     V_3+5 0.996690 0.652500 0.991710 1.331999
V4    V     V_3+5 0.003310 0.152500 0.008290 1.332041
H11   H     H_    0.973957 0.835108 0.471546 0.181118
H12   H     H_    0.025909 0.340284 0.528517 0.182207
N1    N     N_R   0.208674 0.691639 0.850196 0.262190
O21   O     O_R   0.196618 0.735001 0.772330 -0.412024
O22   O     O_R   0.198362 0.522951 0.880236 -0.417420
N2    N     N_R   0.791431 0.191186 0.149657 0.261877
O23   O     O_R   0.803527 0.234421 0.227495 -0.412806
O24   O     O_R   0.801808 0.022617 0.119540 -0.417571
H13   H     H_    0.227818 0.967533 0.865992 0.078932
H14   H     H_    0.772159 0.467047 0.133986 0.079201
N3    N     N_R   0.334138 0.644223 0.858217 0.277282
O25   O     O_R   0.317056 0.484086 0.896335 -0.384576
O26   O     O_R   0.378412 0.650724 0.778499 -0.434417
N4    N     N_R   0.666055 0.143076 0.141444 0.277317
O27   O     O_R   0.683241 0.983313 0.103037 -0.384635
O28   O     O_R   0.621918 0.148728 0.221304 -0.435619
H15   H     H_    0.193443 0.570144 0.036816 0.171396
H16   H     H_    0.806545 0.070367 0.962964 0.171718
H17   H     H_    0.292884 0.567177 0.053963 0.236581
H18   H     H_    0.707146 0.067656 0.945605 0.237054
N5    N     N_R   0.167964 0.123106 0.130488 0.308056
O29   O     O_R   0.112916 0.047290 0.173456 -0.329267
O30   O     O_R   0.179747 0.286684 0.157409 -0.324871
N6    N     N_R   0.831938 0.623643 0.869538 0.307642
O31   O     O_R   0.886979 0.548064 0.826419 -0.329187
O32   O     O_R   0.820102 0.787309 0.842735 -0.324965
H19   H     H_    0.202970 0.160882 0.988307 0.101820
H20   H     H_    0.797099 0.660911 0.011766 0.102335
N7    N     N_R   0.296907 0.115991 0.117175 0.268023
O33   O     O_R   0.330378 0.266743 0.112268 -0.436258
O34   O     O_R   0.274902 0.034749 0.197439 -0.368262
N8    N     N_R   0.702927 0.616972 0.883311 0.267842
O35   O     O_R   0.669409 0.767699 0.888571 -0.435836
O36   O     O_R   0.724714 0.536106 0.802948 -0.370841
N9    N     N_R   0.154360 0.699758 0.163032 0.273572
O37   O     O_R   0.171563 0.748460 0.236379 -0.293891
O38   O     O_R   0.097055 0.628999 0.174800 -0.341929
N10   N     N_R   0.845688 0.200439 0.836807 0.273928
O39   O     O_R   0.828454 0.248738 0.763410 -0.293396
O40   O     O_R   0.903086 0.130421 0.825107 -0.342840
H21   H     H_    0.277909 0.730394 0.140678 0.231224
H22   H     H_    0.722133 0.231528 0.859150 0.231686
H23   H     H_    0.020218 0.854126 0.304263 0.216426
H24   H     H_    0.979761 0.356476 0.695833 0.217084
N11   N     N_R   0.887911 0.807130 0.624043 0.261204
O41   O     O_R   0.908297 0.642504 0.635596 -0.332456
O42   O     O_R   0.915760 0.949546 0.648896 -0.308846
N12   N     N_R   0.111844 0.316829 0.375727 0.261577
O43   O     O_R   0.082519 0.460295 0.354730 -0.315206
O44   O     O_R   0.092464 0.152727 0.361013 -0.326220
H25   H     H_    0.527134 0.859658 0.524589 0.134293
H26   H     H_    0.472781 0.350916 0.475437 0.134286
H27   H     H_    0.479648 0.850573 0.693831 0.162747
H28   H     H_    0.520238 0.344106 0.306194 0.163807
H29   H     H_    0.734436 0.871895 0.319842 0.176557
H30   H     H_    0.265559 0.366621 0.680183 0.175044
H31   H     H_    0.764245 0.824060 0.678499 0.209121
H32   H     H_    0.235638 0.329681 0.321307 0.208267

loop_
_geom_bond_atom_site_label_1
_geom_bond_atom_site_label_2
_geom_bond_distance
_ccdc_geom_bond_type
C32   C36   1.410485 A    
C3    C6    1.465149 S    
N8    O35   1.299672 A    
O14   V4    2.044057 S    
C37   H23   1.082086 S    
C15   C17   1.418716 A    
C21   C33   1.432565 A    
O1    C3    1.328262 A    
C58   O17   1.321439 A    
C49   C60   1.528529 S    
C52   C56   1.575491 S    
O2    C4    1.328231 A    
C2    O7    1.320708 A    
N1    O21   1.301412 A    
C45   C53   1.560243 S    
N7    O33   1.299659 A    
C27   C29   1.390009 A    
O5    C3    1.332112 A    
N3    O26   1.300588 A    
C18   C26   1.391367 A    
C5    C11   1.394648 A    
C13   H5    1.071119 S    
C55   N7    1.470909 S    
C10   C12   1.392825 A    
C23   C25   1.387549 A    
C56   H10   1.115211 S    
C36   C38   1.387107 A    
C1    C52   1.528370 S    
N7    O34   1.300810 A    
C44   N4    1.473798 S    
C33   C39   1.415197 A    
N5    O29   1.299539 A    
C46   C54   1.560271 S    
C27   H31   1.075744 S    
C53   H17   1.104679 S    
N4    O27   1.299952 A    
C28   H32   1.076012 S    
C42   C44   1.572464 S    
C43   H7    1.116028 S    
C47   N5    1.477718 S    
N6    O31   1.299531 A    
C45   H15   1.106285 S    
C8    C38   1.389881 A    
O16   V4    2.030239 S    
C48   N6    1.477882 S    
O15   V3    2.030115 S    
C10   H26   1.084086 S    
N4    O28   1.300547 A    
N10   O39   1.302131 A    
N5    O30   1.300568 A    
C6    C14   1.398900 A    
C4    C5    1.465259 S    
C30   N12   1.429311 S    
C44   H8    1.116031 S    
C19   C21   1.429660 A    
C22   C34   1.432467 A    
C43   N3    1.473822 S    
C39   H3    1.074591 S    
C25   H1    1.084548 S    
C43   C51   1.572522 S    
C28   C30   1.390269 A    
C57   O18   1.321402 A    
O6    V2    2.044038 S    
C29   C31   1.400126 A    
C30   C32   1.400205 A    
C47   H19   1.115268 S    
N1    O22   1.300299 A    
C32   C34   1.422943 A    
N2    O23   1.301412 A    
C46   N10   1.471959 S    
C2    C51   1.528278 S    
O18   V4    2.036373 S    
C41   C43   1.572560 S    
C29   N11   1.429307 S    
C15   C19   1.432884 A    
C53   H21   1.103405 S    
C16   C20   1.432870 A    
O11   V4    2.008455 S    
C52   C54   1.556528 S    
O16   C60   1.334503 A    
C48   H20   1.115258 S    
C51   C53   1.556545 S    
O15   C59   1.334308 A    
C56   N8    1.470726 S    
C42   N2    1.474375 S    
C11   H27   1.081746 S    
C54   H22   1.103322 S    
C47   C49   1.587873 S    
C9    H25   1.084051 S    
O4    V2    2.030163 S    
O13   V3    2.044757 S    
C7    C37   1.390124 A    
C26   H2    1.084587 S    
C42   C50   1.581135 S    
O6    C4    1.332235 A    
N2    O24   1.300316 A    
C44   C52   1.572495 S    
O1    V2    2.033332 S    
N9    O38   1.300856 A    
O2    V1    2.033717 S    
C14   H6    1.071524 S    
C41   C49   1.581114 S    
O4    C2    1.321209 A    
O14   C58   1.324167 A    
C9    C11   1.393022 A    
C12   H28   1.081601 S    
C13   C15   1.414533 A    
C41   N1    1.474461 S    
C6    C12   1.394654 A    
O9    V2    1.787353 S    
C50   C59   1.528427 S    
C48   C56   1.570460 S    
C7    C58   1.455700 S    
N12   O44   1.300122 A    
O3    V1    2.030037 S    
C8    C57   1.455412 S    
N9    O37   1.302114 A    
N8    O36   1.300806 A    
C36   H12   1.082438 S    
O10   V1    1.786972 S    
O3    C1    1.321159 A    
O13   C57   1.324011 A    
C45   N9    1.471875 S    
N11   O41   1.300030 A    
C38   H24   1.082017 S    
C35   C37   1.387328 A    
N3    O25   1.299977 A    
C14   C16   1.414680 A    
C41   H13   1.116191 S    
C16   C18   1.418817 A    
O7    V1    2.017219 S    
C5    C13   1.398696 A    
C1    O8    1.320720 A    
C8    C40   1.395937 A    
C10   C18   1.405029 A    
C34   C40   1.415233 A    
C51   C55   1.575551 S    
N11   O42   1.299926 A    
C24   H30   1.075530 S    
C46   C50   1.577109 S    
C9    C17   1.405178 A    
C45   C49   1.577194 S    
O17   V3    2.036767 S    
O5    V1    2.044736 S    
O20   V3    1.786600 S    
C21   C23   1.415899 A    
C19   C27   1.413644 A    
C22   C24   1.415874 A    
C20   C28   1.413692 A    
O12   C60   1.337208 A    
N6    O32   1.300554 A    
O11   C59   1.337288 A    
C24   C26   1.387404 A    
C7    C39   1.396033 A    
C47   C55   1.570443 S    
N10   O40   1.300832 A    
C55   H9    1.115266 S    
C17   C25   1.391446 A    
C48   C50   1.587967 S    
C35   H11   1.082514 S    
N12   O43   1.300301 A    
O8    V2    2.017262 S    
C23   H29   1.075533 S    
C46   H16   1.106303 S    
O12   V3    2.008411 S    
C42   H14   1.116197 S    
C31   C35   1.410426 A    
C31   C33   1.422960 A    
C40   H4    1.074658 S    
C20   C22   1.429705 A    
O19   V4    1.786979 S    
C54   H18   1.104490 S    
