data_mof_unit_18217.cif
_audit_creation_date              2012-12-11T15:56:56-0500
_audit_creation_method            fapswitch 2.2
_symmetry_space_group_name_H-M    P1
_symmetry_Int_Tables_number       1
_space_group_crystal_system       triclinic
_cell_length_a                    17.464351
_cell_length_b                    24.347119
_cell_length_c                    15.045944
_cell_angle_alpha                 89.876059
_cell_angle_beta                  126.232132
_cell_angle_gamma                 90.029429
_cell_volume                      5160.50346513

loop_
_atom_site_label
_atom_site_type_symbol
_atom_type_description
_atom_site_fract_x
_atom_site_fract_y
_atom_site_fract_z
_atom_type_partial_charge
C1    C     C_R   0.307913 0.123206 0.907638 -0.123988
C2    C     C_R   0.556999 0.152427 0.908756 -0.132274
C3    C     C_R   0.811723 0.363973 0.999997 0.035185
C4    C     C_R   0.575184 0.000796 0.372870 -0.081228
C5    C     C_R   0.075206 0.500796 0.372878 -0.081069
C6    C     C_R   0.190497 0.000563 0.638096 0.039563
C7    C     C_R   0.690506 0.500565 0.638086 0.039557
C8    C     C_R   0.516573 0.046729 0.749656 -0.147372
C9    C     C_R   0.517223 0.954469 0.748762 -0.157106
C10   C     C_R   0.016556 0.546729 0.749637 -0.147365
C11   C     C_R   0.017204 0.454469 0.748741 -0.157113
C12   C     C_R   0.769162 0.953593 0.248484 -0.105814
C13   C     C_R   0.057943 0.347950 0.908853 -0.127701
C14   C     C_R   0.769345 0.045983 0.247717 -0.122368
C15   C     C_R   0.269162 0.453592 0.248489 -0.105751
C16   C     C_R   0.269346 0.545982 0.247720 -0.122383
C17   C     C_R   0.056998 0.652427 0.908755 -0.132288
C18   C     C_R   0.541463 0.001153 0.717356 0.071334
C19   C     C_R   0.041435 0.501154 0.717325 0.071339
C20   C     C_R   0.824292 0.999604 0.272610 0.013393
C21   C     C_R   0.324293 0.499602 0.272621 0.013387
C22   C     C_R   0.617605 0.184108 0.000184 0.037549
C23   C     C_R   0.618904 0.816321 0.000561 0.038041
C24   C     C_R   0.117602 0.684109 0.000182 0.037533
C25   C     C_R   0.307730 0.877011 0.907243 -0.123185
C26   C     C_R   0.118892 0.316318 0.000556 0.037989
C27   C     C_3   0.020818 0.963941 0.517576 -0.148803
C28   C     C_3   0.032904 0.050904 0.487842 -0.166056
C29   C     C_3   0.520808 0.463988 0.517628 -0.148740
C30   C     C_3   0.532945 0.550921 0.487764 -0.166078
C31   C     C_3   0.954593 0.013893 0.472111 -0.125921
C32   C     C_3   0.454614 0.513953 0.472096 -0.125951
C33   C     C_3   0.925352 0.999389 0.356717 0.180250
C34   C     C_3   0.425355 0.499386 0.356719 0.180249
C35   C     C_3   0.991106 0.949260 0.401592 -0.164050
C36   C     C_R   0.807913 0.623206 0.907639 -0.124008
C37   C     C_3   0.002702 0.036471 0.371223 -0.156721
C38   C     C_3   0.491079 0.449244 0.401663 -0.164038
C39   C     C_3   0.502724 0.536424 0.371161 -0.156691
C40   C     C_3   0.071037 0.986224 0.418523 -0.146937
C41   C     C_3   0.571030 0.486164 0.418529 -0.146963
C42   C     C_R   0.400863 0.877921 0.091967 -0.188348
C43   C     C_R   0.401681 0.122327 0.092585 -0.182789
C44   C     C_R   0.900864 0.377922 0.091968 -0.188348
C45   C     C_R   0.901682 0.622326 0.092586 -0.182773
C46   C     C_3   0.098694 0.000839 0.532974 0.179731
C47   C     C_R   0.807729 0.377012 0.907244 -0.123215
C48   C     C_3   0.598704 0.500842 0.532963 0.179725
C49   C     C_3   0.278121 0.811106 0.117133 -0.401430
C50   C     C_3   0.280557 0.189736 0.118446 -0.390595
C51   C     C_3   0.778137 0.311099 0.117141 -0.401431
C52   C     C_3   0.780621 0.689765 0.118473 -0.390653
C53   C     C_3   0.722269 0.262229 0.115714 -0.492916
C54   C     C_3   0.725101 0.738744 0.117096 -0.498689
C55   C     C_3   0.222249 0.762237 0.115703 -0.492920
C56   C     C_3   0.225020 0.238709 0.117060 -0.498706
C57   C     C_3   0.782447 0.266494 0.968248 -0.398966
C58   C     C_R   0.647584 0.152398 0.091720 -0.171412
C59   C     C_3   0.782436 0.733796 0.967082 -0.398569
C60   C     C_3   0.282456 0.766493 0.968263 -0.398956
C61   C     C_3   0.282474 0.233798 0.967150 -0.398598
C62   C     C_3   0.147338 0.830146 0.918354 -0.524809
C63   C     C_3   0.148399 0.170121 0.920549 -0.523201
C64   C     C_3   0.647340 0.330149 0.918369 -0.524815
C65   C     C_3   0.648408 0.670111 0.920608 -0.523231
C66   C     C_3   0.255267 0.819461 0.001132 0.344542
C67   C     C_3   0.256339 0.180990 0.001923 0.336220
C68   C     C_3   0.755270 0.319461 0.001135 0.344547
C69   C     C_R   0.648116 0.847700 0.091983 -0.172572
C70   C     C_3   0.756348 0.680995 0.001929 0.336237
C71   C     C_3   0.663420 0.234882 0.999983 0.258919
C72   C     C_3   0.664764 0.765599 0.000683 0.259126
C73   C     C_3   0.163417 0.734883 0.999980 0.258922
C74   C     C_3   0.164753 0.265595 0.000675 0.259127
C75   C     C_3   0.732884 0.216772 0.973608 -0.412706
C76   C     C_3   0.732836 0.783555 0.972046 -0.411893
C77   C     C_3   0.232897 0.716771 0.973630 -0.412704
C78   C     C_3   0.232886 0.283558 0.972135 -0.411882
C79   C     C_3   0.591828 0.279478 0.915348 0.404176
C80   C     C_R   0.147583 0.652398 0.091719 -0.171396
C81   C     C_3   0.593003 0.720734 0.917826 0.402344
C82   C     C_3   0.091826 0.779474 0.915327 0.404169
C83   C     C_3   0.092995 0.220749 0.917746 0.402333
C84   C     C_3   0.555088 0.061699 0.594095 -0.578822
C85   C     C_3   0.651175 0.974803 0.669673 -0.563099
C86   C     C_3   0.055074 0.561700 0.594075 -0.578828
C87   C     C_3   0.151157 0.474801 0.669658 -0.563061
C88   C     C_R   0.559130 0.045566 0.307909 0.449236
C89   C     C_R   0.556312 0.955197 0.308206 0.398196
C90   C     C_R   0.059139 0.545566 0.307911 0.449142
C91   C     C_R   0.148113 0.347698 0.091980 -0.172521
C92   C     C_R   0.056329 0.455198 0.308213 0.398186
C93   C     C_3   0.559597 0.061863 0.496043 0.349146
C94   C     C_3   0.664633 0.977777 0.576527 0.375506
C95   C     C_3   0.059554 0.561860 0.496003 0.349092
C96   C     C_3   0.164649 0.477800 0.576541 0.375412
C97   C     C_3   0.472175 0.970338 0.530120 -0.403515
C98   C     C_3   0.972155 0.470343 0.530086 -0.403536
C99   C     C_3   0.555939 0.001967 0.630602 0.319607
C100  C     C_3   0.055918 0.501967 0.630577 0.319616
C101  C     C_3   0.572703 0.001796 0.469767 0.217264
C102  C     C_R   0.557948 0.847950 0.908855 -0.127633
C103  C     C_3   0.072710 0.501795 0.469765 0.217238
C104  C     C_3   0.485172 0.967387 0.439022 -0.349424
C105  C     C_3   0.985203 0.467363 0.439030 -0.349400
C106  C     C_R   0.239771 0.954365 0.696551 -0.155015
C107  C     C_R   0.239575 0.046311 0.697623 -0.141646
C108  C     C_R   0.739776 0.454366 0.696545 -0.155026
C109  C     C_R   0.739580 0.546312 0.697619 -0.141616
C110  C     C_R   0.312500 0.136414 0.000727 0.037653
C111  C     C_R   0.311721 0.863973 0.999994 0.035159
C112  C     C_R   0.812504 0.636416 0.000729 0.037669
H1    H     H_    0.250503 0.131889 0.822827 0.090305
H2    H     H_    0.178440 0.225122 0.140694 0.159857
H3    H     H_    0.252598 0.417285 0.621200 0.316824
H4    H     H_    0.403816 0.991234 0.498854 0.177418
H5    H     H_    0.467052 0.927616 0.552408 0.155479
H6    H     H_    0.903804 0.491260 0.498780 0.177501
H7    H     H_    0.966985 0.427629 0.552368 0.155429
H8    H     H_    0.595979 0.116320 0.287306 0.309582
H9    H     H_    0.588583 0.882423 0.291504 0.305883
H10   H     H_    0.095974 0.616322 0.287296 0.309591
H11   H     H_    0.088583 0.382422 0.291491 0.305874
H12   H     H_    0.419506 0.982418 0.360565 0.173228
H13   H     H_    0.674671 0.276020 0.137689 0.156724
H14   H     H_    0.494205 0.923563 0.426221 0.215678
H15   H     H_    0.919534 0.482354 0.360531 0.173201
H16   H     H_    0.994305 0.423536 0.426322 0.215707
H17   H     H_    0.792011 0.911231 0.264758 0.096432
H18   H     H_    0.792840 0.088219 0.263711 0.102894
H19   H     H_    0.292009 0.411230 0.264761 0.096413
H20   H     H_    0.292842 0.588218 0.263712 0.102897
H21   H     H_    0.678571 0.725168 0.140811 0.159853
H22   H     H_    0.774516 0.232877 0.180293 0.180183
H23   H     H_    0.777576 0.768370 0.180394 0.179626
H24   H     H_    0.274492 0.732889 0.180296 0.180183
H25   H     H_    0.277482 0.268320 0.180409 0.179628
H26   H     H_    0.787119 0.188169 0.038680 0.172162
H27   H     H_    0.787107 0.812486 0.035808 0.171571
H28   H     H_    0.287132 0.688174 0.038717 0.172165
H29   H     H_    0.250551 0.868480 0.822335 0.088901
H30   H     H_    0.287160 0.312466 0.035957 0.171575
H31   H     H_    0.128003 0.838919 0.834832 0.174138
H32   H     H_    0.128220 0.161230 0.836761 0.175460
H33   H     H_    0.627997 0.338922 0.834845 0.174137
H34   H     H_    0.628197 0.661215 0.836807 0.175451
H35   H     H_    0.046723 0.792948 0.941024 0.084777
H36   H     H_    0.049114 0.207326 0.945214 0.084965
H37   H     H_    0.546740 0.292953 0.941067 0.084782
H38   H     H_    0.549183 0.707310 0.945379 0.084977
H39   H     H_    0.761858 0.270140 0.882906 0.155178
H40   H     H_    0.750499 0.631887 0.822829 0.090308
H41   H     H_    0.761068 0.729844 0.881482 0.158071
H42   H     H_    0.261873 0.770135 0.882923 0.155190
H43   H     H_    0.261132 0.229865 0.881557 0.158087
H44   H     H_    0.695695 0.194007 0.894323 0.151338
H45   H     H_    0.694527 0.805897 0.892016 0.153467
H46   H     H_    0.195721 0.693999 0.894354 0.151349
H47   H     H_    0.194632 0.305929 0.892141 0.153491
H48   H     H_    0.225046 0.912512 0.666856 0.098021
H49   H     H_    0.225539 0.088377 0.668869 0.093473
H50   H     H_    0.725050 0.412513 0.666849 0.098028
H51   H     H_    0.750549 0.368482 0.822335 0.088906
H52   H     H_    0.725547 0.588379 0.668869 0.093458
H53   H     H_    0.523797 0.089576 0.737873 0.096556
H54   H     H_    0.524688 0.912129 0.733858 0.094255
H55   H     H_    0.023780 0.589577 0.737854 0.096556
H56   H     H_    0.024666 0.412129 0.733832 0.094272
H57   H     H_    0.688011 0.165390 0.176657 0.097934
H58   H     H_    0.688459 0.834504 0.176917 0.099942
H59   H     H_    0.188012 0.665390 0.176656 0.097931
H60   H     H_    0.188459 0.334503 0.176914 0.099932
H61   H     H_    0.516984 0.836221 0.823394 0.148992
H62   H     H_    0.029773 0.934454 0.579521 0.116834
H63   H     H_    0.515139 0.164503 0.823371 0.151272
H64   H     H_    0.016971 0.336224 0.823390 0.149076
H65   H     H_    0.015137 0.664501 0.823369 0.151291
H66   H     H_    0.905293 0.025159 0.492948 0.125811
H67   H     H_    0.405328 0.525268 0.492928 0.125818
H68   H     H_    0.972163 0.907760 0.363919 0.107450
H69   H     H_    0.992441 0.065840 0.308477 0.111195
H70   H     H_    0.472113 0.407728 0.364056 0.107445
H71   H     H_    0.492476 0.565755 0.308368 0.111196
H72   H     H_    0.121951 0.975022 0.400174 0.110634
H73   H     H_    0.050847 0.092579 0.524710 0.112289
H74   H     H_    0.621932 0.474913 0.400189 0.110637
H75   H     H_    0.354685 0.801783 0.179420 0.170354
H76   H     H_    0.357206 0.199127 0.179731 0.166720
H77   H     H_    0.854702 0.301775 0.179418 0.170349
H78   H     H_    0.857274 0.699162 0.179720 0.166706
H79   H     H_    0.260940 0.848917 0.143568 0.157620
H80   H     H_    0.264068 0.152069 0.146209 0.171996
H81   H     H_    0.760962 0.348908 0.143588 0.157620
H82   H     H_    0.764158 0.652107 0.146286 0.172011
H83   H     H_    0.860679 0.259806 0.024094 0.167415
H84   H     H_    0.529751 0.434538 0.579619 0.116843
H85   H     H_    0.860627 0.740642 0.022010 0.166115
H86   H     H_    0.360689 0.759809 0.024117 0.167423
H87   H     H_    0.360668 0.240632 0.022109 0.166118
H88   H     H_    0.428196 0.873418 0.177069 0.126143
H89   H     H_    0.430232 0.127036 0.178134 0.144026
H90   H     H_    0.928201 0.373419 0.177073 0.126099
H91   H     H_    0.930232 0.627030 0.178136 0.144014
H92   H     H_    0.127455 0.867171 0.943797 0.145500
H93   H     H_    0.129352 0.133119 0.947191 0.146716
H94   H     H_    0.627466 0.367174 0.943821 0.145504
H95   H     H_    0.550915 0.592611 0.524566 0.112276
H96   H     H_    0.629396 0.633109 0.947288 0.146734
H97   H     H_    0.568190 0.250949 0.779560 0.314353
H98   H     H_    0.566673 0.748802 0.780192 0.315872
H99   H     H_    0.068222 0.750938 0.779561 0.314357
H100  H     H_    0.066802 0.248845 0.780200 0.315895
H101  H     H_    0.489009 0.083261 0.569605 0.206324
H102  H     H_    0.651868 0.931316 0.693185 0.200538
H103  H     H_    0.989010 0.583272 0.569608 0.206294
H104  H     H_    0.151827 0.431308 0.693125 0.200561
H105  H     H_    0.616502 0.084964 0.663642 0.137724
H106  H     H_    0.174638 0.776031 0.137659 0.156724
H107  H     H_    0.711174 0.996105 0.744263 0.145348
H108  H     H_    0.116505 0.584957 0.663619 0.137729
H109  H     H_    0.211152 0.496088 0.744277 0.145360
H110  H     H_    0.622353 0.087026 0.519534 0.102969
H111  H     H_    0.724841 0.005973 0.602206 0.019245
H112  H     H_    0.122280 0.587045 0.519460 0.103034
H113  H     H_    0.224832 0.506020 0.602236 0.019295
H114  H     H_    0.482547 0.125957 0.414726 0.324531
H115  H     H_    0.752517 0.917229 0.621149 0.316813
H116  H     H_    0.982428 0.625925 0.414634 0.324506
N1    N     N_R   0.392450 0.103580 0.942190 -0.034403
N2    N     N_R   0.525490 0.971610 0.207550 -0.131064
N3    N     N_R   0.025490 0.528390 0.207550 -0.125872
N4    N     N_R   0.025490 0.471610 0.207550 -0.131064
N5    N     N_R   0.317450 0.971190 0.792000 -0.035526
N6    N     N_R   0.317450 0.028810 0.792000 -0.036208
N7    N     N_R   0.817450 0.471190 0.792000 -0.035524
N8    N     N_R   0.817450 0.528810 0.792000 -0.036209
N9    N     N_R   0.473900 0.028390 0.792280 -0.039155
N10   N     N_R   0.473900 0.971610 0.792280 -0.038030
N11   N     N_R   0.973900 0.528390 0.792280 -0.039153
N12   N     N_R   0.392450 0.896420 0.942190 -0.033726
N13   N     N_R   0.973900 0.471610 0.792280 -0.038027
N14   N     N_R   0.682310 0.971180 0.208170 -0.045266
N15   N     N_R   0.682310 0.028820 0.208170 -0.044748
N16   N     N_R   0.182310 0.471180 0.208170 -0.045259
N17   N     N_R   0.182310 0.528820 0.208170 -0.044742
N18   N     N_R   0.606470 0.103570 0.057210 -0.035804
N19   N     N_R   0.606470 0.896430 0.057210 -0.036227
N20   N     N_R   0.106470 0.603570 0.057210 -0.035806
N21   N     N_R   0.106470 0.396430 0.057210 -0.036231
N22   N     N_R   0.549740 0.896000 0.943240 -0.042569
N23   N     N_R   0.892450 0.603580 0.942190 -0.034405
N24   N     N_R   0.549740 0.104000 0.943240 -0.042889
N25   N     N_R   0.049740 0.396000 0.943240 -0.042570
N26   N     N_R   0.049740 0.604000 0.943240 -0.042891
N27   N     N_R   0.892450 0.396420 0.942190 -0.033729
N28   N     N_R   0.450490 0.896000 0.057360 -0.041946
N29   N     N_R   0.450490 0.104000 0.057360 -0.044914
N30   N     N_R   0.950490 0.396000 0.057360 -0.041951
N31   N     N_R   0.950490 0.604000 0.057360 -0.044916
N32   N     N_R   0.525490 0.028390 0.207550 -0.125888
Ni1   Ni    Ni4+2 0.433780 0.065390 0.868430 0.216939
Ni2   Ni    Ni4+2 0.433780 0.934610 0.868430 0.216244
Ni3   Ni    Ni4+2 0.933780 0.565390 0.868430 0.216934
Ni4   Ni    Ni4+2 0.933780 0.434610 0.868430 0.216229
Ni5   Ni    Ni4+2 0.565800 0.934190 0.131570 0.207272
Ni6   Ni    Ni4+2 0.565800 0.065810 0.131570 0.205315
Ni7   Ni    Ni4+2 0.065800 0.434190 0.131570 0.207290
Ni8   Ni    Ni4+2 0.065800 0.565810 0.131570 0.205324
O1    O     O_3   0.530053 0.259699 0.806953 -0.778135
O2    O     O_3   0.589209 0.903138 0.348552 -0.705497
O3    O     O_3   0.102497 0.595783 0.348380 -0.786290
O4    O     O_3   0.089251 0.403142 0.348564 -0.705487
O5    O     O_3   0.529711 0.740198 0.809215 -0.779756
O6    O     O_3   0.030071 0.759689 0.806934 -0.778153
O7    O     O_3   0.029780 0.240235 0.809141 -0.779794
O8    O     O_3   0.475630 0.085517 0.404477 -0.748917
O9    O     O_3   0.685861 0.925278 0.558283 -0.680242
O10   O     O_3   0.975556 0.585483 0.404426 -0.748941
O11   O     O_3   0.185941 0.425315 0.558318 -0.680269
O12   O     O_3   0.602491 0.095782 0.348384 -0.786244

loop_
_geom_bond_atom_site_label_1
_geom_bond_atom_site_label_2
_ccdc_geom_bond_type
H11   O4    S    
C13   H64   S    
C30   C32   S    
N28   Ni5   S    
C5    C103  S    
C52   C70   S    
N21   N25   A    
C16   C21   A    
C106  N5    A    
C64   H33   S    
H99   O6    S    
C1    C110  A    
C23   C69   A    
C63   H93   S    
C3    C68   S    
N15   Ni6   S    
C62   H31   S    
C72   C76   S    
C50   H76   S    
C61   H87   S    
C71   C79   S    
C82   H35   S    
C59   H41   S    
C45   C112  A    
C98   H7    S    
C39   C41   S    
C65   H96   S    
N18   N24   A    
C16   N17   A    
C102  H61   S    
C40   C46   S    
C28   C46   S    
C79   O1    S    
C98   C105  S    
C1    H1    S    
C91   H60   S    
C57   H83   S    
C87   H109  S    
C30   C48   S    
C9    H54   S    
C82   O6    S    
C10   C19   A    
C47   N27   A    
C87   C100  S    
C29   C32   S    
C36   N23   A    
C78   H30   S    
C91   N21   A    
C92   O4    S    
N20   N26   A    
C24   C73   S    
C76   H27   S    
C23   C102  A    
C8    C18   A    
C13   C26   A    
H3    O11   S    
C65   C70   S    
H98   O5    S    
N16   N17   A    
N14   Ni5   S    
C86   H103  S    
N22   Ni2   S    
N31   Ni8   S    
N23   N31   A    
C4    C88   A    
C15   N16   A    
C88   N32   A    
C75   H44   S    
C69   N19   A    
N6    Ni1   S    
C59   C76   S    
C37   H69   S    
C90   O3    S    
C94   C101  S    
C95   C103  S    
C10   H55   S    
N13   Ni4   S    
C29   C38   S    
C36   C112  A    
N7    N8    A    
C80   N20   A    
C32   H67   S    
C98   H6    S    
C93   H110  S    
C43   C110  A    
C66   C111  S    
N19   N22   A    
C50   H80   S    
C50   C67   S    
C74   C83   S    
C5    C90   A    
C51   H77   S    
C60   H86   S    
C77   H46   S    
C84   C93   S    
C47   H51   S    
C78   H47   S    
C52   C54   S    
C73   C82   S    
H97   O1    S    
C62   C82   S    
C108  N7    A    
C60   C66   S    
C10   N11   A    
C95   O10   S    
C34   C38   S    
N3    Ni8   S    
C87   C96   S    
C44   H90   S    
C84   C99   S    
N11   Ni3   S    
H114  O8    S    
C1    N1    A    
C83   O7    S    
N30   Ni7   S    
C61   H43   S    
C27   H62   S    
C55   H24   S    
C70   C112  S    
C97   C99   S    
C24   C80   A    
C45   N31   A    
C55   H106  S    
C15   H19   S    
N18   Ni6   S    
C3    C44   A    
C63   C67   S    
C76   H45   S    
N12   N28   A    
C17   C24   A    
C56   C74   S    
C49   C66   S    
C105  H15   S    
C31   H66   S    
N9    Ni1   S    
C34   C39   S    
C5    C92   A    
C14   C20   A    
C17   N26   A    
C58   N18   A    
C58   H57   S    
C52   H82   S    
C38   C41   S    
C103  C105  S    
C84   H105  S    
C93   C101  S    
C60   C77   S    
C62   C66   S    
C36   H40   S    
C86   H108  S    
C21   C34   S    
C29   C48   S    
C25   N12   A    
H116  O10   S    
C26   C91   A    
C8    N9    A    
C54   H21   S    
C64   H94   S    
C75   H26   S    
C50   C56   S    
C89   O2    S    
C63   C83   S    
C51   C53   S    
C32   C34   S    
N29   Ni6   S    
C42   C111  A    
C43   H89   S    
C85   C99   S    
C2    N24   A    
C2    H63   S    
H115  O9    S    
C85   C94   S    
C61   C67   S    
C67   C110  S    
C65   C81   S    
C49   H75   S    
C42   N28   A    
C61   C78   S    
C45   H91   S    
C11   C19   A    
C4    C101  S    
C12   C20   A    
C31   C33   S    
N14   N15   A    
C6    C106  A    
C54   C72   S    
C6    C107  A    
N11   N13   A    
C52   H78   S    
C97   H4    S    
C88   O12   S    
C62   H92   S    
C53   H13   S    
H10   O3    S    
C93   O8    S    
C104  H12   S    
C20   C33   S    
N24   Ni1   S    
N25   Ni4   S    
C69   H58   S    
N3    N4    A    
C107  N6    A    
N2    N32   A    
N26   Ni3   S    
C101  C104  S    
C12   N14   A    
C27   C31   S    
C51   H81   S    
C94   H111  S    
C89   N2    A    
C64   C79   S    
C77   H28   S    
C90   N3    A    
N10   Ni2   S    
N17   Ni8   S    
C49   H79   S    
C63   H32   S    
C87   H104  S    
N32   Ni6   S    
C53   C71   S    
C64   C68   S    
C107  H49   S    
C22   C71   S    
C43   N29   A    
C86   C100  S    
C84   H101  S    
C27   C46   S    
C33   C37   S    
C4    C89   A    
C14   H18   S    
H100  O7    S    
C17   H65   S    
C35   H68   S    
C13   N25   A    
C56   H2    S    
N19   Ni5   S    
C6    C46   S    
C105  H16   S    
C102  N22   A    
C96   O11   S    
C23   C72   S    
C28   C31   S    
C25   H29   S    
C53   H22   S    
C72   C81   S    
N12   Ni2   S    
C83   H36   S    
C109  H52   S    
C18   C99   S    
C22   C58   A    
C19   C100  S    
N20   Ni8   S    
N1    Ni1   S    
C37   C40   S    
C29   H84   S    
C98   C100  S    
C95   H112  S    
C38   H70   S    
N4    Ni7   S    
C79   H37   S    
N16   Ni7   S    
C27   C35   S    
C96   H113  S    
C57   C75   S    
C92   N4    A    
C42   H88   S    
C35   C40   S    
C85   H107  S    
C54   H23   S    
C106  H48   S    
C49   C55   S    
C28   H73   S    
C7    C48   S    
C94   O9    S    
C71   C75   S    
C56   H25   S    
N21   Ni7   S    
C11   H56   S    
C108  H50   S    
C28   C37   S    
C59   H85   S    
N7    Ni4   S    
C11   N13   A    
C30   H95   S    
C57   H39   S    
C3    C47   A    
C2    C22   A    
C33   C35   S    
C41   C48   S    
C41   H74   S    
C85   H102  S    
C81   O5    S    
C51   C68   S    
C97   H5    S    
C16   H20   S    
C60   H42   S    
C12   H17   S    
N27   N30   A    
C97   C104  S    
H8    O12   S    
C8    H53   S    
C25   C111  A    
C59   C70   S    
C44   N30   A    
C14   N15   A    
C55   C73   S    
C109  N8    A    
C7    C109  A    
C9    C18   A    
C15   C21   A    
C104  H14   S    
N27   Ni4   S    
N8    Ni3   S    
C26   C74   S    
C74   C78   S    
C96   C103  S    
N23   Ni3   S    
C9    N10   A    
C73   C77   S    
C7    C108  A    
C57   C68   S    
C80   H59   S    
C86   C95   S    
C65   H34   S    
N9    N10   A    
H9    O2    S    
C39   H71   S    
C81   H38   S    
N5    N6    A    
C30   C39   S    
N5    Ni2   S    
C40   H72   S    
N2    Ni5   S    
N1    N29   A    
