data_mof_unit_6989.cif
_audit_creation_date              2012-10-26T21:04:53-0400
_audit_creation_method            fapswitch 2.2
_symmetry_space_group_name_H-M    P1
_symmetry_Int_Tables_number       1
_space_group_crystal_system       triclinic
_cell_length_a                    11.689007
_cell_length_b                    12.35364
_cell_length_c                    13.361041
_cell_angle_alpha                 117.565085
_cell_angle_beta                  77.593816
_cell_angle_gamma                 101.360608
_cell_volume                      1659.77031052

loop_
_atom_site_label
_atom_site_type_symbol
_atom_type_description
_atom_site_fract_x
_atom_site_fract_y
_atom_site_fract_z
_atom_type_partial_charge
C1    C     C_R   0.519517 0.854275 0.287597 0.521589
C2    C     C_R   0.324113 0.511273 0.127271 -0.124332
C3    C     C_R   0.381283 0.628739 0.162324 -0.134623
C4    C     C_R   0.715610 0.999950 0.499931 0.533145
C5    C     C_R   0.540473 0.330949 0.885011 0.114491
C6    C     C_R   0.355490 0.203137 0.895482 -0.154541
C7    C     C_R   0.561301 0.768890 0.171241 0.004201
C8    C     C_R   0.658124 0.324562 0.303446 -0.173645
C9    C     C_R   0.341424 0.760157 0.644146 0.053930
C10   C     C_R   0.299924 0.659412 0.667419 -0.176390
C11   C     C_R   0.355814 0.552861 0.607474 -0.132102
C12   C     C_R   0.462214 0.225804 0.834494 0.015720
C13   C     C_R   0.456260 0.547461 0.525816 -0.010578
C14   C     C_R   0.490949 0.649559 0.499746 0.173729
C15   C     C_R   0.521400 0.442999 0.467303 -0.011889
C16   C     C_R   0.484165 0.145036 0.712770 0.572511
C17   C     C_R   0.602459 0.431550 0.368854 -0.009341
C18   C     C_R   0.632095 0.529927 0.340708 -0.167729
C19   C     C_R   0.582658 0.639382 0.409158 -0.091331
C20   C     C_R   0.516817 0.353486 0.507467 0.428474
C21   C     C_R   0.635429 0.230849 0.337691 -0.005624
C22   C     C_R   0.284361 0.000186 0.500265 0.540968
C23   C     C_R   0.679997 0.790672 0.130883 -0.134577
C24   C     C_1   0.837391 0.000114 0.500188 -0.033963
C25   C     C_1   0.939968 0.000248 0.500367 -0.052838
C26   C     C_1   0.059894 0.000311 0.500436 -0.049351
C27   C     C_1   0.162505 0.000281 0.500388 -0.027176
C28   C     C_R   0.314886 0.293936 0.000754 0.129974
C29   C     C_3   0.557071 0.480951 0.691768 -0.013712
C30   C     C_3   0.690026 0.471602 0.650201 -0.399441
C31   C     C_3   0.211035 0.254942 0.159473 -0.310150
C32   C     C_3   0.735881 0.261277 0.817072 -0.305948
C33   C     C_R   0.743324 0.692169 0.058079 -0.156803
C34   C     C_R   0.687108 0.572594 0.020304 -0.139913
C35   C     C_R   0.563055 0.549090 0.041155 0.028806
C36   C     C_R   0.501019 0.649454 0.123143 0.026522
C37   C     C_R   0.498547 0.429845 0.989958 0.000516
C38   C     C_R   0.380000 0.411251 0.041482 0.050008
Cu1   Cu    Cu3+1 0.526510 0.098270 0.475420 0.982508
Cu2   Cu    Cu3+1 0.473490 0.901730 0.524580 0.916307
H1    H     H_    0.299677 0.117484 0.857510 0.109840
H2    H     H_    0.743653 0.500618 0.981110 0.126491
H3    H     H_    0.838038 0.707896 0.037722 0.113903
H4    H     H_    0.331353 0.703792 0.223312 0.124958
H5    H     H_    0.675182 0.146463 0.285075 0.128939
H6    H     H_    0.537046 0.484431 0.778001 0.166063
H7    H     H_    0.536783 0.570619 0.704280 0.129148
H8    H     H_    0.718593 0.493409 0.576178 0.133699
H9    H     H_    0.741067 0.539570 0.719163 0.094586
H10   H     H_    0.710882 0.377696 0.624904 0.193214
H11   H     H_    0.146700 0.201639 0.008729 0.245396
H12   H     H_    0.698425 0.524538 0.268491 0.117812
H13   H     H_    0.254927 0.171961 0.133464 0.146826
H14   H     H_    0.120955 0.243594 0.204071 0.139363
H15   H     H_    0.261248 0.336790 0.220015 0.164390
H16   H     H_    0.689441 0.418817 0.818523 0.244256
H17   H     H_    0.819254 0.270835 0.761935 0.138817
H18   H     H_    0.699069 0.163038 0.780800 0.161985
H19   H     H_    0.755431 0.289496 0.904089 0.130917
H20   H     H_    0.718348 0.313274 0.226151 0.104455
H21   H     H_    0.296993 0.842282 0.689965 0.125455
H22   H     H_    0.318740 0.474872 0.624752 0.164164
H23   H     H_    0.223725 0.663466 0.731069 0.101377
H24   H     H_    0.618559 0.713425 0.387591 0.182598
H25   H     H_    0.232704 0.500329 0.163216 0.150583
H26   H     H_    0.727688 0.881528 0.168522 0.112568
N1    N     N_R   0.566700 0.246290 0.438210 -0.221249
N2    N     N_R   0.434010 0.754320 0.561170 -0.233077
N3    N     N_2   0.203425 0.270213 0.060138 -0.532971
N4    N     N_2   0.653766 0.337269 0.820718 -0.525044
O1    O     O_R   0.533340 0.972510 0.318140 -0.515266
O2    O     O_R   0.488570 0.806530 0.359650 -0.514718
O3    O     O_R   0.685190 0.083000 0.479260 -0.501575
O4    O     O_R   0.640410 0.917020 0.520770 -0.516321
O5    O     O_R   0.511430 0.193470 0.640350 -0.414011
O6    O     O_R   0.466660 0.027490 0.681860 -0.526327
O7    O     O_R   0.359590 0.082980 0.479230 -0.476709
O8    O     O_R   0.314810 0.917000 0.520740 -0.505931
O9    O     O_3   0.481436 0.381049 0.621511 -0.546003

loop_
_geom_bond_atom_site_label_1
_geom_bond_atom_site_label_2
_ccdc_geom_bond_type
C5    C37   A    
C16   O5    A    
C7    C36   A    
C20   N1    A    
C35   C36   A    
C34   H2    S    
C32   H18   S    
C2    H25   S    
C10   H23   S    
C18   H12   S    
C26   C27   T    
C1    O1    A    
C29   H7    S    
C9    H21   S    
Cu1   O7    S    
C23   H26   S    
C30   H8    S    
C35   C37   A    
C37   C38   A    
C18   C19   A    
C6    C12   A    
C4    C24   S    
C34   C35   A    
C6    C28   A    
C28   N3    S    
Cu2   O4    S    
C23   C33   A    
C6    H1    S    
Cu1   O5    S    
C9    C10   A    
C4    O4    A    
C11   H22   S    
C30   H10   S    
C1    C7    S    
C13   C14   A    
C21   N1    A    
C32   H17   S    
C17   C18   A    
C21   H5    S    
C15   C20   A    
C3    H4    S    
C1    O2    A    
C33   H3    S    
C12   C16   S    
C24   C25   T    
C22   O8    A    
C5    C12   A    
Cu1   Cu2   S    
C32   N4    S    
C25   C26   S    
Cu2   O6    S    
C29   C30   S    
C2    C38   A    
C29   O9    S    
C28   C38   A    
C19   H24   S    
C8    C21   A    
C31   H13   S    
C4    O3    A    
C30   H9    S    
H16   N4    S    
C22   C27   S    
C13   C15   A    
Cu2   O8    S    
C15   C17   A    
C14   N2    A    
Cu2   O2    S    
C20   O9    S    
C16   O6    A    
Cu1   N1    S    
C14   C19   A    
C22   O7    A    
C5    N4    S    
C8    C17   A    
C29   H6    S    
C2    C3    A    
C9    N2    A    
C8    H20   S    
C11   C13   A    
C3    C36   A    
C7    C23   A    
C33   C34   A    
Cu1   O3    S    
C31   H14   S    
C10   C11   A    
C31   N3    S    
Cu2   N2    S    
Cu1   O1    S    
H11   N3    S    
C32   H19   S    
C31   H15   S    
