data_mof_unit_66475.cif
_audit_creation_date              2012-12-10T19:21:02-0500
_audit_creation_method            fapswitch 2.2
_symmetry_space_group_name_H-M    P1
_symmetry_Int_Tables_number       1
_space_group_crystal_system       triclinic
_cell_length_a                    14.778196
_cell_length_b                    16.020887
_cell_length_c                    17.020969
_cell_angle_alpha                 89.628234
_cell_angle_beta                  92.836613
_cell_angle_gamma                 89.999632
_cell_volume                      4024.85866911

loop_
_atom_site_label
_atom_site_type_symbol
_atom_type_description
_atom_site_fract_x
_atom_site_fract_y
_atom_site_fract_z
_atom_type_partial_charge
C1    C     C_R   0.500005 0.340971 0.499980 0.845344
C2    C     C_R   0.499995 0.659029 0.500019 0.845341
C3    C     C_R   0.498699 0.912488 0.500331 -0.234578
C4    C     C_R   0.501301 0.087511 0.499667 -0.234578
C5    C     C_R   0.419567 0.957278 0.517716 0.350565
C6    C     C_R   0.580433 0.042722 0.482281 0.350566
C7    C     C_1   0.499324 0.822803 0.500216 0.108671
C8    C     C_1   0.500676 0.177197 0.499782 0.108672
C9    C     C_1   0.500186 0.252094 0.499892 -0.054346
C10   C     C_1   0.499814 0.747906 0.500108 -0.054347
C11   C     C_R   0.946690 0.539008 0.439102 0.421285
C12   C     C_R   0.053310 0.460992 0.560898 0.421286
C13   C     C_R   0.902964 0.499327 0.501044 -0.227646
C14   C     C_R   0.097035 0.500673 0.498956 -0.227647
C15   C     C_R   0.956705 0.459987 0.562454 0.268801
C16   C     C_R   0.043295 0.540014 0.437546 0.268801
C17   C     C_1   0.802584 0.499762 0.500393 0.337504
C18   C     C_1   0.197416 0.500238 0.499607 0.337506
C19   C     C_R   0.510186 0.498966 0.651235 0.955030
C20   C     C_R   0.489814 0.501034 0.348765 0.955036
C21   C     C_R   0.512498 0.495141 0.737299 -0.326421
C22   C     C_R   0.487502 0.504858 0.262702 -0.326410
C23   C     C_R   0.457376 0.550196 0.777900 0.303777
C24   C     C_R   0.542618 0.449799 0.222100 0.303773
C25   C     C_R   0.446162 0.539186 0.858145 0.326480
C26   C     C_R   0.553833 0.460807 0.141856 0.326480
C27   C     C_R   0.496117 0.476118 0.899776 0.115218
C28   C     C_R   0.503886 0.523880 0.100224 0.115223
C29   C     C_R   0.552400 0.421712 0.860243 0.346605
C30   C     C_R   0.447610 0.578292 0.139757 0.346598
C31   C     C_R   0.560167 0.430607 0.778113 0.198576
C32   C     C_R   0.439840 0.569396 0.221887 0.198569
C33   C     C_R   0.578295 0.955371 0.482798 0.387299
C34   C     C_R   0.421705 0.044629 0.517200 0.387298
Cu1   Cu    Cu3+1 0.589220 0.500000 0.499980 1.098799
Cu2   Cu    Cu3+1 0.410780 0.500000 0.500020 1.098801
N1    N     N_2   0.492103 0.466729 0.982174 -0.146932
N2    N     N_2   0.507900 0.533267 0.017826 -0.146931
N3    N     N_1   0.276710 0.499980 0.499980 -0.139201
N4    N     N_1   0.723290 0.500020 0.500020 -0.139201
O1    O     O_R   0.575320 0.380310 0.499960 -0.554560
O2    O     O_R   0.424680 0.619690 0.500040 -0.554560
O3    O     O_R   0.424640 0.380310 0.500000 -0.568181
O4    O     O_R   0.575360 0.619690 0.500000 -0.568181
O5    O     O_R   0.583590 0.499240 0.613900 -0.550639
O6    O     O_R   0.416410 0.500760 0.386100 -0.550639
O7    O     O_R   0.432900 0.499240 0.613940 -0.548281
O8    O     O_R   0.567100 0.500760 0.386060 -0.548285
Cl1   Cl    Cl    0.600565 0.366466 0.271327 -0.457632
Cl2   Cl    Cl    0.399421 0.633525 0.728675 -0.457623
O9    O     O_3   0.615268 0.410081 0.106399 -0.584974
H1    H     H_    0.636442 0.438652 0.058947 0.373282
O10   O     O_3   0.384722 0.589907 0.893602 -0.584972
H2    H     H_    0.363555 0.561334 0.941056 0.373279
O11   O     O_3   0.598115 0.360929 0.904584 -0.633556
H3    H     H_    0.641488 0.331355 0.872334 0.393755
O12   O     O_3   0.401905 0.639081 0.095416 -0.633553
H4    H     H_    0.358550 0.668673 0.127671 0.393759
Cl3   Cl    Cl    0.623755 0.357976 0.725270 -0.547495
Cl4   Cl    Cl    0.376255 0.642030 0.274730 -0.547503
O13   O     O_3   0.660940 0.081099 0.464551 -0.605665
H5    H     H_    0.654668 0.142478 0.465842 0.350885
O14   O     O_3   0.339059 0.918901 0.535447 -0.605666
H6    H     H_    0.345331 0.857522 0.534153 0.350885
Cl5   Cl    Cl    0.677409 0.900004 0.461018 -0.415809
Cl6   Cl    Cl    0.322591 0.099996 0.538981 -0.415808
O15   O     O_3   0.081906 0.580043 0.375070 -0.678573
H7    H     H_    0.148715 0.576746 0.380245 0.356851
O16   O     O_3   0.918094 0.419957 0.624930 -0.678573
H8    H     H_    0.851285 0.423256 0.619756 0.356853
O17   O     O_3   0.892342 0.576580 0.380440 -0.663561
H9    H     H_    0.930079 0.602241 0.340411 0.399316
O18   O     O_3   0.107658 0.423420 0.619560 -0.663559
H10   H     H_    0.069921 0.397759 0.659589 0.399316

loop_
_geom_bond_atom_site_label_1
_geom_bond_atom_site_label_2
_ccdc_geom_bond_type
C7    C10   T    
C18   N3    T    
C19   O5    A    
Cu2   O6    S    
N1    N2    D    
C14   C16   A    
C13   C17   S    
C27   C29   A    
C11   C13   A    
C11   C16   A    
C14   C18   S    
C26   C28   A    
Cu1   Cu2   S    
C12   C15   A    
C28   N2    S    
O11   H3    S    
C5    C34   A    
C34   Cl6   S    
C22   C24   A    
C28   C30   A    
Cu1   N4    S    
C12   C14   A    
C33   Cl5   S    
O17   H9    S    
C29   C31   A    
C6    C33   A    
O10   H2    S    
C25   O10   S    
C30   C32   A    
Cu1   O4    S    
C21   C31   A    
C24   C26   A    
O12   H4    S    
C20   O8    A    
C22   C32   A    
C2    O2    A    
O15   H7    S    
Cu1   O1    S    
Cu1   O8    S    
C6    O13   S    
C1    O1    A    
C19   C21   S    
C20   C22   S    
C3    C7    S    
C13   C15   A    
C4    C34   A    
O16   H8    S    
C15   O16   S    
C11   O17   S    
C26   O9    S    
C25   C27   A    
O13   H5    S    
C32   Cl4   S    
O9    H1    S    
Cu1   O5    S    
C30   O12   S    
C24   Cl1   S    
C23   C25   A    
C1    C9    S    
C5    O14   S    
Cu2   O7    S    
C4    C6    A    
O18   H10   S    
C19   O7    A    
C31   Cl3   S    
C4    C8    S    
C16   O15   S    
C3    C33   A    
C8    C9    T    
C23   Cl2   S    
C29   O11   S    
C3    C5    A    
C12   O18   S    
Cu2   O2    S    
C21   C23   A    
C1    O3    A    
Cu2   N3    S    
C20   O6    A    
C27   N1    S    
C2    O4    A    
O14   H6    S    
Cu2   O3    S    
C17   N4    T    
C2    C10   S    
