data_mof_unit_52702.cif
_audit_creation_date              2012-12-10T17:47:15-0500
_audit_creation_method            fapswitch 2.2
_symmetry_space_group_name_H-M    P1
_symmetry_Int_Tables_number       1
_space_group_crystal_system       triclinic
_cell_length_a                    11.689914
_cell_length_b                    14.697206
_cell_length_c                    14.714655
_cell_angle_alpha                 65.29679
_cell_angle_beta                  103.01398
_cell_angle_gamma                 102.667022
_cell_volume                      2215.27003727

loop_
_atom_site_label
_atom_site_type_symbol
_atom_type_description
_atom_site_fract_x
_atom_site_fract_y
_atom_site_fract_z
_atom_type_partial_charge
C1    C     C_R   0.482305 0.119647 0.312396 0.818698
C2    C     C_R   0.517000 0.880413 0.687532 0.814290
C3    C     C_R   0.431983 0.321291 0.002572 0.111865
C4    C     C_R   0.556703 0.678069 0.997167 0.105479
C5    C     C_R   0.501442 0.466971 0.051434 0.056927
C6    C     C_R   0.485775 0.532829 0.947525 0.062938
C7    C     C_R   0.455312 0.489650 0.873975 -0.183855
C8    C     C_R   0.530748 0.509730 0.125199 -0.195053
C9    C     C_R   0.421882 0.386265 0.901063 -0.239699
C10   C     C_R   0.564470 0.612954 0.098584 -0.234629
C11   C     C_R   0.690863 0.278565 0.676658 0.045533
C12   C     C_R   0.310185 0.721923 0.322630 0.045238
C13   C     C_R   0.660521 0.199401 0.641954 0.068838
C14   C     C_R   0.340014 0.800846 0.357664 0.068914
C15   C     C_R   0.519053 0.286677 0.508129 0.020538
C16   C     C_R   0.480933 0.713317 0.491899 0.017860
C17   C     C_R   0.545019 0.371076 0.536341 -0.050255
C18   C     C_R   0.455495 0.629155 0.463342 -0.049504
C19   C     C_R   0.631123 0.365103 0.623343 0.091243
C20   C     C_R   0.369788 0.635314 0.376066 0.091507
C21   C     C_R   0.487111 0.459800 0.482253 0.095382
C22   C     C_R   0.513561 0.540504 0.517339 0.095070
C23   C     C_R   0.284172 0.000223 0.500153 0.809484
C24   C     C_R   0.715838 0.999659 0.500023 0.808107
C25   C     C_R   0.596958 0.529761 0.605548 -0.227195
C26   C     C_R   0.404048 0.470689 0.393840 -0.227285
C27   C     C_R   0.654773 0.445244 0.656185 -0.208989
C28   C     C_R   0.346439 0.555311 0.343047 -0.210343
C29   C     C_1   0.162640 0.000554 0.500377 -0.190229
C30   C     C_1   0.837372 0.999193 0.499981 -0.185223
C31   C     C_1   0.060016 0.000180 0.500329 -0.010434
C32   C     C_1   0.939996 0.999486 0.500135 -0.006367
C33   C     C_R   0.470539 0.187465 0.204948 -0.133257
C34   C     C_R   0.525383 0.812614 0.794856 -0.153725
C35   C     C_R   0.396367 0.217107 0.029143 -0.198455
C36   C     C_R   0.594878 0.781890 0.971294 -0.199654
C37   C     C_R   0.410537 0.151159 0.130310 -0.273967
C38   C     C_R   0.584455 0.848101 0.870217 -0.267491
C39   C     C_R   0.517651 0.290475 0.177063 0.379627
C40   C     C_R   0.474910 0.710167 0.821929 0.380575
C41   C     C_R   0.482926 0.360322 0.078196 -0.030091
C42   C     C_R   0.506235 0.639597 0.920933 -0.011233
Cu1   Cu    Cu3+1 0.469550 0.918260 0.475690 0.941024
Cu2   Cu    Cu3+1 0.530450 0.081740 0.524310 0.942898
H1    H     H_    0.392018 0.356699 0.842102 0.151557
H2    H     H_    0.593766 0.642219 0.157795 0.152003
H3    H     H_    0.620058 0.585521 0.638589 0.133143
H4    H     H_    0.381275 0.415057 0.360641 0.133013
H5    H     H_    0.620687 0.927149 0.851217 0.170373
H6    H     H_    0.376464 0.071652 0.149894 0.170170
H7    H     H_    0.354986 0.187006 0.971847 0.147304
H8    H     H_    0.635776 0.811380 0.029126 0.147461
H9    H     H_    0.458235 0.533683 0.794628 0.205544
H10   H     H_    0.527305 0.465041 0.204430 0.201281
H11   H     H_    0.718101 0.443777 0.722671 0.138080
H12   H     H_    0.283473 0.556944 0.276330 0.137910
H13   H     H_    0.547755 0.717183 0.554134 0.139892
H14   H     H_    0.451784 0.282625 0.446213 0.139793
H15   H     H_    0.298792 0.868722 0.319653 0.148474
H16   H     H_    0.701836 0.131569 0.679882 0.148528
N1    N     N_R   0.576230 0.204580 0.560790 -0.202873
N2    N     N_R   0.423770 0.795420 0.439210 -0.202928
O1    O     O_R   0.459870 0.022090 0.338120 -0.602387
O2    O     O_R   0.540130 0.977910 0.661880 -0.599394
O3    O     O_R   0.511290 0.160150 0.379180 -0.535925
O4    O     O_R   0.488710 0.839850 0.620820 -0.542805
O5    O     O_R   0.311490 0.930960 0.479480 -0.582811
O6    O     O_R   0.688510 0.069040 0.520520 -0.585254
O7    O     O_R   0.362910 0.069020 0.520540 -0.576287
O8    O     O_R   0.637090 0.930980 0.479460 -0.574997
O9    O     O_3   0.390900 0.680708 0.752666 -0.626164
C43   C     C_3   0.279207 0.706119 0.748561 0.086151
H17   H     H_    0.231490 0.722593 0.670231 0.178060
H18   H     H_    0.285389 0.775785 0.763314 0.112655
C44   C     C_3   0.206294 0.616935 0.821714 -0.357719
H19   H     H_    0.200959 0.548149 0.806261 0.233850
H20   H     H_    0.250268 0.601921 0.900840 0.218567
C45   C     C_3   0.081020 0.638713 0.810668 -0.925277
H21   H     H_    0.084208 0.706427 0.827259 0.258265
H22   H     H_    0.030695 0.572943 0.864800 0.255982
H23   H     H_    0.033920 0.651822 0.732686 0.257464
O10   O     O_3   0.602428 0.320289 0.245724 -0.620130
C46   C     C_3   0.716914 0.337852 0.219222 0.054234
H24   H     H_    0.767256 0.404425 0.235070 0.166987
H25   H     H_    0.716970 0.356902 0.137354 0.130123
C47   C     C_3   0.781564 0.246321 0.284402 -0.323442
H26   H     H_    0.785296 0.230775 0.365598 0.244013
H27   H     H_    0.732266 0.178831 0.269761 0.200876
C48   C     C_3   0.907634 0.264862 0.261648 -0.927336
H28   H     H_    0.906084 0.279143 0.181076 0.255383
H29   H     H_    0.951960 0.197196 0.310038 0.265347
H30   H     H_    0.959598 0.330853 0.277705 0.254815
C49   C     C_3   0.784337 0.271761 0.769664 -0.418947
C50   C     C_3   0.843917 0.175934 0.820286 -0.866066
H31   H     H_    0.777425 0.107969 0.848834 0.244133
H32   H     H_    0.890852 0.168487 0.766489 0.251752
H33   H     H_    0.910359 0.180713 0.885817 0.250286
H34   H     H_    0.855559 0.337302 0.747414 0.212052
H35   H     H_    0.742244 0.276867 0.827685 0.209355
C51   C     C_3   0.217483 0.729105 0.229092 -0.418970
C52   C     C_3   0.158305 0.825147 0.178144 -0.866604
H36   H     H_    0.110685 0.832582 0.231518 0.251583
H37   H     H_    0.225163 0.892980 0.150203 0.244115
H38   H     H_    0.092507 0.820686 0.112160 0.250100
H39   H     H_    0.260197 0.724010 0.171412 0.210336
H40   H     H_    0.145988 0.663712 0.250799 0.210207

loop_
_geom_bond_atom_site_label_1
_geom_bond_atom_site_label_2
_ccdc_geom_bond_type
C21   C26   A    
C4    C36   A    
C9    H1    S    
C49   C50   S    
C40   O9    S    
C11   C13   A    
C23   O7    A    
Cu1   Cu2   S    
C28   H12   S    
C24   O8    A    
C39   C41   A    
C38   H5    S    
Cu2   O2    S    
C14   H15   S    
C11   C19   A    
C51   H39   S    
C33   C39   A    
C34   C40   A    
C23   C29   S    
C35   C37   A    
C5    C6    A    
C47   H27   S    
C14   N2    A    
C7    C9    A    
C23   O5    A    
C31   C32   S    
C22   C25   A    
C10   H2    S    
C1    O3    A    
C48   H29   S    
C19   C27   A    
C49   H35   S    
C18   C20   A    
C36   H8    S    
C26   H4    S    
C11   C49   S    
C40   C42   A    
C52   H37   S    
C34   C38   A    
C21   C22   A    
Cu2   O3    S    
C16   N2    A    
C43   C44   S    
C1    O1    A    
C2    O2    A    
Cu1   O1    S    
C52   H36   S    
C43   H18   S    
C8    H10   S    
C13   H16   S    
C24   O6    A    
C47   H26   S    
C20   C28   A    
C50   H33   S    
C33   C37   A    
C44   H19   S    
C3    C9    A    
C46   H24   S    
C3    C35   A    
C12   C20   A    
C15   N1    A    
Cu2   O7    S    
C16   C18   A    
C48   H30   S    
C50   H32   S    
C44   H20   S    
C8    C10   A    
C46   H25   S    
C12   C14   A    
Cu1   O8    S    
C35   H7    S    
C15   H14   S    
Cu2   O6    S    
C25   C27   A    
C7    H9    S    
C4    C10   A    
C15   C17   A    
C5    C41   A    
C25   H3    S    
C3    C41   A    
C18   C22   A    
C51   H40   S    
C39   O10   S    
C43   H17   S    
C2    O4    A    
C47   C48   S    
C5    C8    A    
C6    C7    A    
Cu2   N1    S    
C52   H38   S    
C27   H11   S    
C26   C28   A    
C36   C38   A    
O9    C43   S    
C29   C31   T    
C30   C32   T    
C37   H6    S    
C45   H21   S    
C45   H23   S    
C2    C34   S    
C4    C42   A    
Cu1   O4    S    
C51   C52   S    
C17   C19   A    
C45   H22   S    
C16   H13   S    
C50   H31   S    
C44   C45   S    
C24   C30   S    
C12   C51   S    
C1    C33   S    
C46   C47   S    
C13   N1    A    
Cu1   O5    S    
O10   C46   S    
C6    C42   A    
C48   H28   S    
C49   H34   S    
Cu1   N2    S    
C17   C21   A    
