data_mof_unit_56902.cif
_audit_creation_date              2012-12-10T17:33:00-0500
_audit_creation_method            fapswitch 2.2
_symmetry_space_group_name_H-M    P1
_symmetry_Int_Tables_number       1
_space_group_crystal_system       triclinic
_cell_length_a                    12.495222
_cell_length_b                    13.288816
_cell_length_c                    14.243317
_cell_angle_alpha                 93.970893
_cell_angle_beta                  108.283309
_cell_angle_gamma                 117.472123
_cell_volume                      1927.09173683

loop_
_atom_site_label
_atom_site_type_symbol
_atom_type_description
_atom_site_fract_x
_atom_site_fract_y
_atom_site_fract_z
_atom_type_partial_charge
C1    C     C_R   0.651811 0.714609 0.510100 0.812512
C2    C     C_R   0.888260 0.549361 0.923867 0.079523
C3    C     C_R   0.875656 0.608067 0.003078 0.098372
C4    C     C_R   0.991309 0.524216 0.947281 0.079023
C5    C     C_R   0.061153 0.533738 0.049806 0.058567
C6    C     C_R   0.047790 0.592914 0.127515 -0.203606
C7    C     C_R   0.958764 0.631238 0.104674 -0.208184
C8    C     C_R   0.032975 0.498708 0.872464 -0.232953
C9    C     C_R   0.139419 0.481047 0.897608 -0.013114
C10   C     C_R   0.199868 0.475893 0.998778 0.022451
C11   C     C_R   0.150777 0.492774 0.072850 -0.035751
C12   C     C_R   0.621879 0.521741 0.687777 0.816620
C13   C     C_R   0.306967 0.455495 0.030727 -0.034566
C14   C     C_R   0.361076 0.453107 0.131916 -0.260319
C15   C     C_R   0.194810 0.470932 0.169550 0.346604
C16   C     C_R   0.190509 0.953188 0.438656 -0.052191
C17   C     C_R   0.268011 0.161627 0.490699 -0.113624
C18   C     C_R   0.744965 0.922644 0.591358 -0.221311
C19   C     C_R   0.856830 0.032669 0.639684 -0.007092
C20   C     C_R   0.970166 0.061292 0.620908 -0.063945
C21   C     C_R   0.963897 0.986912 0.539746 0.033018
C22   C     C_R   0.848681 0.875510 0.490201 0.036512
C23   C     C_R   0.349759 0.285521 0.491389 0.810492
C24   C     C_R   0.069945 0.016848 0.508180 0.075534
C25   C     C_R   0.074532 0.927951 0.452137 0.087775
C26   C     C_R   0.958893 0.820411 0.401614 -0.239049
C27   C     C_R   0.843874 0.801779 0.410228 -0.010382
C28   C     C_R   0.162728 0.133272 0.520052 -0.202930
C29   C     C_R   0.289856 0.070918 0.460585 -0.083227
C30   C     C_R   0.744332 0.840013 0.524238 -0.112741
C31   C     C_R   0.268110 0.716378 0.632878 -0.241642
C32   C     C_R   0.651522 0.344847 0.357795 0.640548
C33   C     C_R   0.729117 0.324722 0.315670 -0.331971
C34   C     C_R   0.378044 0.478337 0.312341 0.858034
C35   C     C_R   0.864681 0.391389 0.362495 -0.197711
C36   C     C_R   0.928599 0.475838 0.456371 -0.083670
C37   C     C_R   0.847704 0.503999 0.491936 0.147195
C38   C     C_R   0.070435 0.538859 0.512007 -0.060564
C39   C     C_R   0.130572 0.648009 0.582746 0.050301
C40   C     C_R   0.052846 0.686123 0.605610 -0.160339
C41   C     C_R   0.917307 0.608777 0.574054 0.363947
C42   C     C_R   0.156562 0.498755 0.503129 0.162652
C43   C     C_R   0.345795 0.674588 0.618466 0.121128
C44   C     C_R   0.702303 0.549162 0.798108 -0.111536
C45   C     C_R   0.309916 0.466488 0.202927 -0.083851
C46   C     C_R   0.781926 0.643882 0.978886 -0.058518
C47   C     C_R   0.695997 0.615459 0.876444 -0.063428
C48   C     C_R   0.796795 0.515844 0.823676 -0.258919
Cu1   Cu    Cu3+1 0.416420 0.526630 0.522910 1.001879
Cu2   Cu    Cu3+1 0.583580 0.473370 0.477090 1.031359
H1    H     H_    0.954359 0.677361 0.167765 0.156882
H2    H     H_    0.954208 0.757159 0.345714 0.148745
H3    H     H_    0.147639 0.202396 0.545269 0.177232
H4    H     H_    0.663172 0.897618 0.614489 0.160001
H5    H     H_    0.451216 0.729109 0.654754 0.134377
H6    H     H_    0.317022 0.801778 0.684999 0.154656
H7    H     H_    0.917245 0.380712 0.319325 0.187350
H8    H     H_    0.684473 0.259711 0.244101 0.154938
H9    H     H_    0.444939 0.441132 0.155592 0.198115
H10   H     H_    0.796343 0.460651 0.764082 0.173943
H11   H     H_    0.110597 0.615226 0.206916 0.218276
H12   H     H_    0.990945 0.502420 0.794727 0.138482
N1    N     N_R   0.290690 0.566960 0.557640 -0.205252
N2    N     N_R   0.709100 0.433710 0.442970 -0.198447
O1    O     O_R   0.545970 0.684450 0.528810 -0.605523
O2    O     O_R   0.687130 0.639470 0.490120 -0.524235
O3    O     O_R   0.519670 0.535100 0.660030 -0.576912
O4    O     O_R   0.660830 0.490120 0.621340 -0.532276
O5    O     O_R   0.312870 0.360530 0.509880 -0.583519
O6    O     O_R   0.454030 0.315550 0.471190 -0.536493
O7    O     O_R   0.339170 0.509880 0.378660 -0.529926
O8    O     O_R   0.480330 0.464900 0.339970 -0.555038
C49   C     C_1   0.371473 0.443123 0.966307 0.296289
N3    N     N_1   0.425177 0.433396 0.916402 -0.247799
C50   C     C_1   0.411629 0.095897 0.451726 0.326345
N4    N     N_1   0.508826 0.114710 0.445233 -0.262842
C51   C     C_1   0.208349 0.858812 0.404095 0.216944
N5    N     N_1   0.223214 0.783706 0.377381 -0.288309
C52   C     C_1   0.094775 0.153971 0.696442 0.245005
N6    N     N_1   0.194721 0.226827 0.757152 -0.238977
C53   C     C_1   0.857163 0.110858 0.715853 0.248508
N7    N     N_1   0.857555 0.173538 0.776747 -0.275335
C54   C     C_1   0.722956 0.720767 0.325645 0.285810
N8    N     N_1   0.626637 0.657475 0.256602 -0.293652
O9    O     O_3   0.121675 0.443982 0.229124 -0.738374
H13   H     H_    0.027735 0.405084 0.183369 0.323817
C55   C     C_1   0.111497 0.804627 0.666761 0.250985
N9    N     N_1   0.157896 0.898833 0.715244 -0.272977
C56   C     C_1   0.103970 0.383516 0.441408 0.335428
N10   N     N_1   0.059676 0.290692 0.390927 -0.282899
O10   O     O_3   0.516765 0.281528 0.310109 -0.700553
H14   H     H_    0.490264 0.221185 0.249203 0.299851
O11   O     O_3   0.856886 0.639530 0.625234 -0.688424
H15   H     H_    0.915235 0.675729 0.698685 0.307650
C57   C     C_1   0.181941 0.470357 0.815958 0.263080
N11   N     N_1   0.214909 0.462655 0.749722 -0.253947
C58   C     C_1   0.777521 0.714986 0.058164 0.232549
N12   N     N_1   0.774496 0.772501 0.120935 -0.261012
C59   C     C_1   0.604164 0.656948 0.854001 0.316747
N13   N     N_1   0.531302 0.690509 0.837841 -0.286196

loop_
_geom_bond_atom_site_label_1
_geom_bond_atom_site_label_2
_ccdc_geom_bond_type
C55   N9    T    
C33   H8    S    
Cu1   N1    S    
Cu2   N2    S    
C49   N3    T    
C23   O5    A    
C57   N11   T    
C4    C8    A    
C58   N12   T    
C43   N1    A    
O9    H13   S    
C14   H9    S    
C12   O4    A    
C26   C27   A    
O11   H15   S    
Cu1   O1    S    
C40   C55   S    
C36   C37   A    
C38   C42   A    
C3    C7    A    
C38   C39   A    
C32   O10   S    
C47   C59   S    
C16   C51   S    
Cu2   O8    S    
C11   C15   A    
C41   O11   S    
C59   N13   T    
C8    C9    A    
C1    O1    A    
C18   C30   A    
C31   H6    S    
C22   C30   A    
C9    C10   A    
C9    C57   S    
C44   C47   A    
C15   O9    S    
Cu1   O5    S    
C21   C22   A    
C37   C41   A    
C23   O6    A    
C48   H10   S    
C14   C45   A    
C12   O3    A    
C24   C25   A    
C32   N2    A    
O10   H14   S    
C18   C19   A    
C2    C48   A    
C16   C29   A    
C51   N5    T    
C53   N7    T    
C35   C36   A    
C2    C4    A    
C50   N4    T    
C26   H2    S    
C54   N8    T    
C1    O2    A    
C34   C45   S    
C17   C23   S    
Cu2   O2    S    
C31   C43   A    
C43   H5    S    
C40   C41   A    
C46   C58   S    
C13   C49   S    
C22   C27   A    
C15   C45   A    
C34   O8    A    
C39   C40   A    
C37   N2    A    
C6    H11   S    
C16   C25   A    
C46   C47   A    
Cu1   O3    S    
C20   C52   S    
C17   C28   A    
C24   C28   A    
C4    C5    A    
C10   C13   A    
C28   H3    S    
C5    C11   A    
C6    C7    A    
C29   C50   S    
C3    C46   A    
C35   H7    S    
C42   C56   S    
C32   C33   A    
C19   C20   A    
C36   C38   A    
C2    C3    A    
C25   C26   A    
C7    H1    S    
C12   C44   S    
C19   C53   S    
C17   C29   A    
C5    C6    A    
C34   O7    A    
C27   C54   S    
C1    C30   S    
C33   C35   A    
C31   C39   A    
Cu2   O6    S    
C10   C11   A    
C18   H4    S    
C52   N6    T    
C20   C21   A    
Cu1   Cu2   S    
Cu1   O7    S    
C21   C24   A    
C56   N10   T    
C13   C14   A    
Cu2   O4    S    
C42   N1    A    
C44   C48   A    
C8    H12   S    
