data_mof_unit_53932.cif
_audit_creation_date              2012-12-11T15:29:25-0500
_audit_creation_method            fapswitch 2.2
_symmetry_space_group_name_H-M    P1
_symmetry_Int_Tables_number       1
_space_group_crystal_system       triclinic
_cell_length_a                    13.483442
_cell_length_b                    13.491053
_cell_length_c                    27.556915
_cell_angle_alpha                 90.551123
_cell_angle_beta                  90.050007
_cell_angle_gamma                 60.099119
_cell_volume                      4345.26446093

loop_
_atom_site_label
_atom_site_type_symbol
_atom_type_description
_atom_site_fract_x
_atom_site_fract_y
_atom_site_fract_z
_atom_type_partial_charge
C1    C     C_R   0.620401 0.101181 0.569867 0.546745
C2    C     C_1   0.650191 0.703134 0.657473 -0.059445
C3    C     C_3   0.091204 0.132199 0.737331 -0.103354
C4    C     C_R   0.599905 0.778925 0.568328 0.544987
C5    C     C_3   0.183477 0.059281 0.775294 -0.101147
C6    C     C_1   0.097729 0.200094 0.900284 -0.014339
C7    C     C_1   0.229437 0.137717 0.617035 -0.014998
C8    C     C_3   0.055146 0.240825 0.768780 -0.099301
C9    C     C_3   0.147852 0.167731 0.805885 0.052972
C10   C     C_3   0.143197 0.262636 0.741978 -0.096355
C11   C     C_3   0.178862 0.154294 0.711306 0.051455
C12   C     C_1   0.631693 0.730783 0.615633 -0.013639
C13   C     C_3   0.235430 0.189806 0.779790 -0.100953
C14   C     C_3   0.271595 0.081163 0.748391 -0.103653
C15   C     C_1   0.125463 0.180929 0.858198 -0.056528
C16   C     C_R   0.277672 0.121657 0.569355 0.545825
C17   C     C_1   0.201421 0.146623 0.659049 -0.058478
C18   C     C_3   0.636623 0.274280 0.738618 -0.100986
C19   C     C_3   0.557438 0.263110 0.776298 -0.099545
C20   C     C_1   0.691419 0.206714 0.901417 -0.015238
C21   C     C_1   0.635831 0.133215 0.617788 -0.015675
C22   C     C_3   0.742077 0.196961 0.770127 -0.099774
C23   C     C_3   0.705668 0.558232 0.766820 -0.121782
C24   C     C_3   0.662734 0.185515 0.806963 0.053298
C25   C     C_3   0.756460 0.089496 0.743042 -0.101980
C26   C     C_3   0.651242 0.166966 0.712302 0.052809
C27   C     C_3   0.677340 0.078293 0.780608 -0.105450
C28   C     C_R   0.622135 0.100204 0.431520 0.545270
C29   C     C_3   0.571862 0.155526 0.749118 -0.103411
C30   C     C_1   0.674348 0.195945 0.859310 -0.058712
C31   C     C_1   0.644287 0.152090 0.659946 -0.059734
C32   C     C_R   0.642887 0.713510 0.385021 -0.006777
C33   C     C_R   0.726594 0.722626 0.358731 -0.132270
C34   C     C_3   0.678962 0.653955 0.804426 0.057804
C35   C     C_R   0.743871 0.691755 0.310270 -0.151499
C36   C     C_R   0.679706 0.648966 0.287597 0.006283
C37   C     C_R   0.604962 0.625940 0.315231 0.055880
C38   C     C_R   0.586234 0.660616 0.363987 -0.132309
C39   C     C_R   0.793014 0.582294 0.212110 -0.113476
C40   C     C_R   0.602220 0.775874 0.430804 0.544441
C41   C     C_R   0.800161 0.571202 0.162167 -0.125500
C42   C     C_R   0.592783 0.677643 0.156550 -0.114061
C43   C     C_R   0.585887 0.692369 0.206722 -0.069510
C44   C     C_R   0.685938 0.639735 0.234712 0.071399
C45   C     C_3   0.594788 0.640977 0.739277 -0.112371
C46   C     C_R   0.700059 0.614281 0.134221 0.024480
C47   C     C_R   0.218964 0.140580 0.384937 0.019611
C48   C     C_R   0.234947 0.046458 0.356808 -0.105469
C49   C     C_R   0.205799 0.060254 0.308110 -0.093717
C50   C     C_R   0.158106 0.168710 0.287126 0.031808
C51   C     C_R   0.132489 0.264418 0.316335 -0.117574
C52   C     C_R   0.277989 0.120541 0.431312 0.540693
C53   C     C_R   0.163503 0.250327 0.364970 -0.123918
C54   C     C_R   0.163705 0.255912 0.208582 -0.125995
C55   C     C_R   0.141236 0.271217 0.159111 -0.134583
C56   C     C_3   0.663996 0.681885 0.709582 0.028575
C57   C     C_R   0.080470 0.129532 0.160458 -0.135521
C58   C     C_R   0.100524 0.116145 0.209891 -0.126550
C59   C     C_R   0.140160 0.180766 0.234531 0.029067
C60   C     C_R   0.096625 0.210215 0.134996 0.017478
C61   C     C_R   0.643675 0.139593 0.385391 -0.009053
C62   C     C_R   0.552261 0.228347 0.360529 -0.120213
C63   C     C_R   0.565096 0.248727 0.312368 -0.131161
C64   C     C_3   0.775112 0.599012 0.736166 -0.072247
C65   C     C_R   0.669419 0.181479 0.288387 0.003448
C66   C     C_R   0.765008 0.096455 0.313837 0.062402
C67   C     C_3   0.568389 0.736299 0.777510 -0.129844
C68   C     C_R   0.750774 0.077486 0.362571 -0.128114
C69   C     C_R   0.748008 0.241078 0.221102 -0.050983
C70   C     C_R   0.758721 0.254068 0.171922 -0.083950
C71   C     C_R   0.621325 0.192193 0.153713 -0.131695
C72   C     C_R   0.610001 0.179731 0.203261 -0.099285
C73   C     C_R   0.675230 0.201948 0.236835 0.058859
C74   C     C_R   0.697068 0.227777 0.138231 0.044191
C75   C     C_R   0.049950 0.234825 0.947990 0.546858
C76   C     C_3   0.746197 0.694237 0.774029 0.180553
C77   C     C_R   0.711927 0.562029 0.946481 0.545417
C78   C     C_3   0.636886 0.778229 0.746980 -0.098318
C79   C     C_R   0.722537 0.224071 0.949135 0.544615
C80   C     C_R   0.046676 0.244280 0.086712 0.534175
C81   C     C_R   0.710380 0.570096 0.084986 0.537711
C82   C     C_R   0.720193 0.233427 0.087459 0.530695
C83   C     C_1   0.697266 0.607600 0.898716 -0.012598
C84   C     C_3   0.887082 0.753337 0.758969 -0.312935
C85   C     C_2   0.545416 0.567319 0.294504 0.555595
C86   C     C_2   0.877939 0.021540 0.290258 0.551602
C87   C     C_1   0.688102 0.633625 0.856659 -0.049101
Cr1   Cr    Cr6+3 0.417550 0.169090 0.500530 1.028700
Cr2   Cr    Cr6+3 0.669180 0.913420 0.499920 1.027805
Cr3   Cr    Cr6+3 0.413260 0.917540 0.499520 1.034066
Cr4   Cr    Cr6+3 0.909770 0.175810 0.018240 1.025637
Cr5   Cr    Cr6+3 0.913300 0.427650 0.016090 1.025047
Cr6   Cr    Cr6+3 0.657770 0.431010 0.016900 1.030869
H1    H     H_    0.294940 0.213054 0.797690 0.104553
H2    H     H_    0.772011 0.762572 0.374308 0.146717
H3    H     H_    0.859857 0.543113 0.719024 0.100012
H4    H     H_    0.870991 0.542678 0.233238 0.107917
H5    H     H_    0.884258 0.520713 0.145972 0.140870
H6    H     H_    0.802095 0.708731 0.289630 0.127621
H7    H     H_    0.502677 0.740714 0.223891 0.115594
H8    H     H_    0.514890 0.711173 0.135536 0.122985
H9    H     H_    0.524617 0.649986 0.385231 0.166090
H10   H     H_    0.278052 0.960712 0.371305 0.147374
H11   H     H_    0.197580 0.304248 0.226670 0.106955
H12   H     H_    0.126139 0.346391 0.727752 0.106436
H13   H     H_    0.154332 0.333852 0.140237 0.127890
H14   H     H_    0.610130 0.868441 0.738496 0.096883
H15   H     H_    0.226862 0.984943 0.286378 0.123598
H16   H     H_    0.080760 0.058409 0.229081 0.135805
H17   H     H_    0.044914 0.081976 0.142995 0.144451
H18   H     H_    0.092227 0.349457 0.301185 0.107961
H19   H     H_    0.149340 0.324223 0.386253 0.131670
H20   H     H_    0.468780 0.277928 0.377335 0.147556
H21   H     H_    0.797706 0.259451 0.246830 0.139888
H22   H     H_    0.816996 0.282443 0.159930 0.115812
H23   H     H_    0.965763 0.306858 0.777771 0.101678
H24   H     H_    0.492378 0.315180 0.293233 0.132510
H25   H     H_    0.553163 0.149821 0.215417 0.114385
H26   H     H_    0.483846 0.792269 0.794809 0.106585
H27   H     H_    0.573621 0.171924 0.127703 0.102882
H28   H     H_    0.821547 0.008995 0.381811 0.162593
H29   H     H_    0.532220 0.618348 0.724150 0.111718
H30   H     H_    0.733079 0.467990 0.775542 0.100117
H31   H     H_    0.200458 0.975635 0.789605 0.104150
H32   H     H_    0.031681 0.109026 0.719396 0.103756
H33   H     H_    0.361008 0.015219 0.739383 0.100877
H34   H     H_    0.475510 0.334164 0.790597 0.105911
H35   H     H_    0.793086 0.782211 0.822495 0.246549
H36   H     H_    0.947652 0.773691 0.777835 0.142575
H37   H     H_    0.825551 0.829182 0.737971 0.136155
H38   H     H_    0.936785 0.680253 0.733749 0.154847
H39   H     H_    0.540332 0.463050 0.242836 0.335203
H40   H     H_    0.966400 0.940806 0.229603 0.332334
H41   H     H_    0.620356 0.354553 0.720892 0.102902
H42   H     H_    0.501618 0.138345 0.739839 0.101156
H43   H     H_    0.693325 0.998289 0.798458 0.103767
H44   H     H_    0.838530 0.018498 0.728820 0.098837
H45   H     H_    0.812431 0.214002 0.779371 0.100096
N1    N     N_2   0.827130 0.723860 0.794300 -0.513384
O1    O     O_R   0.301780 0.195490 0.553940 -0.507075
O2    O     O_R   0.636050 0.541380 0.962520 -0.507825
O3    O     O_R   0.666480 0.323610 0.968170 -0.494755
O4    O     O_R   0.522450 0.158840 0.550250 -0.493566
O5    O     O_R   0.817280 0.156800 0.072180 -0.510555
O6    O     O_R   0.005110 0.187160 0.067410 -0.507466
O7    O     O_R   0.026450 0.340060 0.069950 -0.522815
O8    O     O_R   0.808300 0.527240 0.065170 -0.508446
O9    O     O_R   0.634070 0.548770 0.069460 -0.508915
O10   O     O_R   0.664650 0.330470 0.067300 -0.496102
O11   O     O_3   0.826940 0.344820 0.017080 -0.250878
O12   O     O_R   0.658840 0.818280 0.449970 -0.502803
O13   O     O_R   0.694460 0.003360 0.553820 -0.506099
O14   O     O_R   0.657750 0.819520 0.549120 -0.495546
O15   O     O_R   0.501990 0.803120 0.552700 -0.505646
O16   O     O_R   0.318230 0.023430 0.549370 -0.492984
O17   O     O_R   0.302950 0.194150 0.446980 -0.518995
O18   O     O_R   0.523540 0.157600 0.451100 -0.500580
O19   O     O_R   0.695630 0.002030 0.446860 -0.518484
O20   O     O_2   0.458445 0.579210 0.313848 -0.535045
O21   O     O_R   0.589715 0.496297 0.253628 -0.706507
O22   O     O_2   0.965462 0.982935 0.314338 -0.533935
O23   O     O_R   0.503160 0.801780 0.445740 -0.517341
O24   O     O_R   0.884768 0.992275 0.241064 -0.701726
O25   O     O_R   0.319320 0.022190 0.450230 -0.501398
O26   O     O_3   0.499990 0.000010 0.499990 -0.248562
O27   O     O_R   0.819250 0.149410 0.965240 -0.505452
O28   O     O_R   0.006940 0.180310 0.968270 -0.493666
O29   O     O_R   0.028420 0.332670 0.963010 -0.502989
O30   O     O_R   0.810130 0.520390 0.966030 -0.490739

loop_
_geom_bond_atom_site_label_1
_geom_bond_atom_site_label_2
_ccdc_geom_bond_type
C83   C87   T    
C63   C65   A    
C1    C21   S    
C23   C45   S    
C27   C29   S    
C58   H16   S    
Cr4   O27   S    
C4    O15   A    
C35   C36   A    
C18   C26   S    
C24   C27   S    
C2    C12   T    
C56   C78   S    
Cr2   O19   S    
C39   C41   A    
C20   C30   T    
C5    C9    S    
C21   C31   T    
C5    H31   S    
C62   C63   A    
C71   H27   S    
Cr3   O23   S    
C50   C59   S    
Cr1   O17   S    
C54   H11   S    
C36   C37   A    
H35   N1    S    
C76   C78   S    
C63   H24   S    
C11   C14   S    
C39   H4    S    
C79   O3    A    
C66   C68   A    
C77   C83   S    
C33   H2    S    
C84   H36   S    
C65   C73   S    
C1    O13   A    
C18   C19   S    
C42   C46   A    
C84   H37   S    
C9    C13   S    
Cr1   O1    S    
C6    C15   T    
Cr6   O10   S    
Cr2   O13   S    
C80   O6    A    
C57   H17   S    
C45   C56   S    
C8    C9    S    
C7    C17   T    
C22   C25   S    
C70   C74   A    
C41   C46   A    
C56   C64   S    
C69   C73   A    
C75   O29   A    
C85   O21   S    
C32   C38   A    
C4    C12   S    
Cr1   O4    S    
C61   C62   A    
C47   C53   A    
C28   C61   S    
C23   C34   S    
C80   O7    A    
C4    O14   A    
C26   C31   S    
C55   C60   A    
Cr5   O8    S    
Cr6   O11   S    
C16   O1    A    
C67   C78   S    
C74   C82   S    
C35   H6    S    
H40   O24   S    
C49   H15   S    
C24   C30   S    
C54   C59   A    
C69   H21   S    
C55   H13   S    
Cr5   O7    S    
C6    C75   S    
C43   H7    S    
C64   H3    S    
C62   H20   S    
C82   O5    A    
C3    C8    S    
Cr1   O26   S    
C57   C60   A    
C23   H30   S    
Cr6   O9    S    
C81   O8    A    
C25   C26   S    
C48   H10   S    
C40   O12   A    
Cr3   O25   S    
C78   H14   S    
C51   C53   A    
C34   C67   S    
C25   H44   S    
C43   C44   A    
C40   O23   A    
C37   C38   A    
C1    O4    A    
Cr4   O11   S    
C46   C81   S    
Cr5   O29   S    
Cr2   O14   S    
C47   C48   A    
Cr5   O30   S    
C81   O9    A    
C16   O16   A    
C28   O19   A    
C50   C51   A    
C64   C76   S    
C86   O22   D    
H39   O21   S    
Cr1   O18   S    
Cr2   O26   S    
C5    C14   S    
C47   C52   S    
C84   N1    S    
C53   H19   S    
C77   O30   A    
C23   C64   S    
C29   H42   S    
C52   O25   A    
C65   C66   A    
Cr3   O26   S    
Cr5   O11   S    
C45   H29   S    
C22   C24   S    
C36   C44   S    
C52   O17   A    
C42   C43   A    
C27   H43   S    
C39   C44   A    
C19   C29   S    
C42   H8    S    
Cr4   O6    S    
Cr6   O2    S    
Cr4   O5    S    
C76   N1    S    
Cr4   O28   S    
C54   C55   A    
C11   C17   S    
C51   H18   S    
C20   C79   S    
C60   C80   S    
C18   C22   S    
C58   C59   A    
C7    C16   S    
C72   C73   A    
C3    C5    S    
C10   C13   S    
C68   H28   S    
C66   C86   S    
C71   C74   A    
C3    H32   S    
C45   C67   S    
C70   H22   S    
C25   C27   S    
C22   H45   S    
C84   H38   S    
C14   H33   S    
C13   H1    S    
C32   C33   A    
C19   C24   S    
C37   C85   S    
C71   C72   A    
C38   H9    S    
C2    C56   S    
Cr3   O15   S    
C61   C68   A    
C57   C58   A    
C48   C49   A    
C19   H34   S    
C28   O18   A    
C33   C35   A    
C18   H41   S    
C34   C87   S    
C32   C40   S    
C79   O27   A    
C9    C15   S    
C69   C70   A    
C77   O2    A    
C82   O10   A    
C3    C11   S    
C10   C11   S    
C8    H23   S    
Cr2   O12   S    
C26   C29   S    
C8    C10   S    
C49   C50   A    
C72   H25   S    
C41   H5    S    
C10   H12   S    
C75   O28   A    
C86   O24   S    
C85   O20   D    
Cr3   O16   S    
C13   C14   S    
C67   H26   S    
Cr6   O3    S    
C34   C76   S    
