data_mof_unit_36187.cif
_audit_creation_date              2012-12-10T17:09:53-0500
_audit_creation_method            fapswitch 2.2
_symmetry_space_group_name_H-M    P1
_symmetry_Int_Tables_number       1
_space_group_crystal_system       triclinic
_cell_length_a                    10.829318
_cell_length_b                    12.984077
_cell_length_c                    11.654672
_cell_angle_alpha                 100.135742
_cell_angle_beta                  92.655112
_cell_angle_gamma                 90.489464
_cell_volume                      1611.20924764

loop_
_atom_site_label
_atom_site_type_symbol
_atom_type_description
_atom_site_fract_x
_atom_site_fract_y
_atom_site_fract_z
_atom_type_partial_charge
C1    C     C_R   0.496614 0.299284 0.478537 0.827143
C2    C     C_R   0.066761 0.517315 0.610131 -0.039145
C3    C     C_R   0.129699 0.531211 0.509981 -0.177430
C4    C     C_R   0.061097 0.545918 0.409013 0.157594
C5    C     C_R   0.932906 0.533650 0.403447 0.078886
C6    C     C_R   0.873921 0.495052 0.494417 -0.153463
C7    C     C_R   0.504539 0.814623 0.534656 -0.098143
C8    C     C_R   0.486249 0.186540 0.466914 -0.040474
C9    C     C_R   0.386333 0.023154 0.378162 -0.185307
C10   C     C_R   0.405880 0.129500 0.381119 -0.215098
C11   C     C_R   0.550856 0.136655 0.547101 -0.234947
C12   C     C_R   0.263287 0.512885 0.503391 0.826179
C13   C     C_R   0.534574 0.029652 0.543001 0.095681
C14   C     C_R   0.448795 0.972159 0.460195 0.148298
C15   C     C_R   0.427093 0.865471 0.461375 0.048999
C16   C     C_R   0.591742 0.872404 0.615467 0.134423
C17   C     C_R   0.603080 0.980220 0.621094 -0.253076
C18   C     C_R   0.384939 0.401318 0.021971 -0.394706
C19   C     C_R   0.395188 0.410277 0.144270 0.405679
C20   C     C_R   0.549036 0.543556 0.156561 -0.013629
C21   C     C_R   0.541936 0.536418 0.033760 0.066698
C22   C     C_R   0.458787 0.464080 0.965958 0.052402
C23   C     C_R   0.501057 0.700859 0.521693 0.795128
C24   C     C_R   0.451399 0.456467 0.843399 0.000713
C25   C     C_R   0.604511 0.589737 0.854891 0.106746
C26   C     C_R   0.615489 0.599521 0.977049 -0.303158
C27   C     C_R   0.738393 0.495836 0.497799 0.848563
C28   C     C_R   0.117616 0.542748 0.726484 0.182178
C29   C     C_R   0.067964 0.495108 0.812966 -0.219509
C30   C     C_R   0.966725 0.425815 0.786373 0.120503
C31   C     C_R   0.904049 0.416160 0.676030 0.190388
C32   C     C_R   0.946363 0.474778 0.592788 -0.006284
Cu1   Cu    Cu3+1 0.509250 0.507730 0.615930 0.934412
Cu2   Cu    Cu3+1 0.490750 0.492270 0.384070 0.965561
H1    H     H_    0.354651 0.167857 0.319256 0.155811
H2    H     H_    0.661397 0.638645 0.811777 0.148847
H3    H     H_    0.319770 0.345309 0.971491 0.138978
H4    H     H_    0.680748 0.655936 0.026538 0.143144
H5    H     H_    0.108618 0.512339 0.901090 0.152014
N1    N     N_R   0.523180 0.519350 0.790130 -0.198137
N2    N     N_R   0.476820 0.480650 0.209890 -0.172190
O1    O     O_R   0.506570 0.354460 0.582000 -0.590758
O2    O     O_R   0.490940 0.341410 0.386200 -0.559749
O3    O     O_R   0.327470 0.506530 0.597920 -0.605743
O4    O     O_R   0.311840 0.493480 0.402120 -0.525921
O5    O     O_R   0.509060 0.658590 0.613800 -0.568905
O6    O     O_R   0.493430 0.645540 0.418000 -0.581845
O7    O     O_R   0.688160 0.506520 0.597880 -0.571329
O8    O     O_R   0.672530 0.493470 0.402080 -0.604366
N3    N     N_3   0.121475 0.578652 0.313899 -0.560042
H6    H     H_    0.099679 0.524575 0.237829 0.231912
H7    H     H_    0.087225 0.651441 0.302604 0.231305
H8    H     H_    0.669115 0.025072 0.683577 0.139135
H9    H     H_    0.613810 0.181347 0.612775 0.145144
H10   H     H_    0.387380 0.401195 0.790456 0.133127
N4    N     N_3   0.319650 0.344855 0.199782 -0.529551
H11   H     H_    0.336589 0.267114 0.163309 0.181050
H12   H     H_    0.227153 0.359470 0.179398 0.188723
H13   H     H_    0.612091 0.599441 0.209572 0.128211
N5    N     N_3   0.201608 0.629967 0.763368 -0.576922
H14   H     H_    0.219514 0.669101 0.694701 0.221665
H15   H     H_    0.284529 0.602938 0.795239 0.247987
N6    N     N_3   0.922123 0.369992 0.872635 -0.598821
H16   H     H_    0.972032 0.392603 0.952229 0.213897
H17   H     H_    0.939914 0.290729 0.845001 0.207044
N7    N     N_3   0.805552 0.340323 0.644757 -0.588692
H18   H     H_    0.739581 0.353930 0.708229 0.260918
H19   H     H_    0.841685 0.266096 0.645904 0.195861
N8    N     N_3   0.866452 0.561362 0.304125 -0.614899
H20   H     H_    0.804373 0.620647 0.332216 0.225291
H21   H     H_    0.820981 0.495187 0.256092 0.247011
N9    N     N_3   0.325268 0.811311 0.390385 -0.573899
H22   H     H_    0.245725 0.854887 0.409538 0.198641
H23   H     H_    0.303851 0.740633 0.416219 0.230457
N10   N     N_3   0.671040 0.820705 0.689218 -0.574342
H24   H     H_    0.723635 0.875229 0.748977 0.211488
H25   H     H_    0.733576 0.776454 0.635986 0.204562
H26   H     H_    0.322571 0.981579 0.311270 0.162079

loop_
_geom_bond_atom_site_label_1
_geom_bond_atom_site_label_2
_ccdc_geom_bond_type
C19   N4    S    
C27   O7    A    
C31   N7    S    
C6    C32   A    
C21   C26   A    
N6    H17   S    
C16   N10   S    
N7    H19   S    
N10   H24   S    
C20   N2    A    
C24   H10   S    
C15   N9    S    
Cu1   O1    S    
N5    H15   S    
C28   C29   A    
C18   H3    S    
C25   N1    A    
C5    C6    A    
C1    C8    S    
N4    H11   S    
C2    C32   A    
C18   C19   A    
N8    H21   S    
C5    N8    S    
C3    C12   S    
C1    O2    A    
C31   C32   A    
C16   C17   A    
N3    H7    S    
C10   H1    S    
C9    C10   A    
N9    H22   S    
C7    C15   A    
N7    H18   S    
C23   O5    A    
C21   C22   A    
Cu1   O5    S    
Cu2   N2    S    
N3    H6    S    
C28   N5    S    
Cu1   N1    S    
C23   O6    A    
N9    H23   S    
C26   H4    S    
C25   C26   A    
C4    N3    S    
N5    H14   S    
C9    C14   A    
C29   C30   A    
C6    C27   S    
C29   H5    S    
Cu1   Cu2   S    
Cu2   O4    S    
C20   H13   S    
N10   H25   S    
C11   H9    S    
C7    C16   A    
C22   C24   A    
C3    C4    A    
C17   H8    S    
Cu2   O8    S    
C18   C22   A    
Cu1   O3    S    
Cu2   O2    S    
C12   O4    A    
C13   C17   A    
C2    C3    A    
C12   O3    A    
C11   C13   A    
C30   C31   A    
C8    C11   A    
C7    C23   S    
C30   N6    S    
C24   N1    A    
N4    H12   S    
C9    H26   S    
N8    H20   S    
C25   H2    S    
N6    H16   S    
C19   N2    A    
C1    O1    A    
C4    C5    A    
C20   C21   A    
C8    C10   A    
Cu1   O7    S    
C14   C15   A    
C2    C28   A    
Cu2   O6    S    
C13   C14   A    
C27   O8    A    
