data_mof_unit_50403.cif
_audit_creation_date              2012-12-10T20:35:48-0500
_audit_creation_method            fapswitch 2.2
_symmetry_space_group_name_H-M    P1
_symmetry_Int_Tables_number       1
_space_group_crystal_system       triclinic
_cell_length_a                    15.738222
_cell_length_b                    10.647773
_cell_length_c                    9.86837
_cell_angle_alpha                 90.088082
_cell_angle_beta                  90.304442
_cell_angle_gamma                 90.09749
_cell_volume                      1653.68427424

loop_
_atom_site_label
_atom_site_type_symbol
_atom_type_description
_atom_site_fract_x
_atom_site_fract_y
_atom_site_fract_z
_atom_type_partial_charge
C1    C     C_R   0.503356 0.259977 0.500073 0.872338
C2    C     C_3   0.953183 0.447058 0.630480 -0.414286
C3    C     C_3   0.917314 0.502614 0.497208 0.312501
C4    C     C_3   0.949375 0.639234 0.479803 -0.421331
C5    C     C_3   0.047700 0.643599 0.490697 -0.036523
C6    C     C_1   0.825915 0.501318 0.500138 -0.105223
C7    C     C_1   0.174350 0.503076 0.495532 -0.142552
C8    C     C_1   0.249585 0.501165 0.498291 -0.213654
C9    C     C_R   0.516132 0.064194 0.623833 0.146473
C10   C     C_R   0.518794 0.128848 0.501527 -0.106616
C11   C     C_R   0.539341 0.064954 0.381834 -0.228271
C12   C     C_R   0.338344 0.499787 0.499672 0.908726
C13   C     C_R   0.538305 0.934984 0.381522 -0.234356
C14   C     C_R   0.517764 0.871419 0.501452 -0.105277
C15   C     C_R   0.515637 0.936288 0.623894 0.127055
C16   C     C_3   0.453479 0.929805 0.737830 -0.477745
C17   C     C_3   0.454360 0.072211 0.737911 -0.506410
C18   C     C_R   0.453524 0.412897 0.070783 0.194869
C19   C     C_R   0.551494 0.578512 0.072525 -0.137959
C20   C     C_R   0.551571 0.578423 0.928589 -0.133205
C21   C     C_R   0.453047 0.413565 0.928067 0.183016
C22   C     C_3   0.358856 0.397523 0.920969 -0.529563
C23   C     C_R   0.502900 0.740096 0.500127 0.876979
C24   C     C_3   0.359205 0.395742 0.075491 -0.156047
C25   C     C_R   0.661718 0.499990 0.500286 0.902658
C26   C     C_3   0.051110 0.444238 0.625201 -0.483675
C27   C     C_3   0.047295 0.422679 0.372142 -0.033368
C28   C     C_3   0.948623 0.423049 0.376187 -0.418672
C29   C     C_1   0.750608 0.500536 0.500898 -0.191993
C30   C     C_3   0.082775 0.505456 0.491637 0.284947
H1    H     H_    0.928558 0.350074 0.645921 0.176779
H2    H     H_    0.077513 0.495388 0.714349 0.181674
H3    H     H_    0.932444 0.504907 0.718333 0.174940
H4    H     H_    0.927226 0.675919 0.380111 0.169685
H5    H     H_    0.549941 0.114250 0.287600 0.169036
H6    H     H_    0.547559 0.885597 0.286688 0.167119
H7    H     H_    0.391260 0.889027 0.706589 0.202684
H8    H     H_    0.481925 0.888485 0.830966 0.203508
H9    H     H_    0.392591 0.114434 0.707275 0.196695
H10   H     H_    0.484048 0.113248 0.830369 0.199595
H11   H     H_    0.073540 0.345337 0.633074 0.179700
H12   H     H_    0.591921 0.643577 0.874735 0.144590
H13   H     H_    0.326561 0.481708 0.878690 0.203217
H14   H     H_    0.339871 0.308346 0.870999 0.196568
H15   H     H_    0.326614 0.479125 0.119050 0.168500
H16   H     H_    0.925169 0.324737 0.385891 0.152582
H17   H     H_    0.920903 0.460807 0.280551 0.170068
H18   H     H_    0.063667 0.684005 0.592060 0.146822
H19   H     H_    0.921625 0.700888 0.559316 0.150445
N1    N     N_R   0.499430 0.499140 0.142800 -0.118205
N2    N     N_R   0.499430 0.499180 0.857150 -0.102363
O1    O     O_R   0.500010 0.316790 0.614690 -0.613697
O2    O     O_R   0.500000 0.316760 0.385350 -0.624791
O3    O     O_R   0.377150 0.500020 0.614720 -0.611255
O4    O     O_R   0.377140 0.499990 0.385380 -0.627842
O5    O     O_R   0.500000 0.683240 0.614650 -0.619051
O6    O     O_R   0.499990 0.683210 0.385310 -0.624418
O7    O     O_R   0.622860 0.500010 0.614620 -0.615872
O8    O     O_R   0.622850 0.499980 0.385280 -0.616217
Zn1   Zn    Zn3+2 0.500010 0.500020 0.653130 0.940442
Zn2   Zn    Zn3+2 0.499990 0.499980 0.346870 0.931459
H20   H     H_    0.591766 0.643769 0.127282 0.144050
C31   C     C_3   0.329668 0.271950 0.142322 -0.350984
C32   C     C_3   0.378683 0.153338 0.099713 -0.333014
C33   C     C_3   0.348757 0.038736 0.178924 -0.898492
H21   H     H_    0.356278 0.054614 0.289635 0.269439
H22   H     H_    0.281007 0.019009 0.155218 0.258209
H23   H     H_    0.387120 0.955628 0.149740 0.255614
H24   H     H_    0.368292 0.133917 0.990582 0.220057
H25   H     H_    0.447760 0.166257 0.117825 0.217942
H26   H     H_    0.335429 0.283556 0.253914 0.220417
H27   H     H_    0.261278 0.258291 0.118634 0.203691
C34   C     C_3   0.080973 0.456080 0.229133 -0.424208
C35   C     C_3   0.071204 0.345003 0.130677 -0.365773
C36   C     C_3   0.099277 0.381119 0.988292 -0.910781
H28   H     H_    0.058601 0.458237 0.949309 0.257672
H29   H     H_    0.166597 0.412459 0.988939 0.266705
H30   H     H_    0.092918 0.298899 0.919620 0.251767
H31   H     H_    0.110123 0.264548 0.166551 0.213810
H32   H     H_    0.003722 0.314286 0.126155 0.227002
H33   H     H_    0.045360 0.536747 0.186791 0.206403
H34   H     H_    0.149273 0.482216 0.234047 0.211559
H35   H     H_    0.068506 0.324621 0.393027 0.142810
C37   C     C_3   0.087666 0.734830 0.385961 -0.425198
C38   C     C_3   0.069472 0.872759 0.422124 -0.355950
C39   C     C_3   0.113362 0.962405 0.324265 -0.910621
H36   H     H_    0.183303 0.950391 0.330968 0.265602
H37   H     H_    0.091853 0.944322 0.218627 0.260363
H38   H     H_    0.097628 0.060916 0.351343 0.240486
H39   H     H_    0.999923 0.890406 0.418508 0.221583
H40   H     H_    0.092679 0.893389 0.526423 0.214785
H41   H     H_    0.157629 0.722073 0.383044 0.216561
H42   H     H_    0.062362 0.716904 0.283005 0.203259

loop_
_geom_bond_atom_site_label_1
_geom_bond_atom_site_label_2
_ccdc_geom_bond_type
C28   H17   S    
C26   H2    S    
C18   C21   A    
C34   C35   S    
C19   C20   A    
C3    C6    S    
C38   H40   S    
C7    C8    T    
O3    Zn1   S    
C38   C39   S    
C28   H16   S    
C18   C24   S    
C24   H15   S    
C3    C28   S    
C20   N2    A    
C39   H37   S    
C19   H20   S    
O7    Zn1   S    
C15   C16   S    
C17   H9    S    
C1    O2    A    
O1    Zn1   S    
C13   C14   A    
O2    Zn2   S    
C22   H14   S    
C16   C17   S    
C33   H22   S    
C32   H25   S    
C9    C10   A    
C16   H7    S    
C7    C30   S    
C35   H32   S    
C21   C22   S    
C27   C30   S    
C34   H33   S    
C1    O1    A    
C25   C29   S    
C5    H18   S    
C4    H4    S    
O8    Zn2   S    
C35   C36   S    
C23   O5    A    
C37   C38   S    
C13   H6    S    
C5    C37   S    
C39   H36   S    
O5    Zn1   S    
C2    H1    S    
C17   H10   S    
C14   C23   S    
C36   H28   S    
C22   H13   S    
C8    C12   S    
C33   H23   S    
C2    C26   S    
C32   H24   S    
C36   H29   S    
C2    H3    S    
C9    C17   S    
C31   H26   S    
C26   C30   S    
C24   C31   S    
C35   H31   S    
C22   C24   S    
C25   O7    A    
C3    C4    S    
C34   H34   S    
C21   N2    A    
C18   N1    A    
C5    C30   S    
C23   O6    A    
C1    C10   S    
C4    C5    S    
C39   H38   S    
C20   H12   S    
C38   H39   S    
O6    Zn2   S    
C37   H41   S    
C4    H19   S    
C32   C33   S    
C11   H5    S    
C2    C3    S    
C9    C15   A    
C11   C13   A    
C19   N1    A    
O4    Zn2   S    
C27   H35   S    
C37   H42   S    
C36   H30   S    
C12   O4    A    
C10   C11   A    
C31   C32   S    
C6    C29   T    
C31   H27   S    
C33   H21   S    
C27   C28   S    
N1    Zn2   S    
C14   C15   A    
N2    Zn1   S    
C25   O8    A    
C27   C34   S    
C12   O3    A    
C26   H11   S    
C16   H8    S    
