data_mof_unit_30328.cif
_audit_creation_date              2012-12-11T15:00:51-0500
_audit_creation_method            fapswitch 2.2
_symmetry_space_group_name_H-M    P1
_symmetry_Int_Tables_number       1
_space_group_crystal_system       triclinic
_cell_length_a                    13.38224
_cell_length_b                    13.295071
_cell_length_c                    26.68918
_cell_angle_alpha                 96.064173
_cell_angle_beta                  97.578949
_cell_angle_gamma                 65.749321
_cell_volume                      4284.674745

loop_
_atom_site_label
_atom_site_type_symbol
_atom_type_description
_atom_site_fract_x
_atom_site_fract_y
_atom_site_fract_z
_atom_type_partial_charge
C1    C     C_R   0.379251 0.724871 0.436455 0.535839
C2    C     C_3   0.755508 0.334102 0.198885 0.135379
C3    C     C_3   0.879732 0.322844 0.203062 -0.022013
C4    C     C_R   0.396202 0.374295 0.418186 0.528111
C5    C     C_3   0.892901 0.435391 0.224943 0.205001
C6    C     C_3   0.832508 0.471743 0.276813 0.215438
C7    C     C_1   0.910537 0.295357 0.151257 0.052257
C8    C     C_1   0.757391 0.392975 0.342141 0.116815
C9    C     C_1   0.718058 0.406676 0.381531 0.086258
C10   C     C_3   0.455630 0.758798 0.279074 0.238948
C11   C     C_3   0.273659 0.942129 0.279138 0.314139
C12   C     C_1   0.325647 0.336807 0.268668 0.085415
C13   C     C_3   0.272205 0.948401 0.218686 0.193707
C14   C     C_1   0.305176 0.873108 0.096671 0.066731
C15   C     C_3   0.330043 0.815652 0.293065 -0.022392
C16   C     C_R   0.674770 0.426918 0.429187 0.522865
C17   C     C_3   0.456059 0.772822 0.218133 0.298601
C18   C     C_3   0.328676 0.824702 0.193587 -0.018054
C19   C     C_3   0.256762 0.752633 0.202670 0.294487
C20   C     C_3   0.257692 0.745997 0.263460 0.294394
C21   C     C_1   0.322443 0.838986 0.138499 0.055180
C22   C     C_1   0.336696 0.805654 0.347946 0.083036
C23   C     C_1   0.340788 0.346510 0.321644 0.073466
C24   C     C_1   0.355662 0.778406 0.390697 0.096691
C25   C     C_3   0.430906 0.373203 0.730954 0.155579
C26   C     C_3   0.362354 0.211655 0.708260 0.325218
C27   C     C_3   0.335747 0.213855 0.766063 0.185288
C28   C     C_R   0.384653 0.723187 0.575637 0.550589
C29   C     C_1   0.296965 0.309389 0.888733 0.068879
C30   C     C_3   0.337605 0.338581 0.696997 -0.007502
C31   C     C_3   0.429476 0.357136 0.790102 0.330532
C32   C     C_3   0.320681 0.334053 0.794190 0.062234
C33   C     C_3   0.210579 0.432671 0.770211 0.153929
C34   C     C_1   0.361288 0.356492 0.366530 0.085685
C35   C     C_3   0.211332 0.424724 0.709019 0.357818
C36   C     C_1   0.308418 0.327347 0.847383 0.105065
C37   C     C_1   0.348432 0.344262 0.643527 0.061802
C38   C     C_1   0.366089 0.354425 0.601993 0.090556
C39   C     C_1   0.888283 0.290731 0.864615 0.026667
C40   C     C_R   0.398246 0.375405 0.557158 0.536892
C41   C     C_1   0.860341 0.302661 0.820168 0.001172
C42   C     C_1   0.837512 0.318034 0.767861 0.023663
C43   C     C_1   0.820703 0.333199 0.723335 0.014576
C44   C     C_1   0.798347 0.354238 0.671561 -0.000486
C45   C     C_3   0.717352 0.338562 0.252625 0.263858
C46   C     C_1   0.771361 0.375721 0.627871 0.054834
C47   C     C_1   0.286650 0.897661 0.862239 0.035278
C48   C     C_1   0.307242 0.870452 0.818778 0.009815
C49   C     C_1   0.328760 0.846038 0.767187 0.043613
C50   C     C_1   0.344946 0.826642 0.722935 0.046188
C51   C     C_1   0.361306 0.800695 0.670836 0.009854
C52   C     C_R   0.723948 0.405305 0.577550 0.578667
C53   C     C_1   0.373055 0.771361 0.626705 0.036053
C54   C     C_R   0.950621 0.272699 0.057607 0.573054
C55   C     C_R   0.287421 0.267746 0.072943 0.533037
C56   C     C_3   0.918317 0.257250 0.298047 0.237856
C57   C     C_R   0.269784 0.934164 0.051846 0.547584
C58   C     C_R   0.936812 0.277290 0.915809 0.551870
C59   C     C_R   0.280746 0.272539 0.933584 0.531130
C60   C     C_R   0.259240 0.943504 0.912556 0.558049
C61   C     C_1   0.305292 0.296241 0.125281 0.081362
C62   C     C_1   0.312722 0.313200 0.170364 0.084115
C63   C     C_1   0.318228 0.327425 0.223309 0.098237
C64   C     C_3   0.953549 0.226980 0.239465 0.159300
C65   C     C_1   0.927400 0.279284 0.107827 0.091680
C66   C     C_3   0.806786 0.367062 0.293812 0.013263
Cr1   Cr    Cr6+3 0.585490 0.589720 0.509170 1.111787
Cr2   Cr    Cr6+3 0.329280 0.580760 0.494920 1.129351
Cr3   Cr    Cr6+3 0.585250 0.329540 0.495950 1.107361
Cr4   Cr    Cr6+3 0.077160 0.074530 0.981700 1.070428
Cr5   Cr    Cr6+3 0.079310 0.333830 0.996170 1.109959
Cr6   Cr    Cr6+3 0.334250 0.081620 0.994710 1.089176
H1    H     H_    0.708537 0.415065 0.183421 0.141260
H2    H     H_    0.127063 0.067177 0.292415 0.305291
H3    H     H_    0.346205 0.079845 0.399597 0.397906
H4    H     H_    0.289190 0.098397 0.222624 0.269491
H5    H     H_    0.333675 0.021167 0.171571 0.229895
H6    H     H_    0.154512 0.070680 0.174150 0.198375
H7    H     H_    0.140222 0.967478 0.160021 0.226714
H8    H     H_    0.263742 0.584867 0.259148 0.301907
H9    H     H_    0.310531 0.622869 0.315240 0.217193
H10   H     H_    0.748309 0.040663 0.257963 0.396249
H11   H     H_    0.097507 0.638108 0.299212 0.367348
H12   H     H_    0.730798 0.092548 0.118907 0.381974
H13   H     H_    0.367528 0.546929 0.094159 0.395015
H14   H     H_    0.481529 0.628254 0.323838 0.203006
H15   H     H_    0.566168 0.603222 0.284260 0.320285
H16   H     H_    0.505090 0.669022 0.153039 0.317521
H17   H     H_    0.490861 0.603378 0.200225 0.307341
H18   H     H_    0.137369 0.809941 0.142353 0.247682
H19   H     H_    0.093439 0.768409 0.187206 0.342004
H20   H     H_    0.524526 0.245813 0.844151 0.255167
H21   H     H_    0.600369 0.264701 0.804620 0.300224
H22   H     H_    0.599756 0.332010 0.733952 0.235235
H23   H     H_    0.572838 0.428249 0.285966 0.265944
H24   H     H_    0.544055 0.316316 0.676262 0.234698
H25   H     H_    0.303591 0.173185 0.635526 0.276641
H26   H     H_    0.300659 0.093673 0.678714 0.258343
H27   H     H_    0.675087 0.043504 0.716314 0.389064
H28   H     H_    0.407700 0.047976 0.785438 0.244445
H29   H     H_    0.500643 0.098515 0.789999 0.329317
H30   H     H_    0.045783 0.135207 0.403667 0.367882
H31   H     H_    0.238550 0.121688 0.751350 0.247009
H32   H     H_    0.216113 0.200356 0.803941 0.223467
H33   H     H_    0.191322 0.711558 0.678322 0.377210
H34   H     H_    0.557913 0.420794 0.222911 0.330263
H35   H     H_    0.939142 0.473581 0.699571 0.332753
H36   H     H_    0.134135 0.600711 0.795019 0.274545
H37   H     H_    0.252519 0.567223 0.772423 0.336000
H38   H     H_    0.477318 0.505366 0.739975 0.278769
H39   H     H_    0.412716 0.495169 0.684553 0.239815
H40   H     H_    0.591374 0.487420 0.875808 0.385676
H41   H     H_    0.089332 0.365487 0.773908 0.287064
H42   H     H_    0.040271 0.501075 0.773846 0.255510
H43   H     H_    0.867455 0.184395 0.349789 0.267040
H44   H     H_    0.961538 0.093133 0.315271 0.279271
H45   H     H_    0.041339 0.387596 0.269597 0.274954
H46   H     H_    0.988212 0.059952 0.236545 0.327334
H47   H     H_    0.954182 0.109951 0.180678 0.276783
H48   H     H_    0.107240 0.223386 0.267729 0.315416
H49   H     H_    0.086250 0.233183 0.205320 0.242129
H50   H     H_    0.689544 0.547939 0.230294 0.266981
H51   H     H_    0.736572 0.633318 0.260663 0.358256
H52   H     H_    0.893331 0.683108 0.293801 0.388458
H53   H     H_    0.729990 0.515418 0.115647 0.370367
H54   H     H_    0.019023 0.493187 0.238268 0.305296
H55   H     H_    0.578775 0.989360 0.213659 0.385960
H56   H     H_    0.615757 0.664051 0.382700 0.348019
H57   H     H_    0.160513 0.967843 0.329486 0.301682
N1    N     N_3   0.609773 0.429602 0.253950 -0.662588
N2    N     N_3   0.525936 0.257935 0.806177 -0.544791
N3    N     N_3   0.541215 0.305585 0.714183 -0.511999
N4    N     N_3   0.287955 0.174753 0.673024 -0.489495
N5    N     N_3   0.419242 0.120992 0.795303 -0.610627
N6    N     N_3   0.232362 0.199474 0.766575 -0.571361
N7    N     N_3   0.212749 0.537498 0.793358 -0.503900
N8    N     N_3   0.411071 0.487443 0.722998 -0.540387
N9    N     N_3   0.108855 0.431770 0.786332 -0.593509
N10   N     N_3   0.892840 0.167722 0.313279 -0.489672
N11   N     N_3   0.934858 0.128933 0.218084 -0.434108
N12   N     N_3   0.009254 0.418604 0.235057 -0.588248
N13   N     N_3   0.069383 0.201757 0.235884 -0.652909
N14   N     N_3   0.728298 0.560990 0.264429 -0.552246
N15   N     N_3   0.161229 0.982892 0.292035 -0.524135
N16   N     N_3   0.331494 0.016288 0.210201 -0.490589
N17   N     N_3   0.158955 0.004898 0.193583 -0.574326
N18   N     N_3   0.309090 0.629088 0.276368 -0.548367
N19   N     N_3   0.485888 0.642860 0.286648 -0.618819
N20   N     N_3   0.513019 0.664543 0.192288 -0.552417
N21   N     N_3   0.141489 0.810725 0.181859 -0.530458
O1    O     O_R   0.700490 0.499650 0.456540 -0.457583
O2    O     O_R   0.362200 0.173970 0.055450 -0.479410
O3    O     O_R   0.326660 0.983110 0.039170 -0.469973
O4    O     O_R   0.479270 0.682700 0.457880 -0.523831
O5    O     O_R   0.165170 0.960730 0.925500 -0.495751
O6    O     O_R   0.978790 0.179600 0.932440 -0.496818
O7    O     O_R   0.960680 0.356080 0.937360 -0.488867
O8    O     O_R   0.182750 0.328100 0.950670 -0.488127
O9    O     O_R   0.356720 0.175530 0.946790 -0.492563
O10   O     O_R   0.321590 0.984560 0.938450 -0.488570
O11   O     O_3   0.163570 0.163330 0.990860 -0.310661
O12   O     O_R   0.339040 0.474950 0.540330 -0.463616
O13   O     O_R   0.304400 0.696100 0.445190 -0.472890
O14   O     O_R   0.337880 0.472540 0.439600 -0.486380
O15   O     O_R   0.493250 0.300300 0.435260 -0.475386
O16   O     O_R   0.681040 0.341130 0.451400 -0.459592
O17   O     O_R   0.701750 0.502250 0.565200 -0.470476
O18   O     O_R   0.480430 0.685110 0.558610 -0.490412
O19   O     O_R   0.305650 0.698700 0.553850 -0.474557
O20   O     O_2   0.582795 0.289227 0.149591 -0.222010
O21   O     O_2   0.711812 0.295603 0.096916 -0.311943
O22   O     O_3   0.769860 0.121334 0.146963 -0.445734
O23   O     O_R   0.494500 0.302900 0.543920 -0.484689
O24   O     O_2   0.657564 0.769343 0.205825 -0.152415
O25   O     O_2   0.513200 0.868612 0.145180 -0.288823
O26   O     O_3   0.533951 0.963917 0.231649 -0.404204
O27   O     O_2   0.631255 0.831831 0.304263 -0.088446
O28   O     O_2   0.515602 0.861681 0.371463 -0.219055
O29   O     O_3   0.649374 0.669970 0.352839 -0.468825
O30   O     O_2   0.446733 0.013506 0.311410 -0.121904
O31   O     O_2   0.268413 0.151563 0.309945 -0.301249
O32   O     O_3   0.324985 0.021815 0.381125 -0.459380
O33   O     O_2   0.674192 0.219305 0.319667 -0.299110
O34   O     O_R   0.682200 0.343540 0.552130 -0.488931
O35   O     O_2   0.573414 0.233383 0.237593 -0.233830
O36   O     O_3   0.773111 0.093138 0.245280 -0.387821
O37   O     O_2   0.123726 0.803180 0.342565 -0.283576
O38   O     O_2   0.028875 0.887315 0.263800 -0.217079
O39   O     O_3   0.075589 0.683524 0.269332 -0.505419
O40   O     O_2   0.375712 0.518043 0.191878 -0.317576
O41   O     O_2   0.195107 0.594804 0.147839 -0.248101
O42   O     O_3   0.349753 0.620968 0.111558 -0.540798
O43   O     O_2   0.498368 0.993559 0.692894 -0.298341
O44   O     O_2   0.518490 0.120946 0.640335 -0.263653
O45   O     O_3   0.500010 0.500010 0.500010 -0.340197
O46   O     O_3   0.611410 0.102104 0.731702 -0.503056
O47   O     O_2   0.103188 0.306254 0.345698 -0.195382
O48   O     O_2   0.958113 0.335513 0.397014 -0.217745
O49   O     O_3   0.088839 0.140441 0.377321 -0.511876
O50   O     O_2   0.145665 0.552166 0.625484 -0.188224
O51   O     O_2   0.051574 0.635188 0.700834 -0.239115
O52   O     O_3   0.235267 0.642254 0.695626 -0.556638
O53   O     O_2   0.125446 0.353388 0.619328 -0.194403
O54   O     O_2   0.088929 0.286425 0.692581 -0.302926
O55   O     O_3   0.976626 0.487416 0.673149 -0.415146
O56   O     O_R   0.170650 0.959160 0.034150 -0.514255
O57   O     O_2   0.397650 0.583611 0.818028 -0.266142
O58   O     O_2   0.406679 0.469186 0.885027 -0.260151
O59   O     O_3   0.584476 0.436660 0.846908 -0.556827
O60   O     O_2   0.857592 0.538705 0.379156 -0.115865
O61   O     O_2   0.017670 0.505032 0.336698 -0.271122
O62   O     O_3   0.849822 0.678393 0.319960 -0.389722
O63   O     O_2   0.854533 0.642725 0.198601 -0.183091
O64   O     O_2   0.926152 0.496770 0.135805 -0.234168
O65   O     O_3   0.719467 0.566324 0.146266 -0.501301
O66   O     O_R   0.983870 0.178140 0.033160 -0.505713
O67   O     O_R   0.966160 0.354510 0.046020 -0.458167
O68   O     O_R   0.187830 0.326650 0.051390 -0.478516
S1    S     S_3+6 0.703107 0.259404 0.147026 0.052907
S2    S     S_3+6 0.161860 0.564548 0.682290 0.046173
S3    S     S_3+6 0.102067 0.382315 0.673771 0.078407
S4    S     S_3+6 0.448559 0.467683 0.835306 -0.003936
S5    S     S_3+6 0.895082 0.542756 0.329196 0.123423
S6    S     S_3+6 0.846474 0.538047 0.175581 0.033176
S7    S     S_3+6 0.539475 0.845683 0.200363 0.106969
S8    S     S_3+6 0.561536 0.787431 0.326366 0.112791
S9    S     S_3+6 0.332165 0.032985 0.319572 0.078661
S10   S     S_3+6 0.684069 0.219170 0.264192 0.081825
S11   S     S_3+6 0.118335 0.786370 0.285824 0.011952
S12   S     S_3+6 0.296379 0.617031 0.164563 -0.031727
S13   S     S_3+6 0.500108 0.105992 0.692919 -0.005236
S14   S     S_3+6 0.018278 0.265560 0.353783 0.023023

loop_
_geom_bond_atom_site_label_1
_geom_bond_atom_site_label_2
_ccdc_geom_bond_type
Cr1   O18   S    
C25   C31   S    
C8    C66   S    
H32   N6    S    
H26   N4    S    
O54   S3    D    
C18   C21   S    
H53   O65   S    
C41   C42   S    
O39   S11   S    
C19   C20   S    
H25   N4    S    
H18   N21   S    
O65   S6    S    
O63   S6    D    
C55   O2    A    
C39   C41   T    
H57   N15   S    
H11   O39   S    
H29   N5    S    
O31   S9    D    
H13   O42   S    
C54   O66   A    
O26   S7    S    
C29   C36   T    
C56   S14   S    
C26   C27   S    
C62   C63   S    
Cr6   O9    S    
H50   N14   S    
C13   C18   S    
H10   O36   S    
Cr1   O4    S    
Cr4   O6    S    
H47   N11   S    
C32   C36   S    
C14   C21   T    
C9    C16   S    
H36   N7    S    
C3    C7    S    
C10   C15   S    
C35   S3    S    
C52   O17   A    
C5    C6    S    
C59   O8    A    
Cr1   O45   S    
O32   S9    S    
O47   S14   D    
C10   C17   S    
O58   S4    D    
C46   C52   S    
C25   C30   S    
C19   N21   S    
C4    O15   A    
O53   S3    D    
C18   C19   S    
H16   N20   S    
C55   C61   S    
O52   S2    S    
Cr5   O8    S    
H31   N6    S    
Cr3   O16   S    
C31   N2    S    
O27   S8    D    
C59   O9    A    
C15   C22   S    
C29   C59   S    
H28   N5    S    
C8    C9    T    
Cr6   O2    S    
H23   N1    S    
Cr6   O11   S    
C56   C64   S    
C20   S11   S    
C13   N16   S    
H7    N17   S    
C11   N15   S    
H24   N3    S    
H44   N10   S    
O22   S1    S    
H17   N20   S    
C47   C60   S    
C45   N1    S    
Cr5   O67   S    
C35   S2    S    
H37   N7    S    
O59   S4    S    
C61   C62   T    
Cr3   O23   S    
C13   N17   S    
H46   N11   S    
H49   N13   S    
C44   C46   T    
C50   C51   S    
C55   O68   A    
Cr2   O14   S    
C2    C45   S    
C15   C20   S    
Cr5   O7    S    
C4    C34   S    
O28   S8    D    
H15   N19   S    
Cr1   O1    S    
Cr4   O5    S    
C47   C48   T    
C52   O34   A    
H20   N2    S    
H48   N13   S    
C16   O16   A    
C54   C65   S    
C56   N10   S    
C28   O18   A    
H52   O62   S    
O30   S9    D    
C3    C5    S    
C3    C64   S    
O35   S10   D    
C57   O3    A    
C57   O56   A    
H22   N3    S    
C30   C37   S    
H14   N19   S    
O40   S12   D    
C45   S10   S    
C25   N8    S    
O49   S14   S    
C40   O12   A    
C37   C38   T    
C7    C65   T    
C31   S4    S    
Cr2   O19   S    
C5    N12   S    
C31   C32   S    
C12   C23   S    
O46   S13   S    
C33   N9    S    
C23   C34   T    
O61   S5    D    
H8    N18   S    
C4    O14   A    
C17   C18   S    
C20   N18   S    
H56   O29   S    
Cr5   O68   S    
O42   S12   S    
C2    H1    S    
C58   O6    A    
O57   S4    D    
C30   C35   S    
C48   C49   S    
H43   N10   S    
H4    N16   S    
C26   C30   S    
C11   C15   S    
H3    O32   S    
C43   C44   S    
C2    S1    S    
O50   S2    D    
C22   C24   T    
C42   C43   T    
O43   S13   D    
C17   S7    S    
O38   S11   D    
Cr4   O11   S    
H5    N16   S    
H45   N12   S    
H39   N8    S    
C54   O67   A    
C6    S5    S    
C64   N11   S    
Cr2   O13   S    
Cr1   O17   S    
H55   O26   S    
H34   N1    S    
C14   C57   S    
H2    N15   S    
H27   O46   S    
Cr6   O3    S    
Cr5   O11   S    
C27   C32   S    
C27   N5    S    
O44   S13   D    
O24   S7    D    
H38   N8    S    
C17   N20   S    
C60   O10   A    
O51   S2    D    
H12   O22   S    
C58   O7    A    
O25   S7    D    
O33   S10   D    
H19   N21   S    
C28   C53   S    
Cr3   O45   S    
Cr2   O12   S    
C26   S13   S    
Cr4   O56   S    
H54   N12   S    
Cr6   O10   S    
O60   S5    D    
Cr4   O66   S    
H40   O59   S    
O29   S8    S    
C2    C3    S    
Cr2   O45   S    
C60   O5    A    
C27   N6    S    
C26   N4    S    
H21   N2    S    
H30   O49   S    
C32   C33   S    
C38   C40   S    
C11   C13   S    
C33   N7    S    
H9    N18   S    
H33   O52   S    
C40   O23   A    
C64   N13   S    
O41   S12   D    
C56   C66   S    
C39   C58   S    
O55   S3    S    
C33   C35   S    
C16   O1    A    
O48   S14   D    
H42   N9    S    
C1    O4    A    
C19   S12   S    
Cr3   O15   S    
H35   O55   S    
H6    N17   S    
Cr3   O34   S    
O37   S11   D    
C28   O19   A    
C6    C66   S    
C5    S6    S    
O36   S10   S    
C1    O13   A    
C1    C24   S    
C11   S9    S    
C49   C50   T    
O20   S1    D    
H51   N14   S    
C45   C66   S    
C10   S8    S    
H41   N9    S    
C51   C53   T    
C6    N14   S    
C12   C63   T    
C25   N3    S    
O21   S1    D    
O64   S6    D    
C10   N19   S    
O62   S5    S    
