data_mof_unit_50845.cif
_audit_creation_date              2013-03-05T15:59:32-0500
_audit_creation_method            fapswitch 2.2
_symmetry_space_group_name_H-M    P1
_symmetry_Int_Tables_number       1
_space_group_crystal_system       triclinic
_cell_length_a                    18.447966
_cell_length_b                    26.02139
_cell_length_c                    18.244728
_cell_angle_alpha                 89.838595
_cell_angle_beta                  90.04965
_cell_angle_gamma                 89.967492
_cell_volume                      8758.19111164

loop_
_atom_site_label
_atom_site_type_symbol
_atom_site_description
_atom_site_fract_x
_atom_site_fract_y
_atom_site_fract_z
_atom_type_partial_charge
Zn1   Zn    Zn3+2 0.500000 0.706650 0.586810 0.945123
Zn2   Zn    Zn3+2 0.500000 0.293350 0.413190 0.956526
Zn3   Zn    Zn3+2 0.500000 0.706650 0.413190 0.974010
Zn4   Zn    Zn3+2 0.500000 0.293350 0.586810 0.960502
Zn5   Zn    Zn3+2 1.000000 0.206650 0.086810 0.976039
Zn6   Zn    Zn3+2 1.000000 0.793350 0.913190 0.983972
Zn7   Zn    Zn3+2 0.000000 0.206650 0.913190 0.953979
Zn8   Zn    Zn3+2 1.000000 0.793350 0.086810 0.979486
Zn9   Zn    Zn3+2 0.586710 0.793420 0.500000 0.958003
Zn10  Zn    Zn3+2 0.413290 0.206580 0.500000 0.949570
Zn11  Zn    Zn3+2 0.413290 0.793420 0.500000 0.957716
Zn12  Zn    Zn3+2 0.586710 0.206580 0.500000 0.950598
Zn13  Zn    Zn3+2 0.086710 0.293420 0.000000 0.944912
Zn14  Zn    Zn3+2 0.913290 0.706580 0.000000 0.962654
Zn15  Zn    Zn3+2 0.913290 0.293420 0.000000 0.944181
Zn16  Zn    Zn3+2 0.086710 0.706580 0.000000 0.932491
O1    O     O_3   0.500000 0.750040 0.500000 -0.497571
O2    O     O_3   0.500000 0.249960 0.500000 -0.493703
O3    O     O_3   1.000000 0.250040 0.000000 -0.494412
O4    O     O_3   1.000000 0.749960 0.000000 -0.501873
O5    O     O_R   0.585420 0.719700 0.353880 -0.587615
O6    O     O_R   0.414580 0.280300 0.646120 -0.620787
O7    O     O_R   0.414580 0.719700 0.646120 -0.636920
O8    O     O_R   0.585420 0.280300 0.353880 -0.626261
O9    O     O_R   0.585420 0.280300 0.646120 -0.599401
O10   O     O_R   0.414580 0.719700 0.353880 -0.616963
O11   O     O_R   0.414580 0.280300 0.353880 -0.608435
O12   O     O_R   0.585420 0.719700 0.646120 -0.614257
O13   O     O_R   0.085420 0.219700 0.853880 -0.613319
O14   O     O_R   0.914580 0.780300 0.146120 -0.595546
O15   O     O_R   0.914580 0.219700 0.146120 -0.608850
O16   O     O_R   0.085420 0.780300 0.853880 -0.603734
O17   O     O_R   0.085420 0.780300 0.146120 -0.617339
O18   O     O_R   0.914580 0.219700 0.853880 -0.627501
O19   O     O_R   0.914580 0.780300 0.853880 -0.580859
O20   O     O_R   0.085420 0.219700 0.146120 -0.596883
O21   O     O_R   0.646120 0.780390 0.585510 -0.654894
O22   O     O_R   0.353880 0.219610 0.414490 -0.671089
O23   O     O_R   0.353880 0.780390 0.414490 -0.654520
O24   O     O_R   0.646120 0.219610 0.585510 -0.672295
O25   O     O_R   0.646120 0.219610 0.414490 -0.647456
O26   O     O_R   0.353880 0.780390 0.585510 -0.659896
O27   O     O_R   0.353880 0.219610 0.585510 -0.645267
O28   O     O_R   0.646120 0.780390 0.414490 -0.664460
O29   O     O_R   0.146120 0.280390 0.085510 -0.653799
O30   O     O_R   0.853880 0.719610 0.914490 -0.672657
O31   O     O_R   0.853880 0.280390 0.914490 -0.656062
O32   O     O_R   0.146120 0.719610 0.085510 -0.655759
O33   O     O_R   0.146120 0.719610 0.914490 -0.674530
O34   O     O_R   0.853880 0.280390 0.085510 -0.667265
O35   O     O_R   0.853880 0.719610 0.085510 -0.653267
O36   O     O_R   0.146120 0.280390 0.914490 -0.678067
O37   O     O_R   0.560660 0.865840 0.500000 -0.606862
O38   O     O_R   0.439340 0.134160 0.500000 -0.610432
O39   O     O_R   0.439340 0.865840 0.500000 -0.608499
O40   O     O_R   0.560660 0.134160 0.500000 -0.611892
O41   O     O_R   0.060660 0.365840 0.000000 -0.614368
O42   O     O_R   0.939340 0.634160 0.000000 -0.601076
O43   O     O_R   0.939340 0.365840 0.000000 -0.615077
O44   O     O_R   0.060660 0.634160 0.000000 -0.651297
O45   O     O_R   0.500000 0.634240 0.439310 -0.657569
O46   O     O_R   0.500000 0.365760 0.560690 -0.658388
O47   O     O_R   0.500000 0.634240 0.560690 -0.662725
O48   O     O_R   0.500000 0.365760 0.439310 -0.649770
O49   O     O_R   1.000000 0.134240 0.939310 -0.645677
O50   O     O_R   1.000000 0.865760 0.060690 -0.652282
O51   O     O_R   0.000000 0.134240 0.060690 -0.652149
O52   O     O_R   1.000000 0.865760 0.939310 -0.648024
C1    C     C_R   0.639626 0.750076 0.359444 0.832012
C2    C     C_R   0.360185 0.250120 0.640362 0.829437
C3    C     C_R   0.360256 0.749838 0.640445 0.840968
C4    C     C_R   0.639752 0.250278 0.359632 0.840667
C5    C     C_R   0.640270 0.250624 0.639872 0.843227
C6    C     C_R   0.360526 0.750280 0.359391 0.856626
C7    C     C_R   0.360523 0.249925 0.359305 0.836532
C8    C     C_R   0.639527 0.749938 0.640701 0.846285
C9    C     C_R   0.139557 0.250221 0.859441 0.835557
C10   C     C_R   0.859437 0.750985 0.139567 0.845172
C11   C     C_R   0.860271 0.249966 0.140595 0.849227
C12   C     C_R   0.139685 0.749961 0.859387 0.841466
C13   C     C_R   0.139848 0.750013 0.140383 0.863441
C14   C     C_R   0.859959 0.249694 0.859885 0.844616
C15   C     C_R   0.860303 0.750224 0.859462 0.840874
C16   C     C_R   0.140192 0.249462 0.140010 0.849999
C17   C     C_R   0.500032 0.889962 0.499810 0.901913
C18   C     C_R   0.500009 0.109819 0.499913 0.899901
C19   C     C_R   0.000041 0.390124 0.997431 0.893795
C20   C     C_R   0.999973 0.609914 0.999979 0.911528
C21   C     C_R   0.499302 0.609970 0.500058 0.794109
C22   C     C_R   0.499364 0.390253 0.499688 0.803526
C23   C     C_R   0.000276 0.109483 0.000176 0.821425
C24   C     C_R   0.000416 0.889745 0.999889 0.826601
H1    H     H_    0.586816 0.533623 0.737218 0.148815
H2    H     H_    0.485934 0.467063 0.245080 0.155573
H3    H     H_    0.399192 0.536432 0.267429 0.146536
H4    H     H_    0.499228 0.463650 0.752568 0.154818
H5    H     H_    0.879740 0.033485 0.222449 0.142254
H6    H     H_    0.196176 0.967302 0.839774 0.144482
H7    H     H_    0.130878 0.039371 0.784615 0.153641
H8    H     H_    0.812753 0.963087 0.168129 0.142808
C25   C     C_R   0.428459 0.545670 0.381346 0.239837
C26   C     C_R   0.477770 0.456215 0.636383 0.219208
C27   C     C_R   0.565220 0.544055 0.621527 0.215056
C28   C     C_R   0.513877 0.456889 0.359560 0.197991
C29   C     C_R   0.050530 0.044121 0.870589 0.202813
C30   C     C_R   0.888562 0.952039 0.078901 0.225875
C31   C     C_R   0.955155 0.042235 0.132185 0.197676
C32   C     C_R   0.114990 0.952894 0.923129 0.208301
C33   C     C_R   0.431837 0.522236 0.312346 -0.232756
C34   C     C_R   0.510632 0.478231 0.698152 -0.204905
C35   C     C_R   0.557896 0.519606 0.689883 -0.221129
C36   C     C_R   0.478312 0.480868 0.300494 -0.270217
C37   C     C_R   0.111950 0.023588 0.836167 -0.247040
C38   C     C_R   0.860306 0.977591 0.140091 -0.196474
C39   C     C_R   0.896311 0.019790 0.169229 -0.289764
C40   C     C_R   0.146723 0.980653 0.865344 -0.217835
C41   C     C_R   0.498577 0.475354 0.431746 0.046368
C42   C     C_R   0.522963 0.525463 0.561978 -0.001734
C43   C     C_R   0.498276 0.474763 0.565978 -0.007629
C44   C     C_R   0.474811 0.526432 0.437554 0.030660
C45   C     C_R   0.049924 0.972736 0.954978 0.022689
C46   C     C_R   0.971242 0.023779 0.060443 0.039213
C47   C     C_R   0.952412 0.972525 0.045475 0.010419
C48   C     C_R   0.031824 0.024289 0.940912 0.030832
C49   C     C_R   0.498688 0.446667 0.498898 -0.185141
C50   C     C_R   0.499286 0.553959 0.499934 -0.176348
C51   C     C_R   0.000734 0.945177 0.999761 -0.150905
C52   C     C_R   0.001180 0.052600 0.000602 -0.189055
C53   C     C_R   0.236086 0.769303 0.679668 -0.392235
C54   C     C_R   0.758898 0.223281 0.315514 -0.369519
C55   C     C_R   0.747027 0.789402 0.302766 -0.396817
C56   C     C_R   0.236445 0.229439 0.680788 -0.371627
C57   C     C_R   0.247445 0.215769 0.308574 -0.389527
C58   C     C_R   0.748270 0.787631 0.695332 -0.401033
C59   C     C_R   0.746275 0.211307 0.698367 -0.374489
C60   C     C_R   0.234200 0.762839 0.321831 -0.376591
C61   C     C_R   0.740915 0.277923 0.185148 -0.361671
C62   C     C_R   0.262845 0.728354 0.818605 -0.363920
C63   C     C_R   0.262624 0.272136 0.818487 -0.372260
C64   C     C_R   0.748491 0.715291 0.192912 -0.375734
C65   C     C_R   0.750209 0.713866 0.806104 -0.391740
C66   C     C_R   0.256073 0.281376 0.188030 -0.380534
C67   C     C_R   0.267624 0.738800 0.176657 -0.399179
C68   C     C_R   0.755100 0.290575 0.800407 -0.396964
H9    H     H_    0.225760 0.782342 0.624405 0.181946
H10   H     H_    0.767057 0.203494 0.367027 0.194027
H11   H     H_    0.743807 0.819066 0.343880 0.191343
H12   H     H_    0.225662 0.212753 0.627520 0.191277
H13   H     H_    0.245111 0.189250 0.354163 0.194167
H14   H     H_    0.744660 0.817199 0.653958 0.190288
H15   H     H_    0.741869 0.179530 0.660609 0.189045
H16   H     H_    0.220847 0.771236 0.378331 0.183656
H17   H     H_    0.733496 0.299932 0.135234 0.199085
H18   H     H_    0.274195 0.712844 0.872599 0.189921
H19   H     H_    0.273410 0.288991 0.871637 0.197981
H20   H     H_    0.747096 0.687109 0.149310 0.199668
H21   H     H_    0.751624 0.684746 0.848428 0.198006
H22   H     H_    0.261022 0.305799 0.140172 0.197789
H23   H     H_    0.279212 0.731954 0.119529 0.172991
H24   H     H_    0.757515 0.320467 0.841393 0.192692
C69   C     C_R   0.685707 0.278157 0.236768 0.492534
C70   C     C_R   0.317263 0.727060 0.766267 0.492490
C71   C     C_R   0.317338 0.272639 0.766246 0.483539
C72   C     C_R   0.695288 0.713094 0.246567 0.482480
C73   C     C_R   0.693410 0.713606 0.755820 0.500159
C74   C     C_R   0.309752 0.283663 0.241669 0.480825
C75   C     C_R   0.323433 0.738830 0.229229 0.510156
C76   C     C_R   0.702692 0.293424 0.745086 0.496523
C77   C     C_R   0.181329 0.771645 0.732659 0.511789
C78   C     C_R   0.813011 0.220912 0.262546 0.493442
C79   C     C_R   0.802152 0.791071 0.249994 0.504355
C80   C     C_R   0.180548 0.231185 0.731988 0.514175
C81   C     C_R   0.191562 0.215548 0.257199 0.495269
C82   C     C_R   0.805524 0.787862 0.745548 0.513669
C83   C     C_R   0.801209 0.210434 0.750293 0.495445
C84   C     C_R   0.179634 0.764449 0.269193 0.491639
C85   C     C_R   0.695182 0.250864 0.302953 -0.173426
C86   C     C_R   0.304170 0.748730 0.696601 -0.168351
C87   C     C_R   0.304306 0.250711 0.696835 -0.166900
C88   C     C_R   0.694694 0.750474 0.302126 -0.149150
C89   C     C_R   0.694424 0.749888 0.698213 -0.149082
C90   C     C_R   0.305522 0.249917 0.302017 -0.151046
C91   C     C_R   0.305306 0.750522 0.302310 -0.147098
C92   C     C_R   0.696941 0.252051 0.695526 -0.153439
C93   C     C_R   0.195128 0.749999 0.802360 -0.163333
C94   C     C_R   0.804441 0.249528 0.197224 -0.167562
C95   C     C_R   0.802685 0.752783 0.195157 -0.149983
C96   C     C_R   0.194887 0.250640 0.802511 -0.166676
C97   C     C_R   0.196612 0.248403 0.195924 -0.157747
C98   C     C_R   0.804765 0.750994 0.802581 -0.150442
C99   C     C_R   0.804626 0.249834 0.802866 -0.153779
C100  C     C_R   0.196100 0.750559 0.196645 -0.149864
C101  C     C_R   0.438677 0.972810 0.523493 0.290656
C102  C     C_R   0.564711 0.026262 0.484345 0.309009
C103  C     C_R   0.561448 0.972905 0.474660 0.299539
C104  C     C_R   0.435304 0.026151 0.514434 0.319129
C105  C     C_R   0.934573 0.473576 0.983587 0.280198
C106  C     C_R   0.065234 0.526675 0.007679 0.305741
C107  C     C_R   0.066465 0.473634 0.995298 0.365989
C108  C     C_R   0.935953 0.527161 0.977332 0.319833
C109  C     C_R   0.500006 0.053444 0.499569 -0.347854
C110  C     C_R   0.500104 0.945954 0.499236 -0.321070
C111  C     C_R   0.000065 0.553800 0.995883 -0.341546
C112  C     C_R   0.000344 0.446394 0.991462 -0.341258
C113  C     C_3   0.364251 0.580869 0.396850 -0.407465
C114  C     C_3   0.313422 0.556874 0.453415 -0.902867
H25   H     H_    0.295330 0.518324 0.434847 0.266583
H26   H     H_    0.341021 0.553090 0.507291 0.259043
H27   H     H_    0.265005 0.581741 0.460478 0.251459
H28   H     H_    0.379747 0.619528 0.415610 0.225586
H29   H     H_    0.332340 0.587463 0.345932 0.194166
C115  C     C_3   0.412021 0.422048 0.647618 -0.326367
C116  C     C_3   0.351397 0.450189 0.687959 -0.933443
H30   H     H_    0.366595 0.456941 0.746017 0.261537
H31   H     H_    0.339491 0.487539 0.660809 0.263062
H32   H     H_    0.301547 0.426352 0.686849 0.267610
H33   H     H_    0.388771 0.409918 0.594246 0.197786
H34   H     H_    0.427680 0.387258 0.679391 0.256416
C117  C     C_3   0.624428 0.583953 0.611935 -0.353971
C118  C     C_3   0.699278 0.562327 0.630531 -0.912762
H35   H     H_    0.741313 0.591640 0.618234 0.260150
H36   H     H_    0.703103 0.552477 0.689557 0.258818
H37   H     H_    0.710440 0.527491 0.597318 0.261191
H38   H     H_    0.627588 0.597612 0.554413 0.185543
H39   H     H_    0.612945 0.617286 0.647764 0.271197
C119  C     C_3   0.578452 0.422757 0.340008 -0.328352
C120  C     C_3   0.642930 0.427630 0.392452 -0.861666
H40   H     H_    0.691042 0.408613 0.367970 0.250954
H41   H     H_    0.656160 0.468688 0.402091 0.245998
H42   H     H_    0.631920 0.408666 0.445655 0.249639
H43   H     H_    0.562375 0.382173 0.332433 0.270723
H44   H     H_    0.599177 0.434026 0.285160 0.196999
C121  C     C_3   0.995133 0.069532 0.819845 -0.345576
C122  C     C_3   0.916297 0.056298 0.838824 -0.798833
H45   H     H_    0.909245 0.013949 0.842129 0.243056
H46   H     H_    0.899648 0.073738 0.891509 0.262369
H47   H     H_    0.879502 0.071220 0.795712 0.266923
H48   H     H_    0.003435 0.111598 0.816302 0.251358
H49   H     H_    0.003715 0.055535 0.762906 0.180070
C123  C     C_3   0.843363 0.908905 0.046002 -0.402102
C124  C     C_3   0.819351 0.921684 0.967858 -0.875658
H50   H     H_    0.783709 0.890611 0.946972 0.252960
H51   H     H_    0.788624 0.958412 0.967031 0.260967
H52   H     H_    0.866683 0.925056 0.930688 0.269084
H53   H     H_    0.871466 0.871463 0.047189 0.216383
H54   H     H_    0.793398 0.902674 0.078915 0.204598
C125  C     C_3   0.011177 0.069133 0.180579 -0.355849
C126  C     C_3   0.089855 0.056493 0.160857 -0.798817
H55   H     H_    0.126604 0.072722 0.203131 0.262741
H56   H     H_    0.097912 0.014194 0.159082 0.241359
H57   H     H_    0.105068 0.073377 0.107209 0.257281
H58   H     H_    0.002672 0.111196 0.182699 0.255872
H59   H     H_    0.004100 0.056131 0.238298 0.174041
C127  C     C_3   0.158005 0.908085 0.954796 -0.426504
C128  C     C_3   0.180810 0.918246 0.033985 -0.873676
H60   H     H_    0.213330 0.954094 0.037094 0.263325
H61   H     H_    0.132893 0.921981 0.070267 0.260730
H62   H     H_    0.214401 0.885747 0.054265 0.245248
H63   H     H_    0.128685 0.871247 0.950988 0.209064
H64   H     H_    0.208429 0.901831 0.922649 0.196977
O53   O     O_3   0.624808 0.307856 0.223734 -0.641170
C129  C     C_3   0.572855 0.279355 0.183562 0.108950
H65   H     H_    0.521624 0.279272 0.215572 0.210974
H66   H     H_    0.587641 0.238215 0.174004 0.098623
C130  C     C_3   0.559039 0.305665 0.109803 -0.355495
H67   H     H_    0.546597 0.346930 0.118879 0.223386
H68   H     H_    0.608564 0.303074 0.075387 0.212093
C131  C     C_3   0.495864 0.280823 0.069126 -0.964924
H69   H     H_    0.508178 0.239897 0.057281 0.260679
H70   H     H_    0.486542 0.301351 0.016537 0.264869
H71   H     H_    0.445568 0.283068 0.102369 0.288958
O54   O     O_3   0.384916 0.708712 0.786215 -0.645105
C132  C     C_3   0.391143 0.655901 0.768321 0.142719
H72   H     H_    0.444228 0.650549 0.740594 0.198655
H73   H     H_    0.348873 0.641525 0.729484 0.111631
C133  C     C_3   0.390554 0.623306 0.837911 -0.404682
H74   H     H_    0.426620 0.640895 0.879634 0.233398
H75   H     H_    0.334516 0.622222 0.859897 0.216533
C134  C     C_3   0.416423 0.568694 0.822210 -0.965933
H76   H     H_    0.377507 0.548946 0.785393 0.269725
H77   H     H_    0.421387 0.546652 0.874038 0.275737
H78   H     H_    0.470579 0.569481 0.796015 0.267824
O55   O     O_3   0.381181 0.298161 0.781831 -0.627370
C135  C     C_3   0.428970 0.264070 0.817859 0.072247
H79   H     H_    0.441673 0.230597 0.782057 0.134377
H80   H     H_    0.405102 0.250059 0.870355 0.127320
C136  C     C_3   0.499221 0.292718 0.834971 -0.287299
H81   H     H_    0.520232 0.310609 0.783912 0.281532
H82   H     H_    0.487901 0.323862 0.874942 0.201572
C137  C     C_3   0.556841 0.256814 0.866510 -0.936516
H83   H     H_    0.536051 0.236907 0.916105 0.255512
H84   H     H_    0.605517 0.279419 0.881968 0.276003
H85   H     H_    0.572834 0.227748 0.825065 0.263035
O56   O     O_3   0.639949 0.677558 0.239949 -0.616091
C138  C     C_3   0.665958 0.628019 0.258023 0.088270
H86   H     H_    0.664268 0.622834 0.318561 0.145440
H87   H     H_    0.722559 0.621020 0.238904 0.121991
C139  C     C_3   0.616857 0.588293 0.221915 -0.306832
H88   H     H_    0.561198 0.591533 0.244800 0.241101
H89   H     H_    0.614555 0.595898 0.161966 0.220582
C140  C     C_3   0.645019 0.533960 0.234236 -0.985235
H90   H     H_    0.700813 0.529905 0.212150 0.263182
H91   H     H_    0.609238 0.506397 0.205300 0.263174
H92   H     H_    0.645325 0.524913 0.293688 0.278930
O57   O     O_3   0.640042 0.675905 0.759076 -0.644490
C141  C     C_3   0.607024 0.673278 0.829277 0.095681
H93   H     H_    0.547558 0.676871 0.821575 0.178256
H94   H     H_    0.622561 0.705142 0.867033 0.131405
C142  C     C_3   0.622775 0.620986 0.864798 -0.366039
H95   H     H_    0.594804 0.590499 0.833380 0.215238
H96   H     H_    0.681755 0.612657 0.863348 0.220920
C143  C     C_3   0.597009 0.619014 0.944229 -0.944798
H97   H     H_    0.626367 0.647978 0.977579 0.269492
H98   H     H_    0.607988 0.580297 0.967490 0.264926
H99   H     H_    0.537885 0.626558 0.947404 0.261741
O58   O     O_3   0.369644 0.315257 0.232213 -0.638252
C144  C     C_3   0.349118 0.367623 0.226948 0.092184
H100  H     H_    0.376066 0.388822 0.272193 0.167869
H101  H     H_    0.289708 0.374797 0.233192 0.126640
C145  C     C_3   0.375798 0.389501 0.153950 -0.342182
H102  H     H_    0.435943 0.391293 0.154499 0.218577
H103  H     H_    0.358814 0.364007 0.108318 0.228735
C146  C     C_3   0.345489 0.443096 0.140041 -0.983729
H104  H     H_    0.285457 0.441555 0.136239 0.279521
H105  H     H_    0.367531 0.458173 0.087707 0.270320
H106  H     H_    0.361035 0.469487 0.184909 0.261697
O59   O     O_3   0.396773 0.734737 0.211294 -0.633479
C147  C     C_3   0.412673 0.697669 0.156979 0.135071
H107  H     H_    0.472155 0.699419 0.147683 0.191933
H108  H     H_    0.388183 0.707274 0.103134 0.108175
C148  C     C_3   0.394087 0.642717 0.181559 -0.383431
H109  H     H_    0.416980 0.635439 0.237011 0.242807
H110  H     H_    0.334323 0.637828 0.184119 0.211865
C149  C     C_3   0.425065 0.603512 0.127988 -0.979287
H111  H     H_    0.408621 0.613274 0.071201 0.273396
H112  H     H_    0.404852 0.564489 0.141565 0.268849
H113  H     H_    0.485092 0.603370 0.130743 0.267428
O60   O     O_3   0.652424 0.333333 0.742534 -0.636076
C150  C     C_3   0.684892 0.382508 0.748347 0.083900
H114  H     H_    0.665759 0.406064 0.701234 0.167364
H115  H     H_    0.745281 0.382304 0.744668 0.123568
C151  C     C_3   0.659669 0.408487 0.819122 -0.331486
H116  H     H_    0.600369 0.415638 0.815928 0.217761
H117  H     H_    0.669770 0.382877 0.866842 0.215648
C152  C     C_3   0.698950 0.459308 0.831476 -1.001339
H118  H     H_    0.757639 0.452220 0.840565 0.278848
H119  H     H_    0.676399 0.478748 0.880533 0.264451
H120  H     H_    0.692085 0.485015 0.783392 0.261486
O61   O     O_3   0.112093 0.790039 0.716542 -0.632167
C153  C     C_3   0.112321 0.837509 0.678092 0.106203
H121  H     H_    0.055017 0.848219 0.668645 0.167252
H122  H     H_    0.136180 0.834082 0.622559 0.124928
C154  C     C_3   0.146819 0.881434 0.722054 -0.382701
H123  H     H_    0.117013 0.886481 0.774455 0.244703
H124  H     H_    0.204022 0.872227 0.735117 0.220619
C155  C     C_3   0.144740 0.931575 0.678374 -0.961448
H125  H     H_    0.170814 0.926405 0.624024 0.266840
H126  H     H_    0.174773 0.961931 0.708156 0.263681
H127  H     H_    0.087801 0.944341 0.670400 0.265275
O62   O     O_3   0.876658 0.194348 0.277207 -0.632685
C156  C     C_3   0.862565 0.141448 0.289833 0.077696
H128  H     H_    0.895558 0.119535 0.250321 0.153851
H129  H     H_    0.805161 0.129512 0.280178 0.124859
C157  C     C_3   0.885853 0.126287 0.367570 -0.350330
H130  H     H_    0.944006 0.135433 0.375072 0.230193
H131  H     H_    0.854555 0.148536 0.408560 0.222371
C158  C     C_3   0.874302 0.069033 0.381953 -0.987296
H132  H     H_    0.817198 0.058060 0.370616 0.267598
H133  H     H_    0.886416 0.060126 0.440185 0.266047
H134  H     H_    0.911177 0.045851 0.347194 0.259902
O63   O     O_3   0.850319 0.832318 0.244801 -0.628314
C159  C     C_3   0.875373 0.850264 0.313586 0.114354
H135  H     H_    0.934726 0.856074 0.309066 0.162377
H136  H     H_    0.868107 0.822139 0.359249 0.123523
C160  C     C_3   0.840939 0.902513 0.330930 -0.376603
H137  H     H_    0.865530 0.932467 0.295256 0.222167
H138  H     H_    0.781987 0.901582 0.319123 0.225978
C161  C     C_3   0.851862 0.917350 0.411027 -0.958821
H139  H     H_    0.825006 0.888935 0.447536 0.270593
H140  H     H_    0.827444 0.955704 0.421061 0.268779
H141  H     H_    0.910477 0.919097 0.424455 0.269427
O64   O     O_3   0.112807 0.212048 0.713838 -0.634902
C162  C     C_3   0.076838 0.246543 0.665710 0.049168
H142  H     H_    0.038669 0.223742 0.631879 0.165949
H143  H     H_    0.113860 0.266164 0.626240 0.127814
C163  C     C_3   0.033380 0.286438 0.709092 -0.354990
H144  H     H_    0.996507 0.266513 0.747916 0.235489
H145  H     H_    0.070982 0.311036 0.741118 0.202075
C164  C     C_3   0.988427 0.320629 0.658432 -0.987566
H146  H     H_    0.024360 0.342037 0.620259 0.270343
H147  H     H_    0.957332 0.348729 0.691630 0.264110
H148  H     H_    0.949561 0.297144 0.626279 0.258471
O65   O     O_3   0.134860 0.180716 0.263412 -0.624478
C165  C     C_3   0.097543 0.186840 0.330670 0.093306
H149  H     H_    0.039002 0.191738 0.318166 0.182231
H150  H     H_    0.113630 0.221823 0.362188 0.124169
C166  C     C_3   0.106896 0.138410 0.377586 -0.374439
H151  H     H_    0.072240 0.107177 0.355351 0.217678
H152  H     H_    0.163850 0.125144 0.375633 0.239657
C167  C     C_3   0.087213 0.148472 0.457311 -0.980947
H153  H     H_    0.127556 0.174655 0.482712 0.268105
H154  H     H_    0.086870 0.111678 0.488268 0.277820
H155  H     H_    0.032928 0.166509 0.460497 0.265423
O66   O     O_3   0.859862 0.825194 0.743798 -0.618337
C168  C     C_3   0.885594 0.836800 0.672269 0.109466
H156  H     H_    0.928944 0.866010 0.678623 0.157842
H157  H     H_    0.843967 0.856167 0.638108 0.125370
C169  C     C_3   0.918773 0.789921 0.633236 -0.375757
H158  H     H_    0.964685 0.774766 0.666302 0.255517
H159  H     H_    0.878045 0.758801 0.627432 0.216389
C170  C     C_3   0.945605 0.804173 0.556662 -0.972385
H160  H     H_    0.899455 0.816657 0.521732 0.267143
H161  H     H_    0.971578 0.770235 0.530894 0.271196
H162  H     H_    0.985950 0.835693 0.559451 0.254217
O67   O     O_3   0.848067 0.168935 0.752608 -0.637432
C171  C     C_3   0.900932 0.173689 0.696690 0.111745
H163  H     H_    0.955160 0.171039 0.722876 0.192978
H164  H     H_    0.899637 0.211103 0.666408 0.115101
C172  C     C_3   0.893103 0.129576 0.642149 -0.377884
H165  H     H_    0.897152 0.092208 0.671311 0.229676
H166  H     H_    0.839481 0.131936 0.614793 0.228813
C173  C     C_3   0.951711 0.131974 0.583719 -0.996145
H167  H     H_    0.946630 0.168466 0.552467 0.262232
H168  H     H_    0.945343 0.099280 0.545379 0.274667
H169  H     H_    0.006306 0.129600 0.609254 0.280580
O68   O     O_3   0.109270 0.776347 0.289612 -0.630951
C174  C     C_3   0.104138 0.828902 0.309548 0.115015
H170  H     H_    0.064184 0.847530 0.272407 0.170155
H171  H     H_    0.155699 0.851132 0.303631 0.121703
C175  C     C_3   0.076909 0.833348 0.388509 -0.359529
H172  H     H_    0.022751 0.814966 0.393228 0.224918
H173  H     H_    0.114607 0.812971 0.426157 0.222445
C176  C     C_3   0.071440 0.889477 0.412016 -0.991636
H174  H     H_    0.125920 0.907639 0.411590 0.272554
H175  H     H_    0.049238 0.891715 0.468434 0.264118
H176  H     H_    0.035073 0.911077 0.374409 0.263034
O69   O     O_3   0.380439 0.946630 0.553523 -0.612861
C177  C     C_3   0.380966 0.952264 0.630672 0.117590
H177  H     H_    0.342573 0.983419 0.645845 0.172960
H178  H     H_    0.435552 0.961867 0.653627 0.105677
C178  C     C_3   0.356237 0.901810 0.665684 -0.297351
H179  H     H_    0.302259 0.890933 0.643597 0.238470
H180  H     H_    0.395450 0.870990 0.651474 0.228516
C179  C     C_3   0.351826 0.906088 0.748961 -1.017893
H181  H     H_    0.405602 0.916362 0.772073 0.271660
H182  H     H_    0.334862 0.868579 0.772529 0.271253
H183  H     H_    0.311540 0.935793 0.764742 0.263440
O70   O     O_3   0.629281 0.052181 0.471248 -0.608096
C180  C     C_3   0.681763 0.039098 0.525198 0.142640
H184  H     H_    0.736271 0.044436 0.500463 0.145551
H185  H     H_    0.679415 0.998199 0.543152 0.167030
C181  C     C_3   0.675771 0.074328 0.592100 -0.352336
H186  H     H_    0.692060 0.113890 0.576129 0.244216
H187  H     H_    0.618879 0.075393 0.611951 0.219445
C182  C     C_3   0.724068 0.055435 0.654615 -1.010109
H188  H     H_    0.703082 0.018490 0.676625 0.272516
H189  H     H_    0.724487 0.084163 0.699499 0.285932
H190  H     H_    0.780373 0.049447 0.635078 0.263520
O71   O     O_3   0.620803 0.946752 0.446779 -0.613772
C183  C     C_3   0.627952 0.956191 0.370599 0.131421
H191  H     H_    0.685843 0.964984 0.359530 0.157457
H192  H     H_    0.595948 0.989661 0.349748 0.128902
C184  C     C_3   0.606475 0.907953 0.328138 -0.351801
H193  H     H_    0.638141 0.874729 0.348966 0.247247
H194  H     H_    0.547985 0.899895 0.337070 0.206028
C185  C     C_3   0.620476 0.914112 0.246165 -0.977281
H195  H     H_    0.587764 0.946367 0.223701 0.265821
H196  H     H_    0.604946 0.878214 0.217387 0.278576
H197  H     H_    0.678819 0.921657 0.235747 0.258166
O72   O     O_3   0.370510 0.051860 0.527103 -0.604077
C186  C     C_3   0.318804 0.039137 0.472307 0.148646
H198  H     H_    0.263940 0.045008 0.495921 0.147255
H199  H     H_    0.320822 0.998114 0.455166 0.165197
C187  C     C_3   0.326430 0.074163 0.404979 -0.350161
H200  H     H_    0.308897 0.113677 0.419613 0.245291
H201  H     H_    0.383921 0.075686 0.387054 0.219053
C188  C     C_3   0.280741 0.054636 0.341018 -1.012425
H202  H     H_    0.303954 0.018265 0.319584 0.271812
H203  H     H_    0.280469 0.083653 0.296256 0.281102
H204  H     H_    0.224093 0.047339 0.358657 0.263281
O73   O     O_3   0.869339 0.447813 0.975543 -0.615722
C189  C     C_3   0.830649 0.450123 0.042305 0.164097
H205  H     H_    0.811859 0.490070 0.052952 0.165688
H206  H     H_    0.864903 0.436877 0.089158 0.124055
C190  C     C_3   0.764424 0.415027 0.037186 -0.339341
H207  H     H_    0.730154 0.427154 0.990100 0.225254
H208  H     H_    0.782427 0.374809 0.027676 0.254184
C191  C     C_3   0.719218 0.417031 0.107140 -0.987338
H209  H     H_    0.752027 0.404481 0.155067 0.278484
H210  H     H_    0.671887 0.391034 0.101762 0.272395
H211  H     H_    0.699049 0.456685 0.116481 0.267744
O74   O     O_3   0.121131 0.549218 0.047336 -0.604663
C192  C     C_3   0.180433 0.562960 0.002293 0.199501
H212  H     H_    0.187242 0.605329 0.004360 0.182017
H213  H     H_    0.173533 0.553067 0.943381 0.080915
C193  C     C_3   0.249600 0.539193 0.033679 -0.348196
H214  H     H_    0.260231 0.555224 0.089086 0.232675
H215  H     H_    0.243032 0.497072 0.039314 0.262936
C194  C     C_3   0.314146 0.550240 0.984376 -1.038447
H216  H     H_    0.304381 0.534394 0.928837 0.272934
H217  H     H_    0.363705 0.532174 0.007329 0.278356
H218  H     H_    0.322774 0.592326 0.980398 0.269790
O75   O     O_3   0.132332 0.448361 0.989888 -0.597824
C195  C     C_3   0.158785 0.452467 0.916785 0.052667
H219  H     H_    0.215766 0.465833 0.919438 0.165513
H220  H     H_    0.128774 0.480504 0.881416 0.089823
C196  C     C_3   0.158710 0.400190 0.878985 -0.266825
H221  H     H_    0.187816 0.372153 0.914268 0.264252
H222  H     H_    0.102039 0.387154 0.870391 0.206231
C197  C     C_3   0.196406 0.402815 0.804692 -1.011945
H223  H     H_    0.171172 0.432842 0.769577 0.263858
H224  H     H_    0.191386 0.365313 0.776380 0.274001
H225  H     H_    0.254810 0.411589 0.812354 0.280872
O76   O     O_3   0.872172 0.553584 0.962824 -0.604661
C198  C     C_3   0.851700 0.547579 0.888454 0.136518
H226  H     H_    0.791635 0.550099 0.885990 0.164074
H227  H     H_    0.866702 0.509590 0.864749 0.144550
C199  C     C_3   0.883827 0.590735 0.841463 -0.385091
H228  H     H_    0.872183 0.628268 0.867417 0.263522
H229  H     H_    0.943578 0.585906 0.837921 0.194141
C200  C     C_3   0.851695 0.590905 0.764397 -0.985420
H230  H     H_    0.861640 0.553472 0.737063 0.269049
H231  H     H_    0.877220 0.621911 0.731412 0.270863
H232  H     H_    0.792449 0.598247 0.766934 0.275337

loop_
_geom_bond_atom_site_label_1
_geom_bond_atom_site_label_2
_geom_bond_distance
_ccdc_geom_bond_type
Zn6   O16   1.942648 S    
O71   C183  1.417012 S    
C128  H61   1.109192 S    
Zn7   O13   1.941895 S    
C54   H10   1.080735 S    
C137  H85   1.110958 S    
C104  O72   1.389319 S    
Zn5   O51   1.944841 S    
O34   C11   1.282928 A    
C38   C39   1.390349 A    
C82   C98   1.413407 A    
O69   C177  1.415617 S    
C55   C79   1.401634 A    
C59   C92   1.397698 A    
C135  H79   1.115114 S    
C61   C94   1.401968 A    
C166  H152  1.106378 S    
C196  H222  1.110444 S    
C170  H161  1.110304 S    
C113  H29   1.112251 S    
Zn5   O20   1.941439 S    
C132  C133  1.524954 S    
C159  H135  1.108518 S    
O23   C6    1.282197 A    
C34   C35   1.393742 A    
O62   C156  1.419245 S    
Zn2   O48   1.944841 S    
O54   C132  1.417970 S    
C194  H217  1.109047 S    
C136  H82   1.111583 S    
C147  H107  1.111434 S    
C68   H24   1.081422 S    
C53   H9    1.079652 S    
Zn4   O2    1.947659 S    
C62   H18   1.083727 S    
Zn3   O45   1.942238 S    
C106  O74   1.390218 S    
C122  H46   1.107722 S    
C66   H22   1.082457 S    
O11   C7    1.276570 A    
C154  H124  1.107594 S    
C126  H56   1.111159 S    
C116  H31   1.111333 S    
C156  C157  1.532102 S    
C184  H193  1.109180 S    
C145  C146  1.522788 S    
C172  C173  1.520215 S    
Zn16  O33   1.936622 S    
H3    C33   1.080692 S    
C151  H116  1.111021 S    
C178  C179  1.526002 S    
C125  H58   1.106424 S    
C66   C97   1.400280 A    
C193  C194  1.520006 S    
O58   C144  1.417040 S    
C174  H170  1.110977 S    
C105  O73   1.385780 S    
Zn12  O24   1.936630 S    
C144  C145  1.528825 S    
C163  H145  1.110939 S    
C54   C85   1.395346 A    
O16   C12   1.278279 A    
O40   C18   1.286044 A    
C120  H40   1.110671 S    
Zn16  O4    1.957280 S    
C176  H176  1.110575 S    
C141  H93   1.109744 S    
C61   H17   1.082967 S    
C62   C70   1.386572 A    
C152  H120  1.108848 S    
C17   C110  1.456986 S    
C64   H20   1.083760 S    
C167  H154  1.110260 S    
C169  H159  1.110194 S    
C189  H206  1.116248 S    
C192  H213  1.113150 S    
C107  C112  1.412920 A    
C33   C36   1.393276 A    
C163  C164  1.525385 S    
C139  H88   1.112020 S    
C69   C85   1.409869 A    
C162  H142  1.109341 S    
C19   C112  1.467977 S    
C195  H219  1.108482 S    
C28   C36   1.405582 A    
C28   C41   1.431464 A    
C53   C86   1.398998 A    
C140  H92   1.109296 S    
O49   C23   1.282243 A    
C58   C82   1.397641 A    
O72   C186  1.421082 S    
C64   C95   1.397950 A    
C135  C136  1.527887 S    
C65   C98   1.396894 A    
C151  C152  1.525517 S    
O42   C20   1.283914 A    
C160  H137  1.111313 S    
O33   C12   1.282084 A    
C199  H228  1.107595 S    
C68   C99   1.399722 A    
C189  C190  1.528690 S    
O65   C165  1.416875 S    
C159  C160  1.534262 S    
C107  O75   1.385061 S    
Zn10  O22   1.934874 S    
C171  H163  1.110274 S    
O32   C13   1.283006 A    
C121  H49   1.113217 S    
O35   C10   1.286157 A    
C188  H203  1.110662 S    
C168  H156  1.109824 S    
O70   C180  1.420645 S    
C61   C69   1.387787 A    
C149  H113  1.108468 S    
C187  H200  1.111043 S    
C127  H63   1.103243 S    
Zn10  O2    1.958328 S    
C119  H44   1.110265 S    
C60   C91   1.396884 A    
C191  H209  1.111227 S    
O52   C24   1.270836 A    
Zn3   O1    1.947661 S    
C158  H134  1.109603 S    
C44   C50   1.419949 A    
C134  H77   1.108263 S    
C153  H121  1.106348 S    
C175  H173  1.110540 S    
C165  H149  1.110790 S    
C69   O53   1.383295 S    
C115  C116  1.527170 S    
C185  H195  1.110718 S    
C115  H33   1.110390 S    
C182  H189  1.110372 S    
O37   C17   1.282243 A    
C56   C80   1.392780 A    
C31   C46   1.426897 A    
C161  H139  1.110886 S    
C183  H192  1.117563 S    
C57   C81   1.392767 A    
C82   O66   1.396603 S    
C26   C43   1.422535 A    
Zn13  O29   1.934872 S    
C60   C84   1.391186 A    
O61   C153  1.418825 S    
C14   C99   1.456843 S    
C15   C98   1.457780 S    
C172  H165  1.109545 S    
C74   C90   1.408629 A    
C198  C199  1.530875 S    
C199  C200  1.525415 S    
Zn4   O9    1.940060 S    
O44   C20   1.285400 A    
C138  H87   1.116213 S    
Zn6   O19   1.941441 S    
C174  H171  1.118707 S    
Zn11  O26   1.936621 S    
C29   C37   1.402191 A    
C186  H199  1.113814 S    
C1    C88   1.458605 S    
O53   C129  1.417172 S    
C74   O58   1.388154 S    
C2    C87   1.458226 S    
Zn13  O41   1.944516 S    
C157  H130  1.107482 S    
C124  H50   1.110519 S    
Zn16  O44   1.945045 S    
C75   O59   1.396338 S    
C197  H224  1.109304 S    
C117  H38   1.108674 S    
C157  H131  1.109338 S    
C164  H148  1.110615 S    
C183  C184  1.529116 S    
C55   H11   1.079485 S    
C121  C122  1.534427 S    
C139  C140  1.521992 S    
C195  C196  1.526882 S    
C81   O65   1.388977 S    
C84   O68   1.385872 S    
C155  H126  1.108403 S    
C118  H35   1.110624 S    
O43   C19   1.286929 A    
C142  H96   1.109684 S    
C171  C172  1.528080 S    
H8    C38   1.083405 S    
O66   C168  1.420791 S    
C168  C169  1.541006 S    
O38   C18   1.285702 A    
C149  H111  1.108092 S    
O50   C24   1.271324 A    
C180  H185  1.113515 S    
C191  H211  1.110339 S    
O41   C19   1.284926 A    
O5    C1    1.279152 A    
C179  H181  1.110706 S    
C146  H105  1.108908 S    
C145  H103  1.110962 S    
C190  H207  1.111107 S    
C66   C74   1.393049 A    
Zn4   O6    1.941897 S    
C131  H71   1.110531 S    
C47   C51   1.414425 A    
C63   H19   1.083737 S    
C101  C104  1.398702 A    
O47   C21   1.275395 A    
C193  H215  1.107288 S    
O73   C189  1.413721 S    
C16   C97   1.456965 S    
C131  H69   1.110638 S    
C200  H231  1.110420 S    
C67   C75   1.406508 A    
C120  H41   1.110498 S    
O57   C141  1.420224 S    
C71   C87   1.410961 A    
C173  H167  1.110099 S    
H5    C39   1.079627 S    
C63   C96   1.400144 A    
C24   C51   1.442433 S    
C76   O60   1.392535 S    
C170  H160  1.110885 S    
O8    C4    1.274520 A    
C160  C161  1.525765 S    
C32   C127  1.522316 S    
C25   C44   1.424287 A    
C133  H75   1.109560 S    
C181  H186  1.110746 S    
C123  H53   1.103521 S    
O75   C195  1.424361 S    
Zn1   O7    1.942650 S    
C129  H65   1.111415 S    
Zn12  O25   1.936622 S    
C64   C72   1.387892 A    
C73   O57   1.391454 S    
Zn1   O1    1.942480 S    
C143  H99   1.109732 S    
C124  H52   1.109421 S    
O60   C150  1.417357 S    
C135  H80   1.114937 S    
O76   C198  1.417199 S    
C162  C163  1.533516 S    
C101  O69   1.385037 S    
C166  H151  1.111682 S    
C113  H28   1.101327 S    
H2    C36   1.083137 S    
C123  C124  1.528241 S    
C132  H73   1.118473 S    
C159  H136  1.115572 S    
O9    C5    1.277891 A    
C148  C149  1.525966 S    
C70   C86   1.409661 A    
Zn15  O34   1.936621 S    
C150  C151  1.531830 S    
O13   C9    1.280503 A    
C133  H74   1.110420 S    
C173  H169  1.110945 S    
C180  H184  1.111162 S    
O55   C135  1.411066 S    
C9    C96   1.456924 S    
C10   C95   1.459133 S    
O18   C14   1.279174 A    
C104  C109  1.415300 A    
C7    C90   1.456065 S    
C41   C49   1.432885 A    
O6    C2    1.279033 A    
C118  H37   1.111038 S    
C198  H226  1.110832 S    
O64   C162  1.418061 S    
C11   C94   1.459521 S    
O48   C22   1.274289 A    
C32   C45   1.430814 A    
C129  C130  1.529267 S    
C72   O56   1.383228 S    
C154  H123  1.111389 S    
Zn14  O30   1.934874 S    
C121  H48   1.107082 S    
C116  H30   1.109982 S    
Zn15  O3    1.957282 S    
C156  H129  1.117725 S    
C183  H191  1.110883 S    
C179  H183  1.110720 S    
C3    C86   1.456975 S    
C172  H166  1.109194 S    
C45   C51   1.415638 A    
C190  C191  1.526196 S    
C147  C148  1.536424 S    
O56   C138  1.413268 S    
C114  H26   1.110705 S    
C178  H180  1.111085 S    
O68   C174  1.419216 S    
C25   C33   1.401756 A    
O63   C159  1.417449 S    
Zn4   O46   1.942238 S    
O24   C5    1.285004 A    
C105  C112  1.411128 A    
C27   C35   1.405082 A    
C137  H83   1.110134 S    
C144  H101  1.117637 S    
C177  H177  1.111971 S    
C60   H16   1.082907 S    
C176  H175  1.109819 S    
Zn1   O12   1.941439 S    
C141  H94   1.116810 S    
C134  H76   1.110046 S    
Zn2   O11   1.941441 S    
C152  H119  1.110408 S    
C72   C88   1.406881 A    
C48   C52   1.432961 A    
C102  C103  1.401447 A    
C128  H62   1.110550 S    
C182  H188  1.110808 S    
C30   C123  1.522936 S    
C192  H212  1.110462 S    
C170  H162  1.109104 S    
C123  H54   1.112237 S    
C80   O64   1.385737 S    
O74   C192  1.414351 S    
C139  H89   1.111730 S    
C181  C182  1.526768 S    
C195  H220  1.118684 S    
C21   C50   1.457487 S    
C140  H91   1.109462 S    
Zn14  O42   1.944516 S    
C141  C142  1.533043 S    
C23   C52   1.480263 S    
Zn13  O3    1.958327 S    
Zn14  O4    1.958328 S    
C41   C44   1.403636 A    
C117  C118  1.528300 S    
C130  H68   1.111184 S    
O19   C15   1.275185 A    
C167  H153  1.111135 S    
C196  C197  1.525335 S    
C199  H229  1.111314 S    
C153  C154  1.536182 S    
C113  C114  1.527376 S    
H4    C34   1.082698 S    
C77   O61   1.394564 S    
C101  C110  1.403604 A    
C146  H104  1.110328 S    
C29   C48   1.424361 A    
C177  C178  1.528476 S    
C171  H164  1.118302 S    
O39   C17   1.283904 A    
C105  C108  1.398956 A    
C186  H198  1.110996 S    
C127  C128  1.528248 S    
O7    C3    1.276146 A    
Zn7   O49   1.942238 S    
Zn13  O36   1.937943 S    
C187  H201  1.110840 S    
C150  H114  1.111488 S    
C133  C134  1.526782 S    
C127  H64   1.112245 S    
C55   C88   1.399819 A    
C194  H218  1.108933 S    
C62   C93   1.401180 A    
C191  H210  1.109302 S    
C136  C137  1.525996 S    
O28   C1    1.284348 A    
C158  H133  1.109306 S    
C153  H122  1.108828 S    
C18   C109  1.466987 S    
C165  H150  1.118205 S    
H1    C35   1.079212 S    
C43   C49   1.427389 A    
O21   C8    1.285486 A    
C30   C38   1.401763 A    
C185  H196  1.110458 S    
Zn7   O18   1.940061 S    
C166  C167  1.522866 S    
C27   C42   1.422697 A    
C103  O71   1.386703 S    
C122  H45   1.111175 S    
C161  H140  1.110468 S    
C28   C119  1.528570 S    
O12   C8    1.275073 A    
C138  H86   1.112799 S    
C154  C155  1.527388 S    
Zn11  O39   1.945045 S    
C126  H55   1.110889 S    
C187  C188  1.527254 S    
C116  H32   1.109756 S    
C31   C125  1.529793 S    
Zn11  O1    1.957282 S    
C114  H25   1.111084 S    
Zn15  O43   1.945045 S    
C140  H90   1.110761 S    
C198  H227  1.114963 S    
C165  C166  1.531029 S    
H7    C37   1.083408 S    
C157  C158  1.527119 S    
C67   H23   1.079431 S    
Zn5   O3    1.942480 S    
C185  H197  1.110634 S    
Zn6   O4    1.942481 S    
Zn8   O14   1.941897 S    
C65   C73   1.392135 A    
C32   C40   1.404698 A    
C161  H141  1.109518 S    
C163  H144  1.110156 S    
O59   C147  1.415629 S    
C102  C109  1.415280 A    
C26   C115  1.517996 S    
C54   C78   1.391485 A    
C59   H15   1.080778 S    
C63   C71   1.388901 A    
O26   C3    1.282817 A    
C22   C49   1.468034 S    
C143  H98   1.110552 S    
C155  H127  1.110846 S    
C46   C52   1.434000 A    
O30   C15   1.285452 A    
C169  H158  1.110955 S    
C189  H205  1.113205 S    
C192  C193  1.527864 S    
C106  C111  1.409826 A    
C164  H147  1.110489 S    
C122  H47   1.107829 S    
C8    C89   1.457677 S    
C194  H216  1.109675 S    
C27   C117  1.517275 S    
C78   O62   1.387629 S    
Zn8   O50   1.942238 S    
Zn2   O2    1.942481 S    
C158  H132  1.111027 S    
Zn15  O31   1.936631 S    
C148  H109  1.111687 S    
Zn16  O32   1.936630 S    
C118  H36   1.108457 S    
C196  H221  1.109620 S    
C103  C110  1.404827 A    
C142  H95   1.107542 S    
C143  H97   1.110887 S    
C70   O54   1.384070 S    
Zn8   O4    1.947659 S    
C68   C76   1.398839 A    
C53   C77   1.400293 A    
O20   C16   1.278183 A    
C188  H204  1.110049 S    
C168  H157  1.108635 S    
C83   C99   1.407347 A    
C149  H112  1.109363 S    
C84   C100  1.406460 A    
C119  H43   1.106098 S    
C58   H14   1.078330 S    
C179  H182  1.110723 S    
C134  H78   1.108035 S    
Zn3   O10   1.940061 S    
C42   C43   1.397647 A    
C155  H125  1.110961 S    
C45   C48   1.405127 A    
C175  H172  1.111252 S    
C151  H117  1.110489 S    
C75   C91   1.408947 A    
Zn14  O35   1.937942 S    
C76   C92   1.411846 A    
C167  H155  1.107370 S    
C30   C47   1.429564 A    
C182  H190  1.109513 S    
C12   C93   1.459626 S    
C108  O76   1.387361 S    
C106  C107  1.399379 A    
C130  H67   1.110796 S    
C126  H57   1.108175 S    
C37   C40   1.392258 A    
C180  C181  1.532620 S    
Zn6   O52   1.944841 S    
C173  H168  1.109135 S    
C78   C94   1.412209 A    
C4    C85   1.454985 S    
Zn1   O47   1.944841 S    
O51   C23   1.279835 A    
C130  C131  1.526100 S    
O45   C21   1.274173 A    
C138  C139  1.525431 S    
O22   C7    1.283300 A    
C160  H138  1.108784 S    
C174  C175  1.530763 S    
C56   H12   1.083866 S    
C57   H13   1.080144 S    
C188  H202  1.110838 S    
C147  H108  1.108777 S    
C186  C187  1.534130 S    
C5    C92   1.457334 S    
C129  H66   1.118761 S    
C6    C91   1.456185 S    
C197  H225  1.110282 S    
C79   O63   1.396868 S    
C124  H51   1.110944 S    
C59   C83   1.386817 A    
C162  H143  1.115738 S    
C13   C100  1.459125 S    
C197  H223  1.110811 S    
H6    C40   1.082543 S    
O67   C171  1.417181 S    
C175  C176  1.526679 S    
C169  C170  1.527378 S    
C67   C100  1.403087 A    
Zn9   O21   1.934872 S    
C132  H72   1.111505 S    
C117  H39   1.108039 S    
Zn11  O23   1.936631 S    
C148  H110  1.110919 S    
C31   C39   1.405732 A    
Zn12  O40   1.945045 S    
C25   C113  1.524061 S    
O25   C4    1.283576 A    
C125  H59   1.112998 S    
Zn9   O1    1.958327 S    
C150  H115  1.116139 S    
C71   O55   1.382173 S    
C119  C120  1.531455 S    
O27   C2    1.284406 A    
C136  H81   1.110470 S    
Zn2   O8    1.942648 S    
Zn3   O5    1.941895 S    
O29   C16   1.282238 A    
C58   C89   1.398204 A    
C128  H60   1.110927 S    
C200  H230  1.110794 S    
C142  C143  1.526290 S    
C65   H21   1.080644 S    
Zn9   O28   1.937943 S    
Zn10  O27   1.937942 S    
C29   C121  1.527378 S    
O31   C14   1.283614 A    
C131  H70   1.110068 S    
C125  C126  1.531462 S    
O15   C11   1.277762 A    
C156  H128  1.103611 S    
Zn7   O3    1.947661 S    
C79   C95   1.413971 A    
C146  H106  1.107679 S    
C73   C89   1.410959 A    
C145  H102  1.110603 S    
C181  H187  1.110947 S    
C46   C47   1.405877 A    
C77   C93   1.412255 A    
C190  H208  1.111928 S    
C184  C185  1.525943 S    
C83   O67   1.383368 S    
C114  H27   1.110459 S    
C178  H179  1.111009 S    
C164  H146  1.110774 S    
C115  H34   1.111521 S    
C80   C96   1.408907 A    
C108  C111  1.412614 A    
O46   C22   1.281012 A    
C81   C97   1.408672 A    
C193  H214  1.111987 S    
O10   C6    1.279609 A    
C137  H84   1.110395 S    
Zn8   O17   1.940060 S    
C20   C111  1.462278 S    
C144  H100  1.111319 S    
Zn10  O38   1.944516 S    
C200  H232  1.110455 S    
C177  H178  1.118937 S    
C26   C34   1.403086 A    
C56   C87   1.400147 A    
O14   C10   1.277576 A    
C57   C90   1.397322 A    
C120  H42   1.106676 S    
Zn9   O37   1.944516 S    
C176  H174  1.110901 S    
Zn12  O2    1.957280 S    
C184  H194  1.111397 S    
C42   C50   1.419875 A    
C152  H118  1.110416 S    
O17   C13   1.280628 A    
O36   C9    1.282188 A    
Zn5   O15   1.942650 S    
C102  O70   1.389753 S    
