data_mof_unit_43928.cif
_audit_creation_date              2012-12-11T15:34:29-0500
_audit_creation_method            fapswitch 2.2
_symmetry_space_group_name_H-M    P1
_symmetry_Int_Tables_number       1
_space_group_crystal_system       triclinic
_cell_length_a                    15.054828
_cell_length_b                    15.061381
_cell_length_c                    34.954426
_cell_angle_alpha                 90.547629
_cell_angle_beta                  90.048944
_cell_angle_gamma                 60.057896
_cell_volume                      6867.55580535

loop_
_atom_site_label
_atom_site_type_symbol
_atom_type_description
_atom_site_fract_x
_atom_site_fract_y
_atom_site_fract_z
_atom_type_partial_charge
C1    C     C_R   0.303297 0.607847 0.555956 0.541180
C2    C     C_R   0.238415 0.708740 0.386309 -0.174728
C3    C     C_R   0.761455 0.115079 0.269633 -0.063720
C4    C     C_R   0.766719 0.109613 0.229793 -0.029745
C5    C     C_R   0.680141 0.173659 0.207807 0.061400
C6    C     C_R   0.731589 0.206912 0.350985 -0.108558
C7    C     C_R   0.712328 0.235074 0.389508 -0.110673
C8    C     C_R   0.559230 0.220256 0.386829 -0.102061
C9    C     C_R   0.736026 0.578713 0.649205 -0.112645
C10   C     C_R   0.578215 0.192791 0.348333 -0.081900
C11   C     C_R   0.661852 0.190547 0.329819 0.033085
C12   C     C_R   0.623230 0.246793 0.407225 0.013491
C13   C     C_R   0.212537 0.712420 0.348005 -0.118641
C14   C     C_R   0.078431 0.711815 0.095108 -0.022561
C15   C     C_R   0.103029 0.615761 0.109622 -0.130032
C16   C     C_R   0.133699 0.592051 0.147465 -0.157693
C17   C     C_R   0.139708 0.664039 0.171314 -0.005257
C18   C     C_R   0.118403 0.759881 0.156677 0.211672
C19   C     C_R   0.089930 0.781777 0.118399 -0.103425
C20   C     C_R   0.250080 0.629615 0.228102 -0.040209
C21   C     C_R   0.191052 0.639047 0.332674 -0.037639
C22   C     C_R   0.562805 0.723161 0.650428 -0.104339
C23   C     C_R   0.244724 0.630484 0.409704 0.023731
C24   C     C_R   0.735276 0.026742 0.943682 0.552539
C25   C     C_R   0.745519 0.722653 0.945177 0.576071
C26   C     C_R   0.038845 0.733590 0.948539 0.548491
C27   C     C_R   0.723358 0.037998 0.053071 0.543220
C28   C     C_R   0.733856 0.734889 0.054946 0.546979
C29   C     C_R   0.653606 0.656928 0.669816 0.036503
C30   C     C_R   0.026758 0.745251 0.058065 0.547813
C31   C     C_R   0.551597 0.705981 0.611926 -0.118836
C32   C     C_R   0.667184 0.669085 0.789253 0.400137
C33   C     C_R   0.659672 0.663860 0.711722 0.338405
C34   C     C_R   0.760734 0.597665 0.850099 -0.156894
C35   C     C_R   0.779180 0.609879 0.888246 -0.195766
C36   C     C_R   0.621205 0.773304 0.890709 0.411993
C37   C     C_R   0.602686 0.761075 0.852419 0.427518
C38   C     C_R   0.675009 0.675158 0.831223 -0.011187
C39   C     C_R   0.610650 0.588325 0.555276 0.546905
C40   C     C_R   0.261007 0.626068 0.267618 -0.081263
C41   C     C_R   0.712342 0.699940 0.908423 -0.031953
C42   C     C_R   0.717612 0.082884 0.907624 -0.025245
C43   C     C_R   0.619722 0.130698 0.891022 -0.083006
C44   C     C_R   0.605208 0.166416 0.853500 0.260352
C45   C     C_R   0.690520 0.153987 0.832301 0.051876
C46   C     C_R   0.786644 0.113068 0.849785 -0.056108
C47   C     C_R   0.800176 0.078050 0.887254 -0.103659
C48   C     C_R   0.683899 0.253374 0.773667 0.254440
C49   C     C_R   0.678586 0.261489 0.733741 -0.086609
C50   C     C_R   0.674432 0.186354 0.710777 -0.023977
C51   C     C_R   0.182512 0.632527 0.291190 0.032184
C52   C     C_R   0.590643 0.299891 0.553551 0.565762
C53   C     C_R   0.675855 0.102333 0.728229 -0.088333
C54   C     C_R   0.680588 0.093834 0.767822 -0.045302
C55   C     C_R   0.684508 0.168633 0.790734 0.042004
C56   C     C_R   0.599110 0.174458 0.648298 -0.078662
C57   C     C_R   0.580786 0.196407 0.609248 0.254801
C58   C     C_R   0.699707 0.261577 0.610733 -0.165557
C59   C     C_R   0.718863 0.237112 0.649174 -0.132308
C60   C     C_R   0.665187 0.197947 0.668765 -0.017450
C61   C     C_R   0.626651 0.247079 0.590663 0.003985
C62   C     C_R   0.095556 0.636555 0.274909 -0.080370
C63   C     C_R   0.095419 0.694710 0.912205 0.021440
C64   C     C_R   0.299517 0.610535 0.446262 0.565779
C65   C     C_R   0.141229 0.745860 0.894886 -0.092136
C66   C     C_R   0.170698 0.727229 0.856519 -0.041322
C67   C     C_R   0.153536 0.658329 0.835021 0.056429
C68   C     C_R   0.117492 0.599785 0.853070 -0.067229
C69   C     C_R   0.088787 0.617629 0.891529 -0.098538
C70   C     C_R   0.240654 0.566723 0.775491 -0.135167
C71   C     C_R   0.251271 0.561000 0.735812 -0.105660
C72   C     C_R   0.183728 0.643864 0.713144 -0.016804
C73   C     C_R   0.084175 0.641171 0.235283 -0.097603
C74   C     C_R   0.104488 0.731853 0.730706 -0.086325
C75   C     C_R   0.092429 0.738320 0.770500 0.274640
C76   C     C_R   0.608276 0.590298 0.445456 0.574694
C77   C     C_R   0.162606 0.655256 0.793147 0.000522
C78   C     C_R   0.194853 0.724081 0.652517 -0.109164
C79   C     C_R   0.221538 0.716427 0.613948 -0.116403
C80   C     C_R   0.249239 0.543523 0.611687 -0.112497
C81   C     C_R   0.223042 0.551067 0.650305 -0.105625
C82   C     C_R   0.198705 0.640242 0.671308 0.031791
C83   C     C_R   0.252408 0.624792 0.593501 0.017423
C84   C     C_R   0.159960 0.641187 0.211966 0.047182
C85   C     C_R   0.695273 0.722030 0.092035 -0.037167
C86   C     C_R   0.619770 0.808348 0.111965 -0.141125
C87   C     C_R   0.600539 0.801435 0.150519 -0.167506
C88   C     C_R   0.588341 0.301870 0.444039 0.543605
C89   C     C_R   0.655358 0.707967 0.169626 0.031930
C90   C     C_R   0.725393 0.619838 0.149040 0.390929
C91   C     C_R   0.745162 0.627060 0.110540 -0.075867
C92   C     C_R   0.629404 0.630527 0.228277 -0.050522
C93   C     C_R   0.628159 0.623421 0.267907 -0.137396
C94   C     C_R   0.644254 0.690021 0.291426 0.057318
C95   C     C_R   0.186866 0.567278 0.356619 -0.071592
C96   C     C_R   0.660768 0.765767 0.274906 0.299225
C97   C     C_R   0.660963 0.772776 0.234934 -0.097203
C98   C     C_R   0.646498 0.704710 0.211520 0.013001
C99   C     C_R   0.553020 0.738922 0.354000 0.397014
C100  C     C_R   0.630972 0.622189 0.592245 0.025172
C101  C     C_R   0.545401 0.714615 0.391801 -0.155936
C102  C     C_R   0.718967 0.570246 0.388380 0.368034
C103  C     C_R   0.726316 0.594998 0.350574 -0.124809
C104  C     C_R   0.642672 0.677550 0.332982 -0.008401
C105  C     C_R   0.626608 0.627703 0.408966 -0.039760
C106  C     C_R   0.213913 0.562527 0.395041 0.387021
C107  C     C_R   0.701590 0.095791 0.089297 -0.039532
C108  C     C_R   0.776290 0.113669 0.105969 -0.077112
C109  C     C_R   0.766820 0.145633 0.144058 0.399384
C110  C     C_R   0.682445 0.159707 0.165980 0.026916
C111  C     C_R   0.603742 0.150285 0.148327 -0.178992
C112  C     C_R   0.724816 0.561512 0.610764 -0.123156
C113  C     C_R   0.612995 0.119002 0.110267 -0.145204
C114  C     C_R   0.588649 0.243889 0.226245 -0.109509
C115  C     C_R   0.583109 0.248546 0.265991 -0.107295
C116  C     C_R   0.669099 0.183474 0.287913 0.038752
Cr1   Cr    Cr6+3 0.421670 0.426920 0.499620 1.149188
Cr2   Cr    Cr6+3 0.427030 0.651190 0.500980 1.033638
Cr3   Cr    Cr6+3 0.651280 0.421870 0.499380 1.070087
Cr4   Cr    Cr6+3 0.910810 0.908010 0.001130 1.047573
Cr5   Cr    Cr6+3 0.682800 0.909890 0.998370 1.097220
Cr6   Cr    Cr6+3 0.908370 0.682300 0.002180 1.036998
F1    F     F_    0.470488 0.817856 0.337121 -0.580685
F2    F     F_    0.780705 0.528567 0.166845 -0.614462
F3    F     F_    0.800153 0.486878 0.403844 -0.588205
F4    F     F_    0.841728 0.159147 0.159827 -0.583273
F5    F     F_    0.215763 0.487879 0.417070 -0.598445
F6    F     F_    0.552378 0.859769 0.909621 -0.566366
F7    F     F_    0.516842 0.836468 0.835808 -0.544904
H1    H     H_    0.787711 0.496897 0.596234 0.143701
H2    H     H_    0.738181 0.297931 0.597432 0.150963
H3    H     H_    0.148329 0.804797 0.910238 0.148217
H4    H     H_    0.054100 0.576695 0.904108 0.137709
H5    H     H_    0.224773 0.486085 0.664060 0.136033
H6    H     H_    0.313806 0.492720 0.722893 0.146418
H7    H     H_    0.294098 0.502436 0.792563 0.185774
H8    H     H_    0.200795 0.771151 0.842959 0.166243
H9    H     H_    0.051565 0.795172 0.713177 0.142425
H10   H     H_    0.176670 0.793609 0.668143 0.120541
H11   H     H_    0.849247 0.551257 0.901161 0.169911
H12   H     H_    0.876494 0.041320 0.899320 0.162243
H13   H     H_    0.223352 0.780285 0.600762 0.139075
H14   H     H_    0.104999 0.545482 0.836762 0.140379
H15   H     H_    0.272480 0.471907 0.596712 0.175617
H16   H     H_    0.580335 0.882747 0.098557 0.151891
H17   H     H_    0.803759 0.559428 0.095850 0.165237
H18   H     H_    0.795749 0.547029 0.334389 0.171718
H19   H     H_    0.614956 0.565388 0.280389 0.120774
H20   H     H_    0.617407 0.577898 0.210664 0.170308
H21   H     H_    0.545763 0.869960 0.165872 0.144926
H22   H     H_    0.807649 0.527392 0.663163 0.147341
H23   H     H_    0.773093 0.252528 0.663943 0.132877
H24   H     H_    0.675249 0.829400 0.221869 0.145202
H25   H     H_    0.473334 0.760359 0.406758 0.170842
H26   H     H_    0.844754 0.097646 0.090234 0.164771
H27   H     H_    0.554012 0.106183 0.098186 0.152318
H28   H     H_    0.524668 0.178492 0.332469 0.157359
H29   H     H_    0.511726 0.303441 0.279685 0.110557
H30   H     H_    0.521163 0.294292 0.209873 0.111592
H31   H     H_    0.498401 0.785068 0.665400 0.151072
H32   H     H_    0.828472 0.064372 0.286166 0.147471
H33   H     H_    0.837395 0.053086 0.216192 0.175759
H34   H     H_    0.675825 0.327533 0.720537 0.155189
H35   H     H_    0.796728 0.205218 0.337103 0.137117
H36   H     H_    0.763386 0.254382 0.404593 0.165337
H37   H     H_    0.538079 0.160495 0.164633 0.132111
H38   H     H_    0.490629 0.227410 0.399811 0.171706
H39   H     H_    0.094597 0.560570 0.092209 0.148455
H40   H     H_    0.070537 0.856246 0.107409 0.179869
H41   H     H_    0.214132 0.769510 0.329833 0.179218
H42   H     H_    0.816593 0.529386 0.834932 0.197099
H43   H     H_    0.329553 0.620825 0.279907 0.118422
H44   H     H_    0.309582 0.627973 0.210198 0.141122
H45   H     H_    0.674339 0.042570 0.711273 0.150295
H46   H     H_    0.149345 0.518761 0.158612 0.138224
H47   H     H_    0.034796 0.640969 0.292843 0.153487
H48   H     H_    0.014260 0.649971 0.222900 0.131069
H49   H     H_    0.169068 0.511013 0.345039 0.149488
H50   H     H_    0.260881 0.762596 0.396739 0.165650
H51   H     H_    0.555345 0.135652 0.906673 0.168656
H52   H     H_    0.542849 0.421225 0.830604 0.372430
H53   H     H_    0.381006 0.211641 0.875964 0.365713
H54   H     H_    0.452848 0.046962 0.594814 0.374248
H55   H     H_    0.923081 0.965331 0.746529 0.347958
H56   H     H_    0.682053 0.028006 0.780760 0.190016
H57   H     H_    0.737448 0.801412 0.361177 0.364043
H58   H     H_    0.994017 0.874651 0.221911 0.328706
H59   H     H_    0.558491 0.142536 0.663099 0.172667
H60   H     H_    0.852521 0.102795 0.833607 0.195394
H61   H     H_    0.478492 0.754421 0.598343 0.138544
N1    N     N_R   0.747668 0.596584 0.768710 -0.189537
N2    N     N_R   0.743848 0.593757 0.730760 -0.206250
N3    N     N_R   0.579016 0.736323 0.732209 -0.209539
N4    N     N_R   0.582926 0.739149 0.770198 -0.102953
O1    O     O_R   0.502070 0.323090 0.541280 -0.429696
O2    O     O_R   0.831550 0.656950 0.958960 -0.527321
O3    O     O_R   0.998590 0.685540 0.963930 -0.503051
O4    O     O_R   0.338340 0.520690 0.539540 -0.493656
O5    O     O_R   0.008220 0.831200 0.045060 -0.512170
O6    O     O_R   0.813270 0.997930 0.038810 -0.503696
O7    O     O_R   0.657500 0.016560 0.039940 -0.515369
O8    O     O_R   0.685680 0.820940 0.038120 -0.497228
O9    O     O_R   0.822130 0.666070 0.043610 -0.514092
O10   O     O_R   0.989860 0.694000 0.042400 -0.498584
O11   O     O_3   0.833990 0.833400 0.000560 -0.260201
O12   O     O_R   0.520720 0.641670 0.461580 -0.519542
O13   O     O_R   0.324760 0.674070 0.543580 -0.517234
O14   O     O_R   0.522400 0.640310 0.540110 -0.501363
O15   O     O_R   0.675940 0.500630 0.542210 -0.515324
O16   O     O_R   0.641790 0.337020 0.538150 -0.520440
O17   O     O_R   0.500260 0.324550 0.456580 -0.482559
O18   O     O_R   0.336660 0.522040 0.461020 -0.430239
O19   O     O_R   0.322940 0.675540 0.458880 -0.530273
O20   O     O_2   0.797569 0.310932 0.813932 -0.248294
O21   O     O_2   0.655240 0.444831 0.777931 -0.282636
O22   O     O_3   0.613730 0.379676 0.840253 -0.483888
O23   O     O_R   0.674120 0.502090 0.457500 -0.425479
O24   O     O_2   0.462678 0.302539 0.805650 -0.284481
O25   O     O_2   0.472998 0.136286 0.812168 -0.244080
O26   O     O_3   0.391201 0.268798 0.867874 -0.505616
O27   O     O_2   0.393821 0.248190 0.583659 -0.276920
O28   O     O_2   0.540456 0.121513 0.545611 -0.252832
O29   O     O_3   0.499210 0.063178 0.609603 -0.529220
O30   O     O_2   0.935238 0.821245 0.820619 -0.253616
O31   O     O_2   0.025445 0.915626 0.808724 -0.317023
O32   O     O_3   0.901884 0.917246 0.756414 -0.538075
O33   O     O_2   0.721136 0.906807 0.278885 -0.287482
O34   O     O_R   0.640110 0.338380 0.459630 -0.503594
O35   O     O_2   0.586271 0.926407 0.322900 -0.232615
O36   O     O_3   0.773910 0.782784 0.336262 -0.517818
O37   O     O_2   0.227333 0.831036 0.192606 -0.238216
O38   O     O_2   0.062318 0.959286 0.166575 -0.221412
O39   O     O_3   0.062263 0.865250 0.228332 -0.486077
O40   O     O_3   0.499990 0.499990 0.499990 -0.278734
O41   O     O_R   0.017640 0.822070 0.960410 -0.508087
O42   O     O_R   0.822000 0.989470 0.960340 -0.498827
O43   O     O_R   0.666920 0.007430 0.955290 -0.485550
O44   O     O_R   0.694410 0.812480 0.959650 -0.424591
S1    S     S_3+6 0.689032 0.349969 0.801255 0.021752
S2    S     S_3+6 0.481284 0.219252 0.833290 0.026587
S3    S     S_3+6 0.500989 0.158405 0.585476 0.027301
S4    S     S_3+6 0.987469 0.849967 0.790565 -0.012670
S5    S     S_3+6 0.684149 0.849977 0.303267 0.027686
S6    S     S_3+6 0.118439 0.857026 0.185861 0.031094

loop_
_geom_bond_atom_site_label_1
_geom_bond_atom_site_label_2
_ccdc_geom_bond_type
C26   O41   A    
O25   S2    D    
C48   C55   A    
C70   H7    S    
C63   C65   A    
H53   O26   S    
C93   C94   A    
C22   C29   A    
C5    C114  A    
C24   C42   S    
C1    O4    A    
C67   C77   S    
H55   O32   S    
C26   C63   S    
C102  F3    S    
C78   H10   S    
C65   H3    S    
C97   C98   A    
C85   C91   A    
C92   C98   A    
C81   H5    S    
O27   S3    D    
C53   C54   A    
C108  C109  A    
C52   O1    A    
C31   H61   S    
C76   C105  S    
C102  C105  A    
C33   N2    A    
Cr1   O1    S    
Cr4   O11   S    
C25   O44   A    
C36   C37   A    
Cr2   O12   S    
Cr5   O8    S    
C18   C19   A    
C52   C61   S    
Cr4   O41   S    
O33   S5    D    
C20   C40   A    
Cr5   O43   S    
O32   S4    S    
C79   H13   S    
C5    C110  S    
C115  C116  A    
C20   H44   S    
C29   C33   S    
Cr4   O5    S    
C56   C57   A    
C39   O15   A    
C93   H19   S    
C34   C35   A    
Cr6   O10   S    
C57   C61   A    
C2    C13   A    
C26   O3    A    
Cr2   O40   S    
C110  C111  A    
C107  C113  A    
C57   S3    S    
O36   S5    S    
O39   S6    S    
O37   S6    D    
C54   C55   A    
C63   C69   A    
C16   C17   A    
C80   H15   S    
C87   H21   S    
Cr3   O34   S    
C107  C108  A    
C62   C73   A    
C70   C71   A    
C95   H49   S    
Cr5   O11   S    
H52   O22   S    
C58   C61   A    
C103  C104  A    
C76   O23   A    
C73   C84   A    
N3    N4    A    
C9    C29   A    
C73   H48   S    
C9    C112  A    
C30   O5    A    
C7    H36   S    
C94   C104  S    
C59   C60   A    
C34   C38   A    
C39   O14   A    
C70   C77   A    
C52   O16   A    
C28   O9    A    
Cr6   O11   S    
C36   C41   A    
C36   F6    S    
C51   C62   A    
C14   C30   S    
C80   C83   A    
C1    O13   A    
C44   S2    S    
C99   C104  A    
O28   S3    D    
C76   O12   A    
C53   H45   S    
C81   C82   A    
C66   C67   A    
H54   O29   S    
C101  C105  A    
C7    C12   A    
C13   H41   S    
C43   H51   S    
Cr3   O15   S    
C50   C53   A    
C22   C31   A    
C12   C88   S    
C115  H29   S    
C103  H18   S    
N1    N2    A    
C56   H59   S    
C64   O19   A    
Cr1   O17   S    
Cr1   O40   S    
C72   C74   A    
C74   C75   A    
C25   C41   S    
C6    C11   A    
C3    H32   S    
C78   C79   A    
C68   C69   A    
C21   C95   A    
C108  H26   S    
C58   C59   A    
C85   C86   A    
C23   C106  A    
C106  F5    S    
C54   H56   S    
C15   C16   A    
C56   C60   A    
C32   N1    A    
Cr6   O9    S    
Cr2   O14   S    
C43   C44   A    
C96   S5    S    
C37   C38   A    
C24   O42   A    
C95   C106  A    
C35   H11   S    
C74   H9    S    
C78   C82   A    
Cr3   O40   S    
C8    H38   S    
C27   C107  S    
C58   H2    S    
C8    C12   A    
C62   H47   S    
C96   C97   A    
C2    C23   A    
C40   H43   S    
C27   O7    A    
C17   C18   A    
C13   C21   A    
C111  C113  A    
C111  H37   S    
C31   C100  A    
C67   C68   A    
C94   C96   A    
C11   C116  S    
C75   C77   A    
C10   H28   S    
C45   C55   S    
H58   O39   S    
C25   O2    A    
C16   H46   S    
C32   N4    A    
C48   C49   A    
C99   C101  A    
C6    H35   S    
C65   C66   A    
C97   H24   S    
C87   C89   A    
C4    H33   S    
C15   H39   S    
C92   H20   S    
O21   S1    D    
C42   C43   A    
C113  H27   S    
C3    C4    A    
C86   H16   S    
C21   C51   S    
C48   S1    S    
C44   C45   A    
C86   C87   A    
Cr1   O4    S    
C99   F1    S    
C18   S6    S    
C46   C47   A    
C9    H22   S    
Cr3   O16   S    
C69   H4    S    
O38   S6    D    
O22   S1    S    
C90   F2    S    
C14   C19   A    
Cr1   O18   S    
C64   O18   A    
C27   O6    A    
C19   H40   S    
Cr6   O2    S    
C80   C81   A    
C88   O17   A    
C114  C115  A    
C6    C7    A    
H57   O36   S    
C1    C83   S    
C40   C51   A    
C30   O10   A    
C47   H12   S    
C32   C38   S    
C59   H23   S    
C89   C98   S    
C3    C116  A    
C17   C84   S    
C28   O8    A    
C20   C84   A    
Cr2   O13   S    
O31   S4    D    
C23   C64   S    
C50   C60   S    
C71   C72   A    
C68   H14   S    
C75   S4    S    
C109  C110  A    
Cr4   O42   S    
C71   H6    S    
Cr5   O7    S    
O30   S4    D    
C90   C91   A    
C88   O34   A    
C66   H8    S    
C22   H31   S    
C101  H25   S    
O29   S3    S    
O35   S5    D    
O24   S2    D    
C92   C93   A    
Cr4   O6    S    
C37   F7    S    
O20   S1    D    
Cr2   O19   S    
C42   C47   A    
Cr6   O3    S    
C102  C103  A    
C35   C41   A    
C114  H30   S    
C49   H34   S    
C10   C11   A    
C34   H42   S    
C33   N3    A    
C79   C83   A    
C45   C46   A    
C109  F4    S    
C4    C5    A    
C39   C100  S    
C8    C10   A    
C49   C50   A    
C2    H50   S    
C28   C85   S    
Cr3   O23   S    
C14   C15   A    
O26   S2    S    
C46   H60   S    
C100  C112  A    
C112  H1    S    
C89   C90   A    
C91   H17   S    
C72   C82   S    
C24   O43   A    
Cr5   O44   S    
