data_mof_unit_57567.cif
_audit_creation_date              2012-12-10T19:48:40-0500
_audit_creation_method            fapswitch 2.2
_symmetry_space_group_name_H-M    P1
_symmetry_Int_Tables_number       1
_space_group_crystal_system       triclinic
_cell_length_a                    13.175206
_cell_length_b                    14.164434
_cell_length_c                    14.952736
_cell_angle_alpha                 89.284005
_cell_angle_beta                  89.359219
_cell_angle_gamma                 70.342491
_cell_volume                      2627.56449796

loop_
_atom_site_label
_atom_site_type_symbol
_atom_type_description
_atom_site_fract_x
_atom_site_fract_y
_atom_site_fract_z
_atom_type_partial_charge
C1    C     C_R   0.501835 0.498817 0.672114 0.844706
C2    C     C_R   0.978419 0.458910 0.519074 0.054992
C3    C     C_R   0.878863 0.473744 0.477540 0.040251
C4    C     C_R   0.024314 0.535361 0.511038 0.013760
C5    C     C_R   0.964012 0.630814 0.475162 -0.045074
C6    C     C_R   0.875372 0.637475 0.420452 0.359356
C7    C     C_R   0.838007 0.555543 0.416606 -0.086913
C8    C     C_R   0.132264 0.516172 0.529630 -0.217854
C9    C     C_R   0.114897 0.688440 0.500351 -0.206671
C10   C     C_R   0.821687 0.408440 0.500795 -0.045343
C11   C     C_R   0.546239 0.416953 0.910468 -0.248994
C12   C     C_R   0.704237 0.444557 0.497862 0.906482
C13   C     C_R   0.562581 0.416558 0.818458 -0.014876
C14   C     C_R   0.496264 0.498434 0.767886 -0.182775
C15   C     C_R   0.417296 0.578928 0.808573 -0.300421
C16   C     C_R   0.401454 0.578360 0.900140 0.567275
C17   C     C_R   0.467662 0.497726 0.950594 -0.032701
C18   C     C_R   0.513095 0.568624 0.085293 0.436932
C19   C     C_R   0.517675 0.573795 0.178102 0.348359
C20   C     C_R   0.486447 0.505175 0.230845 -0.242250
C21   C     C_R   0.440431 0.439960 0.191521 -0.240462
C22   C     C_R   0.428646 0.438962 0.099357 -0.059685
C23   C     C_R   0.498138 0.501181 0.327264 0.997553
C24   C     C_R   0.466417 0.503338 0.046766 -0.117467
C25   C     C_R   0.585420 0.868938 0.536128 -0.389484
C26   C     C_R   0.583136 0.770073 0.538511 0.541523
C27   C     C_R   0.415042 0.821921 0.461935 0.544061
C28   C     C_R   0.413382 0.923461 0.464265 -0.405260
C29   C     C_R   0.500120 0.946937 0.499163 0.015986
C30   C     C_R   0.580916 0.081085 0.449685 -0.084197
C31   C     C_R   0.577881 0.182031 0.452917 0.037756
C32   C     C_R   0.422635 0.226774 0.545322 0.011175
C33   C     C_R   0.421723 0.127822 0.544360 -0.257314
C34   C     C_R   0.296156 0.555123 0.505251 0.878515
C35   C     C_R   0.501420 0.052922 0.497169 0.083062
C36   C     C_R   0.004717 0.711379 0.483369 -0.016284
C37   C     C_R   0.179528 0.588729 0.513388 -0.103755
C38   C     C_R   0.873291 0.318136 0.546294 -0.195556
C39   C     C_R   0.976564 0.298091 0.578712 -0.129312
C40   C     C_R   0.026954 0.369506 0.569214 -0.170564
H1    H     H_    0.150889 0.746792 0.500084 0.219406
H2    H     H_    0.366820 0.641511 0.769078 0.167057
H3    H     H_    0.412859 0.390062 0.233111 0.226335
H4    H     H_    0.654001 0.884646 0.563006 0.160272
H5    H     H_    0.346592 0.984794 0.437988 0.157210
H6    H     H_    0.637344 0.205129 0.416784 0.180762
H7    H     H_    0.361185 0.283188 0.582562 0.124736
H8    H     H_    0.359520 0.109498 0.581280 0.154225
H9    H     H_    0.183795 0.441300 0.546269 0.152899
H10   H     H_    0.830811 0.266689 0.563068 0.168580
H11   H     H_    0.101520 0.354362 0.604897 0.122993
H12   H     H_    0.014498 0.230273 0.617138 0.155414
H13   H     H_    0.597994 0.357133 0.952009 0.203265
N1    N     N_R   0.500000 0.747530 0.500020 -0.160801
N2    N     N_R   0.499940 0.252470 0.500020 -0.115140
O1    O     O_R   0.499990 0.420530 0.630930 -0.630081
O2    O     O_R   0.499990 0.579480 0.630940 -0.611452
O3    O     O_R   0.653620 0.381060 0.499970 -0.633118
O4    O     O_R   0.653620 0.540010 0.499980 -0.565638
O5    O     O_R   0.500010 0.420520 0.369060 -0.624621
O6    O     O_R   0.500010 0.579470 0.369070 -0.573064
O7    O     O_R   0.346380 0.459990 0.500020 -0.633010
O8    O     O_R   0.346380 0.618940 0.500030 -0.567200
Zn1   Zn    Zn3+2 0.500000 0.393860 0.499990 0.952896
Zn2   Zn    Zn3+2 0.500000 0.606140 0.500010 1.020722
C41   C     C_2   0.652480 0.334151 0.777383 0.420646
H14   H     H_    0.677385 0.339912 0.708749 0.060188
O9    O     O_2   0.701026 0.258833 0.820279 -0.565378
O10   O     O_3   0.328261 0.660589 0.941065 -0.588805
C42   C     C_3   0.228854 0.643927 0.949679 0.064088
H15   H     H_    0.238234 0.571330 0.984260 0.125510
H16   H     H_    0.192616 0.644432 0.882655 0.141429
C43   C     C_3   0.151953 0.727305 0.005299 -0.780421
H17   H     H_    0.138957 0.801028 0.972193 0.264625
H18   H     H_    0.073222 0.715208 0.012447 0.200563
H19   H     H_    0.186008 0.727704 0.072890 0.248009
O11   O     O_3   0.549767 0.631163 0.031840 -0.589874
C44   C     C_3   0.662469 0.587950 0.020579 0.131414
H20   H     H_    0.682316 0.520119 0.978093 0.144781
H21   H     H_    0.704882 0.567085 0.085725 0.174980
C45   C     C_3   0.704365 0.663781 0.974217 -0.820783
H22   H     H_    0.690359 0.730193 0.017530 0.260657
H23   H     H_    0.792163 0.629477 0.960862 0.201642
H24   H     H_    0.661842 0.688362 0.909872 0.259334
O12   O     O_3   0.566266 0.636163 0.215857 -0.615158
C46   C     C_3   0.493714 0.735528 0.215147 0.118193
H25   H     H_    0.425366 0.741281 0.260706 0.174462
H26   H     H_    0.462165 0.761152 0.147098 0.188092
C47   C     C_3   0.550988 0.805434 0.247935 -0.821830
H27   H     H_    0.620472 0.800211 0.203293 0.258787
H28   H     H_    0.494662 0.883963 0.247446 0.209192
H29   H     H_    0.580281 0.784855 0.317192 0.253260
C48   C     C_2   0.377543 0.370739 0.058925 0.427553
H30   H     H_    0.364222 0.371995 0.987407 0.058861
O13   O     O_2   0.349053 0.312353 0.105166 -0.560291
O14   O     O_3   0.670504 0.693871 0.571848 -0.591696
C49   C     C_3   0.673934 0.700977 0.665679 0.102618
H31   H     H_    0.594196 0.709867 0.697272 0.154472
H32   H     H_    0.699859 0.765057 0.684551 0.132813
C50   C     C_3   0.755857 0.604958 0.701997 -0.797491
H33   H     H_    0.836293 0.593683 0.671471 0.253579
H34   H     H_    0.762000 0.609573 0.775610 0.203810
H35   H     H_    0.730715 0.539683 0.686155 0.243088
O15   O     O_3   0.332888 0.793596 0.424415 -0.591469
C51   C     C_3   0.263969 0.866458 0.366376 0.062397
H36   H     H_    0.310762 0.897150 0.318710 0.130439
H37   H     H_    0.207250 0.928226 0.405943 0.182294
C52   C     C_3   0.197579 0.819238 0.310716 -0.801489
H38   H     H_    0.135708 0.802905 0.352587 0.272486
H39   H     H_    0.155687 0.872062 0.256728 0.221655
H40   H     H_    0.249677 0.748394 0.279940 0.232166
O16   O     O_3   0.832532 0.719029 0.363530 -0.659291
C53   C     C_3   0.897523 0.706096 0.285464 0.030950
H41   H     H_    0.879873 0.652233 0.239908 0.151470
H42   H     H_    0.985487 0.678354 0.300331 0.152854
C54   C     C_3   0.872390 0.806238 0.236899 -0.749467
H43   H     H_    0.919462 0.795934 0.173521 0.200784
H44   H     H_    0.785239 0.837619 0.221274 0.256186
H45   H     H_    0.894501 0.859950 0.279380 0.290569
C55   C     C_2   0.664298 0.007917 0.394152 0.370816
H46   H     H_    0.662092 0.932991 0.383934 0.110084
O17   O     O_2   0.736622 0.030739 0.358305 -0.550931
C56   C     C_2   0.934075 0.817821 0.476016 0.452458
H47   H     H_    0.847160 0.837213 0.477496 0.116823
O18   O     O_2   0.971948 0.885431 0.470617 -0.577199
C57   C     C_2   0.765737 0.552687 0.342114 0.435498
H48   H     H_    0.719140 0.621672 0.309339 0.164851
O19   O     O_2   0.761968 0.473404 0.313897 -0.591036

loop_
_geom_bond_atom_site_label_1
_geom_bond_atom_site_label_2
_ccdc_geom_bond_type
C41   O9    D    
O8    Zn2   S    
C48   H30   S    
C34   C37   S    
C43   H17   S    
C19   C20   A    
C4    C8    A    
C49   C50   S    
C45   H22   S    
C27   N1    A    
C56   H47   S    
N1    Zn2   S    
O11   C44   S    
C54   H43   S    
C51   H37   S    
C57   H48   S    
C30   C35   A    
C18   C24   A    
C28   C29   A    
C1    O1    A    
C3    C7    A    
C30   C31   A    
C33   C35   A    
C44   H21   S    
C56   O18   D    
C15   C16   A    
C5    C36   A    
C27   O15   S    
C34   O7    A    
C52   H38   S    
C18   C19   A    
O16   C53   S    
O7    Zn1   S    
C45   H23   S    
C21   H3    S    
C12   O4    A    
C54   H44   S    
C16   C17   A    
C31   H6    S    
C9    C36   A    
O1    Zn1   S    
C2    C40   A    
C42   H15   S    
C47   H28   S    
C32   N2    A    
C11   H13   S    
C53   C54   S    
C12   O3    A    
C39   H12   S    
C48   O13   D    
C21   C22   A    
O14   C49   S    
C25   C29   A    
C43   H18   S    
C26   N1    A    
C25   H4    S    
C50   H34   S    
O15   C51   S    
C49   H32   S    
C55   O17   D    
C49   H31   S    
C13   C41   S    
C26   O14   S    
C23   O5    A    
C51   C52   S    
C34   O8    A    
C28   H5    S    
C17   C24   S    
C32   H7    S    
C36   C56   S    
C38   C39   A    
C39   C40   A    
C44   H20   S    
O3    Zn1   S    
C25   C26   A    
O12   C46   S    
C50   H35   S    
C2    C4    A    
C1    O2    A    
C20   C23   S    
N2    Zn1   S    
C42   C43   S    
C9    C37   A    
C47   H29   S    
C10   C12   S    
C43   H19   S    
C22   C24   A    
C8    C37   A    
C45   H24   S    
C55   H46   S    
C53   H41   S    
C11   C17   A    
C57   O19   D    
C46   H25   S    
C6    O16   S    
C16   O10   S    
C15   H2    S    
O2    Zn2   S    
C4    C5    A    
C19   O12   S    
C46   C47   S    
C54   H45   S    
C6    C7    A    
C38   H10   S    
C40   H11   S    
C51   H36   S    
C29   C35   S    
C9    H1    S    
C52   H40   S    
C10   C38   A    
O5    Zn1   S    
C32   C33   A    
C2    C3    A    
C3    C10   A    
O4    Zn2   S    
C11   C13   A    
C44   C45   S    
C5    C6    A    
C30   C55   S    
C18   O11   S    
C50   H33   S    
C22   C48   S    
C52   H39   S    
C41   H14   S    
C46   H26   S    
C7    C57   S    
O10   C42   S    
O6    Zn2   S    
C23   O6    A    
C20   C21   A    
C27   C28   A    
C33   H8    S    
C14   C15   A    
C42   H16   S    
C1    C14   S    
C31   N2    A    
C47   H27   S    
C13   C14   A    
C8    H9    S    
C53   H42   S    
