data_mof_unit_50104.cif
_audit_creation_date              2012-12-10T21:42:32-0500
_audit_creation_method            fapswitch 2.2
_symmetry_space_group_name_H-M    P1
_symmetry_Int_Tables_number       1
_space_group_crystal_system       triclinic
_cell_length_a                    10.751141
_cell_length_b                    16.08147
_cell_length_c                    16.906751
_cell_angle_alpha                 87.142849
_cell_angle_beta                  89.79366
_cell_angle_gamma                 93.00503
_cell_volume                      2915.37371654

loop_
_atom_site_label
_atom_site_type_symbol
_atom_type_description
_atom_site_fract_x
_atom_site_fract_y
_atom_site_fract_z
_atom_type_partial_charge
C1    C     C_R   0.498596 0.488438 0.652592 0.865036
C2    C     C_R   0.501152 0.511550 0.347411 0.865735
C3    C     C_R   0.127271 0.498216 0.503946 -0.090525
C4    C     C_R   0.872728 0.501796 0.495933 -0.090295
C5    C     C_R   0.054248 0.424728 0.524236 0.029442
C6    C     C_R   0.945744 0.575289 0.475602 0.029438
C7    C     C_R   0.493752 0.480225 0.737737 -0.015024
C8    C     C_R   0.503070 0.519553 0.262237 -0.013812
C9    C     C_R   0.435623 0.540534 0.779139 -0.230979
C10   C     C_R   0.559987 0.459227 0.220206 -0.221587
C11   C     C_R   0.433750 0.535063 0.860863 -0.138539
C12   C     C_R   0.557331 0.463640 0.138520 -0.137115
C13   C     C_R   0.492147 0.469485 0.901880 0.331489
C14   C     C_R   0.495515 0.528122 0.098186 0.307248
C15   C     C_R   0.546087 0.407724 0.860153 -0.143306
C16   C     C_R   0.442515 0.589860 0.140435 -0.185565
C17   C     C_R   0.547646 0.413184 0.778007 -0.130916
C18   C     C_R   0.445701 0.585552 0.222566 -0.114211
C19   C     C_R   0.447437 0.763576 0.458308 0.017820
C20   C     C_R   0.552333 0.236412 0.541815 0.029761
C21   C     C_R   0.451388 0.850563 0.461027 -0.267829
C22   C     C_R   0.548416 0.149427 0.539084 -0.264465
C23   C     C_R   0.740195 0.500741 0.497504 0.875571
C24   C     C_R   0.259803 0.499263 0.502467 0.875782
C25   C     C_R   0.526148 0.890912 0.517646 0.256223
C26   C     C_R   0.473997 0.109097 0.482285 0.255787
C27   C     C_R   0.596694 0.841251 0.570446 0.000343
C28   C     C_R   0.403763 0.158775 0.429314 -0.000577
C29   C     C_R   0.588976 0.753494 0.564715 -0.004210
C30   C     C_R   0.411378 0.246526 0.435096 -0.004621
C31   C     C_R   0.786454 0.740092 0.349866 0.526045
C32   C     C_R   0.211567 0.259372 0.650463 0.529098
C33   C     C_R   0.830841 0.663076 0.376199 -0.205864
C34   C     C_R   0.167691 0.336563 0.624052 -0.219237
C35   C     C_R   0.894843 0.655716 0.448300 0.072850
C36   C     C_R   0.105100 0.344283 0.551472 0.079068
C37   C     C_R   0.914894 0.726172 0.493346 -0.166892
C38   C     C_R   0.086064 0.274109 0.505944 -0.166941
C39   C     C_R   0.870024 0.802656 0.467276 -0.231529
C40   C     C_R   0.130505 0.197514 0.532040 -0.236221
C41   C     C_R   0.805364 0.809573 0.395997 -0.194341
C42   C     C_R   0.193682 0.190201 0.603835 -0.183921
C43   C     C_R   0.072953 0.572384 0.480442 -0.247955
C44   C     C_R   0.927054 0.427627 0.519408 -0.249180
H1    H     H_    0.770831 0.869183 0.376472 0.176414
H2    H     H_    0.227768 0.130477 0.623420 0.175835
H3    H     H_    0.593296 0.366525 0.746040 0.162520
H4    H     H_    0.400818 0.632173 0.255033 0.173822
H5    H     H_    0.609820 0.266914 0.585300 0.149039
H6    H     H_    0.389726 0.733063 0.414942 0.149389
H7    H     H_    0.603495 0.114371 0.581116 0.167807
H8    H     H_    0.396059 0.885607 0.419132 0.170344
H9    H     H_    0.641341 0.713334 0.603596 0.138230
H10   H     H_    0.359226 0.286696 0.396097 0.138581
H11   H     H_    0.816470 0.609096 0.340851 0.167566
H12   H     H_    0.181101 0.390347 0.659763 0.157415
H13   H     H_    0.964997 0.721685 0.548732 0.141198
H14   H     H_    0.036988 0.278890 0.450198 0.141329
H15   H     H_    0.885490 0.856674 0.502343 0.162772
H16   H     H_    0.115765 0.143695 0.496627 0.162973
H17   H     H_    0.129815 0.628223 0.463420 0.168000
H18   H     H_    0.870213 0.371773 0.536413 0.167374
H19   H     H_    0.606163 0.408633 0.250583 0.157840
H20   H     H_    0.391864 0.591864 0.748266 0.159170
H21   H     H_    0.602197 0.416191 0.107184 0.153889
H22   H     H_    0.388443 0.582666 0.891724 0.153228
H23   H     H_    0.590183 0.356853 0.891445 0.139091
H24   H     H_    0.396079 0.640014 0.109635 0.156294
N1    N     N_2   0.501989 0.465084 0.984848 -0.197279
N2    N     N_2   0.483733 0.532279 0.015326 -0.201329
N3    N     N_R   0.515300 0.716920 0.509720 -0.112287
N4    N     N_R   0.484700 0.283080 0.490280 -0.112279
N5    N     N_2   0.533329 0.980039 0.523671 -0.187697
N6    N     N_2   0.466829 0.019972 0.476257 -0.187063
O1    O     O_R   0.494530 0.422540 0.612660 -0.598020
O2    O     O_R   0.505470 0.577460 0.387340 -0.599919
O3    O     O_R   0.504350 0.561840 0.618900 -0.634676
O4    O     O_R   0.495650 0.438160 0.381100 -0.634992
O5    O     O_R   0.678330 0.430350 0.496870 -0.633242
O6    O     O_R   0.321670 0.569650 0.503130 -0.633135
O7    O     O_R   0.688150 0.569660 0.503110 -0.614746
O8    O     O_R   0.311850 0.430340 0.496890 -0.613652
Zn1   Zn    Zn3+2 0.493440 0.406980 0.495830 0.957893
Zn2   Zn    Zn3+2 0.506560 0.593020 0.504170 0.956440
C45   C     C_3   0.678133 0.884284 0.631267 -0.413674
C46   C     C_3   0.753159 0.826571 0.685855 -0.393834
C47   C     C_3   0.832668 0.876542 0.743227 -0.815028
H25   H     H_    0.900014 0.920133 0.710087 0.260114
H26   H     H_    0.772702 0.912590 0.781061 0.268741
H27   H     H_    0.885548 0.833361 0.781962 0.254219
H28   H     H_    0.688586 0.782579 0.720841 0.230254
H29   H     H_    0.815936 0.790502 0.649908 0.222557
H30   H     H_    0.744470 0.929458 0.599028 0.208136
H31   H     H_    0.617307 0.920261 0.668738 0.222920
C48   C     C_3   0.322794 0.115772 0.368239 -0.412770
C49   C     C_3   0.248154 0.173512 0.313438 -0.395050
C50   C     C_3   0.169137 0.123576 0.255789 -0.808425
H32   H     H_    0.229430 0.087575 0.218121 0.270284
H33   H     H_    0.101570 0.079945 0.288697 0.259521
H34   H     H_    0.116525 0.166776 0.216910 0.254838
H35   H     H_    0.185067 0.209539 0.349206 0.222371
H36   H     H_    0.312966 0.217541 0.278673 0.231350
H37   H     H_    0.383918 0.079824 0.330937 0.224819
H38   H     H_    0.256245 0.070573 0.400265 0.208195
S1    S     S_3+6 0.709316 0.750654 0.258720 0.000661
O9    O     O_2   0.573334 0.760647 0.274037 -0.330370
O10   O     O_2   0.762716 0.827021 0.213169 -0.298593
O11   O     O_3   0.727001 0.666201 0.205790 -0.574603
H39   H     H_    0.693228 0.681026 0.152816 0.388377
S2    S     S_3+6 0.286552 0.247770 0.742316 0.002458
O12   O     O_2   0.278480 0.325210 0.787901 -0.310333
O13   O     O_2   0.225416 0.174824 0.789198 -0.296295
O14   O     O_3   0.436597 0.228961 0.726215 -0.593571
H40   H     H_    0.471714 0.218170 0.779605 0.377516

loop_
_geom_bond_atom_site_label_1
_geom_bond_atom_site_label_2
_ccdc_geom_bond_type
C33   H11   S    
C38   C40   A    
C47   H25   S    
C34   H12   S    
C40   H16   S    
C49   H36   S    
C27   C29   A    
C9    H20   S    
C1    O3    A    
N5    N6    D    
C19   N3    A    
C10   H19   S    
O6    Zn2   S    
O2    Zn2   S    
C50   H32   S    
C39   C41   A    
C45   C46   S    
O11   H39   S    
S1    O10   D    
C3    C43   A    
C32   S2    S    
C28   C48   S    
C35   C37   A    
N3    Zn2   S    
C46   H28   S    
C5    C36   S    
C6    C35   S    
C7    C9    A    
C42   H2    S    
C27   C45   S    
C24   O8    A    
S2    O12   D    
C33   C35   A    
C38   H14   S    
C45   H30   S    
O4    Zn1   S    
C24   O6    A    
C48   C49   S    
C7    C17   A    
C31   C33   A    
C16   H24   S    
C23   O7    A    
C34   C36   A    
C11   H22   S    
C40   C42   A    
C39   H15   S    
C49   H35   S    
C31   S1    S    
C3    C24   S    
C14   N2    S    
C50   H33   S    
C48   H37   S    
S1    O11   S    
C1    O1    A    
C4    C6    A    
C4    C23   S    
C46   C47   S    
C4    C44   A    
O3    Zn2   S    
C44   H18   S    
C8    C18   A    
C29   H9    S    
C32   C34   A    
C20   H5    S    
C2    O4    A    
C30   H10   S    
C45   H31   S    
C15   H23   S    
C49   C50   S    
C9    C11   A    
S2    O14   S    
C10   C12   A    
C8    C10   A    
C5    C44   A    
C12   C14   A    
C6    C43   A    
C13   C15   A    
C14   C16   A    
O7    Zn2   S    
C2    O2    A    
C48   H38   S    
C43   H17   S    
O14   H40   S    
C12   H21   S    
C15   C17   A    
C21   C25   A    
C32   C42   A    
C50   H34   S    
C31   C41   A    
C19   C21   A    
C1    C7    S    
C2    C8    S    
C17   H3    S    
C20   C22   A    
C3    C5    A    
C18   H4    S    
C30   N4    A    
C25   C27   A    
S1    O9    D    
C26   C28   A    
C28   C30   A    
C37   C39   A    
C46   H29   S    
O5    Zn1   S    
C11   C13   A    
C19   H6    S    
O1    Zn1   S    
C13   N1    S    
C36   C38   A    
C26   N6    S    
C25   N5    S    
N1    N2    D    
S2    O13   D    
N4    Zn1   S    
C16   C18   A    
O8    Zn1   S    
C22   C26   A    
C47   H27   S    
C47   H26   S    
C41   H1    S    
C20   N4    A    
C23   O5    A    
C21   H8    S    
C37   H13   S    
C22   H7    S    
C29   N3    A    
