data_mof_unit_22045.cif
_audit_creation_date              2013-03-05T15:48:01-0500
_audit_creation_method            fapswitch 2.2
_symmetry_space_group_name_H-M    P1
_symmetry_Int_Tables_number       1
_space_group_crystal_system       triclinic
_cell_length_a                    10.236131
_cell_length_b                    10.541286
_cell_length_c                    10.60227
_cell_angle_alpha                 91.217129
_cell_angle_beta                  95.735544
_cell_angle_gamma                 82.235283
_cell_volume                      1127.80743628

loop_
_atom_site_label
_atom_site_type_symbol
_atom_site_description
_atom_site_fract_x
_atom_site_fract_y
_atom_site_fract_z
_atom_type_partial_charge
O1    O     O_R   0.568940 0.489500 0.307530 -0.609681
O2    O     O_R   0.431060 0.510500 0.692470 -0.603580
O3    O     O_R   0.348880 0.522990 0.340350 -0.534510
O4    O     O_R   0.651120 0.477010 0.659650 -0.554952
C1    C     C_R   0.444017 0.513370 0.266181 0.817622
C2    C     C_R   0.556260 0.496777 0.733678 0.829979
O5    O     O_R   0.610000 0.297210 0.483560 -0.567410
O6    O     O_R   0.390000 0.702790 0.516440 -0.567787
O7    O     O_R   0.389940 0.330700 0.516390 -0.577033
O8    O     O_R   0.610060 0.669300 0.483610 -0.578325
C3    C     C_R   0.500747 0.258328 0.506599 0.975759
C4    C     C_R   0.499500 0.741464 0.493855 0.940304
Zn1   Zn    Zn3+2 0.646930 0.477640 0.478080 1.163978
Zn2   Zn    Zn3+2 0.353070 0.522360 0.521920 1.171528
C5    C     C_3   0.490551 0.048711 0.381833 -0.342797
C6    C     C_3   0.510748 0.950142 0.618923 -0.337941
C7    C     C_3   0.388511 0.975144 0.436137 0.242969
C8    C     C_3   0.612752 0.023719 0.564604 0.239660
C9    C     C_3   0.500710 0.875377 0.492073 -0.259723
C10   C     C_3   0.500315 0.123875 0.508894 -0.272203
C11   C     C_3   0.602812 0.948375 0.440385 0.256089
C12   C     C_3   0.398265 0.050342 0.560537 0.260663
H1    H     H_    0.407650 0.632040 0.885644 0.224709
H2    H     H_    0.600219 0.599035 0.121896 0.245531
C13   C     C_2   0.413097 0.537034 0.130763 0.128293
C14   C     C_2   0.590454 0.514975 0.868505 0.143000
C15   C     C_2   0.508377 0.578690 0.070020 -0.184901
C16   C     C_2   0.500107 0.585550 0.933550 -0.189560
N1    N     N_2   0.157310 0.552180 0.551120 -0.056745
N2    N     N_2   0.842690 0.447820 0.448880 -0.053666
C17   C     C_2   0.075027 0.473968 0.506183 0.294649
C18   C     C_2   0.931650 0.493158 0.527817 0.293749
N3    N     N_R   0.265791 0.951528 0.362389 0.271582
O9    O     O_R   0.180903 0.048003 0.320653 -0.201065
O10   O     O_R   0.249631 0.836981 0.321605 -0.302597
N4    N     N_R   0.736763 0.045223 0.637133 0.268802
O11   O     O_R   0.821508 0.947662 0.676729 -0.203823
O12   O     O_R   0.758681 0.159966 0.672109 -0.275039
H3    H     H_    0.482484 0.090268 0.285537 0.229146
H4    H     H_    0.518867 0.908307 0.715115 0.220076
N5    N     N_R   0.713016 0.892247 0.371507 0.266234
O13   O     O_R   0.826157 0.936183 0.390008 -0.197047
O14   O     O_R   0.691073 0.817554 0.274697 -0.328821
N6    N     N_R   0.287841 0.103022 0.630628 0.267375
O15   O     O_R   0.188493 0.038620 0.634167 -0.200677
O16   O     O_R   0.304657 0.191792 0.715478 -0.297305
N7    N     N_R   0.715927 0.455853 0.927851 0.248508
O17   O     O_R   0.766095 0.342946 0.890584 -0.227904
O18   O     O_R   0.789900 0.522676 0.002157 -0.222078
N8    N     N_R   0.288073 0.511490 0.066695 0.244088
O19   O     O_R   0.180091 0.536619 0.122833 -0.193642
O20   O     O_R   0.283344 0.451298 0.958212 -0.280677
N9    N     N_R   0.897079 0.542765 0.648762 0.213216
O21   O     O_R   0.964360 0.495064 0.751464 -0.242197
O22   O     O_R   0.822434 0.652227 0.655530 -0.296423
N10   N     N_R   0.123835 0.356146 0.446371 0.211411
O23   O     O_R   0.079165 0.251779 0.475119 -0.271402
O24   O     O_R   0.177882 0.358811 0.340856 -0.269382
N11   N     N_R   0.869393 0.430023 0.322910 0.304372
O25   O     O_R   0.818201 0.340914 0.256066 -0.235467
O26   O     O_R   0.917203 0.518304 0.264511 -0.250250
N12   N     N_R   0.105998 0.675105 0.587316 0.310148
O27   O     O_R   0.169632 0.731831 0.679459 -0.257537
O28   O     O_R   0.018211 0.744232 0.511144 -0.239293

loop_
_geom_bond_atom_site_label_1
_geom_bond_atom_site_label_2
_geom_bond_distance
_ccdc_geom_bond_type
N8    O20   1.301525 A    
O7    Zn2   2.005246 S    
N12   O27   1.299794 A    
C17   N10   1.434049 S    
C13   C15   1.346131 D    
C8    C11   1.525205 S    
N5    O14   1.300492 A    
N5    O13   1.299961 A    
C18   N9    1.433582 S    
C14   C16   1.343162 D    
C7    C12   1.525951 S    
H2    C15   1.085548 S    
O5    Zn1   1.991758 S    
O6    C4    1.288849 A    
C6    C12   1.543124 S    
N2    N11   1.393598 S    
N4    O12   1.299415 A    
N3    O9    1.299442 A    
N11   O25   1.299863 A    
N1    C17   1.306468 D    
C2    C14   1.452302 S    
N9    O21   1.300998 A    
N10   O23   1.300151 A    
O5    C3    1.288806 A    
O7    C3    1.290589 A    
N3    O10   1.299925 A    
C5    H3    1.110610 S    
O2    C2    1.301883 A    
O3    Zn2   1.921375 S    
C7    N3    1.459876 S    
C14   N7    1.439690 S    
C6    H4    1.110737 S    
C6    C9    1.545851 S    
C1    C13   1.458362 S    
O8    C4    1.288277 A    
C4    C9    1.413887 S    
N7    O18   1.300579 A    
N4    O11   1.300329 A    
C9    C11   1.527883 S    
N10   O24   1.299066 A    
N8    O19   1.300703 A    
C8    C10   1.533110 S    
N9    O22   1.299845 A    
C5    C10   1.549733 S    
O2    Zn2   1.901761 S    
O1    C1    1.302436 A    
C3    C10   1.418644 S    
N11   O26   1.302680 A    
O4    C2    1.301140 A    
O1    Zn1   1.901761 S    
C10   C12   1.530674 S    
Zn2   N1    2.039515 S    
N2    C18   1.306260 D    
Zn1   N2    2.039515 S    
C5    C11   1.543186 S    
N6    O15   1.300655 A    
N1    N12   1.391933 S    
C6    C8    1.543180 S    
C11   N5    1.456650 S    
C15   C16   1.443671 S    
C5    C7    1.543327 S    
C13   N8    1.443357 S    
N12   O28   1.301418 A    
O6    Zn2   1.991760 S    
C7    C9    1.529938 S    
H1    C16   1.087661 S    
C8    N4    1.459218 S    
C17   C18   1.494164 S    
C12   N6    1.455666 S    
N7    O17   1.300692 A    
O4    Zn1   1.921375 S    
N6    O16   1.300523 A    
O3    C1    1.303834 A    
O8    Zn1   2.005248 S    
