data_mof_unit_16689.cif
_audit_creation_date              2012-12-10T17:19:03-0500
_audit_creation_method            fapswitch 2.2
_symmetry_space_group_name_H-M    P1
_symmetry_Int_Tables_number       1
_space_group_crystal_system       triclinic
_cell_length_a                    10.367557
_cell_length_b                    10.830798
_cell_length_c                    13.364973
_cell_angle_alpha                 93.174622
_cell_angle_beta                  100.061623
_cell_angle_gamma                 96.671944
_cell_volume                      1463.24949002

loop_
_atom_site_label
_atom_site_type_symbol
_atom_type_description
_atom_site_fract_x
_atom_site_fract_y
_atom_site_fract_z
_atom_type_partial_charge
C1    C     C_R   0.054249 0.732033 0.494807 0.811393
C2    C     C_2   0.000030 0.062745 0.485192 -0.250093
C3    C     C_2   0.432186 0.508884 0.511686 0.255285
C4    C     C_2   0.567814 0.491117 0.488312 0.255285
C5    C     C_R   0.091789 0.510165 0.686294 0.876143
C6    C     C_R   0.908210 0.489836 0.313707 0.876135
C7    C     C_R   0.140095 0.517954 0.795941 -0.132904
C8    C     C_R   0.859904 0.482047 0.204059 -0.132900
C9    C     C_R   0.151216 0.618452 0.964584 0.118689
C10   C     C_R   0.848780 0.381546 0.035417 0.118689
C11   C     C_R   0.089562 0.596210 0.862095 -0.291781
C12   C     C_R   0.945748 0.267967 0.505191 0.811435
C13   C     C_R   0.910436 0.403790 0.137906 -0.291785
C14   C     C_R   0.248106 0.456556 0.833504 0.018106
C15   C     C_R   0.751891 0.543444 0.166497 0.018106
C16   C     C_R   0.329754 0.503610 0.925916 0.060641
C17   C     C_R   0.670242 0.496389 0.074086 0.060642
C18   C     C_R   0.274836 0.575853 0.995870 0.108189
C19   C     C_R   0.725159 0.424145 0.004132 0.108189
C20   C     C_R   0.463899 0.481768 0.950365 0.083459
C21   C     C_R   0.536098 0.518231 0.049638 0.083460
C22   C     C_3   0.702125 0.044596 0.490810 -0.273875
C23   C     C_R   0.469680 0.568615 0.123034 -0.204940
C24   C     C_3   0.297858 0.955410 0.509278 -0.273764
C25   C     C_3   0.756019 0.672945 0.683030 -0.102671
C26   C     C_3   0.243982 0.327060 0.316967 -0.102651
C27   C     C_R   0.530316 0.431386 0.876968 -0.204939
C28   C     C_R   0.344045 0.602378 0.095583 -0.234833
C29   C     C_R   0.655951 0.397621 0.904418 -0.234832
C30   C     C_2   0.085752 0.864337 0.487861 0.317221
C31   C     C_2   0.914232 0.135664 0.512124 0.317223
C32   C     C_2   0.999930 0.937250 0.514762 -0.250043
H1    H     H_    0.301322 0.648503 0.153472 0.175335
H2    H     H_    0.718511 0.658997 0.284431 0.209252
H3    H     H_    0.281493 0.341007 0.715570 0.209246
H4    H     H_    0.170766 0.278316 0.783633 0.191522
H5    H     H_    0.008111 0.722552 0.996945 0.185854
H6    H     H_    0.064458 0.631945 0.087713 0.188772
H7    H     H_    0.991890 0.277451 0.003056 0.185854
H8    H     H_    0.935530 0.368048 0.912284 0.188772
H9    H     H_    0.721419 0.964271 0.442377 0.173300
H10   H     H_    0.665809 0.118097 0.442290 0.151476
H11   H     H_    0.622497 0.010232 0.531805 0.192588
H12   H     H_    0.698673 0.351496 0.846530 0.175333
H13   H     H_    0.334023 0.881954 0.557920 0.151344
H14   H     H_    0.278559 0.035846 0.557587 0.173376
H15   H     H_    0.377598 0.989610 0.468334 0.192540
H16   H     H_    0.595027 0.446179 0.344308 0.188649
H17   H     H_    0.641749 0.340458 0.431132 0.216771
H18   H     H_    0.404962 0.553825 0.655687 0.188653
H19   H     H_    0.358269 0.659558 0.568861 0.216784
H20   H     H_    0.854405 0.715480 0.672037 0.173791
H21   H     H_    0.761179 0.582744 0.718890 0.136643
H22   H     H_    0.722282 0.737696 0.737333 0.135607
H23   H     H_    0.997252 0.360295 0.165863 0.143976
H24   H     H_    0.238819 0.417263 0.281110 0.136639
H25   H     H_    0.145597 0.284522 0.327959 0.173779
H26   H     H_    0.277721 0.262313 0.262662 0.135611
H27   H     H_    0.002746 0.639706 0.834137 0.143976
H28   H     H_    0.512598 0.582352 0.202828 0.162800
H29   H     H_    0.487399 0.417652 0.797173 0.162796
H30   H     H_    0.075839 0.098500 0.443591 0.203292
H31   H     H_    0.924099 0.901488 0.556341 0.203329
H32   H     H_    0.829227 0.721688 0.216357 0.191515
N1    N     N_2   0.322180 0.446120 0.460900 0.055508
N2    N     N_2   0.677820 0.553880 0.539100 0.055510
N3    N     N_3   0.739366 0.664617 0.211165 -0.465107
N4    N     N_3   0.260631 0.335384 0.788834 -0.465104
N5    N     N_3   0.094037 0.691284 0.034570 -0.454350
N6    N     N_3   0.905958 0.308712 0.965431 -0.454344
N7    N     N_3   0.573614 0.400701 0.407296 -0.424146
N8    N     N_3   0.426388 0.599300 0.592702 -0.424148
O1    O     O_R   0.935190 0.693030 0.507870 -0.626158
O2    O     O_3   0.185129 0.907462 0.436562 -0.597855
O3    O     O_3   0.665248 0.660982 0.590845 -0.547309
O4    O     O_3   0.334753 0.339020 0.409152 -0.547302
O5    O     O_R   0.064810 0.306970 0.492130 -0.626145
O6    O     O_R   0.142080 0.658430 0.482770 -0.604349
O7    O     O_R   0.857920 0.341570 0.517230 -0.604376
O8    O     O_R   0.969700 0.527180 0.651960 -0.626748
O9    O     O_R   0.030300 0.472820 0.348040 -0.626755
O10   O     O_R   0.176600 0.492580 0.626860 -0.635670
O11   O     O_R   0.823400 0.507420 0.373140 -0.635671
O12   O     O_3   0.814904 0.092548 0.563475 -0.597863
Zn1   Zn    Zn3+2 0.861850 0.523100 0.516760 0.938462
Zn2   Zn    Zn3+2 0.138150 0.476900 0.483240 0.938468

loop_
_geom_bond_atom_site_label_1
_geom_bond_atom_site_label_2
_ccdc_geom_bond_type
C4    N2    D    
C8    C13   A    
H5    N5    S    
C27   C29   A    
N2    Zn1   S    
N1    Zn2   S    
C7    C11   A    
N1    O4    S    
H8    N6    S    
C24   H13   S    
C9    N5    S    
C30   O2    S    
C22   H9    S    
C12   O7    A    
C2    C32   S    
H18   N8    S    
C27   H29   S    
C7    C14   A    
C26   O4    S    
O9    Zn2   S    
O6    Zn2   S    
H6    N5    S    
C6    O9    A    
C1    O6    A    
C3    N1    D    
C11   H27   S    
C23   H28   S    
H32   N3    S    
C18   C28   A    
C25   H22   S    
C5    C7    S    
C6    C8    S    
O10   Zn2   S    
C17   C21   A    
C31   O12   S    
C2    C31   D    
C25   O3    S    
C22   O12   S    
O8    Zn1   S    
C9    C11   A    
C22   H11   S    
C10   C19   A    
C16   C20   A    
C15   N3    S    
C12   O5    A    
C23   C28   A    
C5    O8    A    
C26   H26   S    
O1    Zn1   S    
C10   N6    S    
O11   Zn1   S    
O5    Zn2   S    
C8    C15   A    
C21   C23   A    
C12   C31   S    
C14   C16   A    
H19   N8    S    
H16   N7    S    
C3    C4    S    
C19   C29   A    
O7    Zn1   S    
C15   C17   A    
C6    O11   A    
C24   H15   S    
C32   H31   S    
C25   H21   S    
C10   C13   A    
C26   H24   S    
H2    N3    S    
C28   H1    S    
H4    N4    S    
C20   C27   A    
C1    O1    A    
C3    N8    S    
C25   H20   S    
C24   H14   S    
C29   H12   S    
C30   C32   D    
C5    O10   A    
C24   O2    S    
C22   H10   S    
H3    N4    S    
N2    O3    S    
C1    C30   S    
C17   C19   A    
H7    N6    S    
C26   H25   S    
C9    C18   A    
C20   C21   A    
C16   C18   A    
H17   N7    S    
C14   N4    S    
C4    N7    S    
C2    H30   S    
C13   H23   S    
