data_mof_unit_54641.cif
_audit_creation_date              2012-12-11T17:45:24-0500
_audit_creation_method            fapswitch 2.2
_symmetry_space_group_name_H-M    P1
_symmetry_Int_Tables_number       1
_space_group_crystal_system       triclinic
_cell_length_a                    14.983867
_cell_length_b                    14.910295
_cell_length_c                    15.102381
_cell_angle_alpha                 110.246879
_cell_angle_beta                  109.171148
_cell_angle_gamma                 109.130929
_cell_volume                      2592.78527059

loop_
_atom_site_label
_atom_site_type_symbol
_atom_type_description
_atom_site_fract_x
_atom_site_fract_y
_atom_site_fract_z
_atom_type_partial_charge
C1    C     C_R   0.973565 0.248794 0.062256 -0.124256
C2    C     C_R   0.705608 0.193484 0.794836 -0.135508
C3    C     C_R   0.776659 0.591928 0.025583 -0.143904
C4    C     C_R   0.315212 0.759951 0.225190 -0.132121
C5    C     C_R   0.941371 0.409418 0.685439 -0.136901
C6    C     C_R   0.674420 0.499260 0.949758 -0.008711
C7    C     C_R   0.958804 0.504131 0.678949 0.041625
C8    C     C_R   0.705032 0.127580 0.703197 0.067038
C9    C     C_R   0.064766 0.870757 0.074988 0.068341
C10   C     C_R   0.612247 0.266970 0.094365 -0.118436
C11   C     C_R   0.691956 0.354898 0.199257 -0.153330
C12   C     C_R   0.324612 0.789972 0.327913 0.052464
C13   C     C_R   0.741190 0.334926 0.281746 0.117869
C14   C     C_R   0.701941 0.225362 0.259195 -0.161386
C15   C     C_R   0.618010 0.137895 0.155318 -0.118924
C16   C     C_R   0.208163 0.408340 0.902718 -0.146579
C17   C     C_R   0.574266 0.158733 0.072589 -0.090972
C18   C     C_R   0.848448 0.431041 0.484240 -0.250931
C19   C     C_R   0.942832 0.513719 0.583930 0.075702
C20   C     C_R   0.026406 0.599449 0.589889 0.015026
C21   C     C_R   0.015328 0.596907 0.495569 -0.249928
C22   C     C_R   0.926934 0.509228 0.395092 0.066214
C23   C     C_R   0.299765 0.499688 0.931299 -0.009652
C24   C     C_R   0.839094 0.427017 0.387736 0.025291
C25   C     C_R   0.156037 0.790811 0.751095 -0.203904
C26   C     C_R   0.258179 0.869592 0.843656 -0.111335
C27   C     C_R   0.340416 0.843025 0.871472 -0.105458
C28   C     C_R   0.996818 0.592467 0.298940 -0.165924
C29   C     C_R   0.320936 0.738004 0.806881 -0.121693
C30   C     C_R   0.218107 0.657788 0.716071 -0.128819
C31   C     C_R   0.134588 0.683481 0.688224 0.120233
C32   C     C_R   0.253515 0.041383 0.534589 -0.128909
C33   C     C_R   0.330186 0.013407 0.520962 -0.127344
C34   C     C_R   0.941619 0.502035 0.303671 0.060529
C35   C     C_R   0.340819 0.930531 0.539630 0.108009
C36   C     C_R   0.275460 0.877510 0.574145 -0.183963
C37   C     C_R   0.194724 0.901616 0.581562 -0.117662
C38   C     C_R   0.184404 0.984070 0.562783 -0.119974
C39   C     C_R   0.526338 0.973008 0.627962 -0.228678
C40   C     C_R   0.299570 0.591339 0.995386 -0.137778
C41   C     C_R   0.622441 0.010259 0.623717 0.049864
C42   C     C_R   0.622786 0.946956 0.529192 0.031065
C43   C     C_R   0.523070 0.865458 0.435116 -0.245428
C44   C     C_R   0.425326 0.853126 0.433197 0.068978
C45   C     C_R   0.686054 0.407255 0.933336 -0.140873
C46   C     C_R   0.427826 0.908115 0.532365 0.016599
C47   C     C_R   0.739621 0.006929 0.452776 -0.204189
C48   C     C_R   0.843556 0.055066 0.465496 -0.115640
C49   C     C_R   0.931055 0.063141 0.545726 -0.111913
C50   C     C_R   0.914437 0.021724 0.612368 -0.138443
C51   C     C_R   0.811391 0.975955 0.601941 -0.146357
C52   C     C_R   0.911657 0.409187 0.211646 -0.135971
C53   C     C_R   0.723970 0.971089 0.523985 0.122149
C54   C     C_3   0.470393 0.387291 0.840910 -0.401620
C55   C     C_3   0.366636 0.389127 0.833703 -0.416239
C56   C     C_R   0.022815 0.593259 0.782419 -0.107145
C57   C     C_3   0.574033 0.519169 0.044711 -0.401240
C58   C     C_3   0.563988 0.591551 0.915175 -0.396295
C59   C     C_3   0.572570 0.499154 0.936332 0.399460
C60   C     C_3   0.396577 0.499760 0.927536 0.405994
C61   C     C_3   0.470612 0.518198 0.038975 -0.389854
C62   C     C_3   0.459955 0.592715 0.911252 -0.410986
C63   C     C_R   0.178047 0.058223 0.811512 -0.136567
C64   C     C_R   0.220451 0.752075 0.313323 -0.121897
C65   C     C_R   0.136263 0.057181 0.881175 -0.192336
C66   C     C_R   0.200022 0.138413 0.991985 0.113657
C67   C     C_R   0.793317 0.195110 0.701660 -0.145337
C68   C     C_R   0.305437 0.221007 0.032253 -0.148868
C69   C     C_R   0.346587 0.221336 0.961736 -0.140884
C70   C     C_R   0.283799 0.139203 0.851854 -0.111624
C71   C     C_R   0.171265 0.043732 0.088244 -0.230545
C72   C     C_R   0.100970 0.989284 0.117035 0.056329
C73   C     C_R   0.052892 0.043925 0.164761 0.024261
C74   C     C_R   0.061441 0.138490 0.162178 -0.240285
C75   C     C_R   0.098128 0.167043 0.096416 0.060632
C76   C     C_R   0.067718 0.251884 0.973618 -0.141371
C77   C     C_R   0.161806 0.124215 0.066342 0.026748
C78   C     C_R   0.000958 0.802374 0.097426 -0.144767
C79   C     C_R   0.865734 0.949728 0.135385 -0.151389
C80   C     C_R   0.794247 0.896691 0.164207 -0.157847
C81   C     C_R   0.835008 0.889491 0.257402 -0.100850
C82   C     C_R   0.947549 0.941190 0.325468 -0.119266
C83   C     C_R   0.019642 0.998829 0.299682 -0.188258
C84   C     C_R   0.978798 0.998262 0.201485 0.117274
C85   C     C_R   0.051635 0.223180 0.047962 0.057505
C86   C     C_R   0.094827 0.807440 0.010584 -0.149974
H1    H     H_    0.045505 0.677872 0.807977 0.115568
H2    H     H_    0.379882 0.775818 0.205722 0.089897
H3    H     H_    0.738627 0.207163 0.320603 0.105483
H4    H     H_    0.589131 0.053850 0.138228 0.099206
H5    H     H_    0.784128 0.367816 0.481778 0.129003
H6    H     H_    0.083779 0.658178 0.500823 0.130272
H7    H     H_    0.092530 0.811937 0.730216 0.112664
H8    H     H_    0.273815 0.951076 0.894226 0.136816
H9    H     H_    0.419454 0.903671 0.942905 0.092009
H10   H     H_    0.386114 0.719585 0.827311 0.100381
H11   H     H_    0.123979 0.004775 0.571704 0.092839
H12   H     H_    0.825399 0.173540 0.648966 0.133781
H13   H     H_    0.176828 0.323078 0.845368 0.099437
H14   H     H_    0.248044 0.107761 0.523768 0.102687
H15   H     H_    0.382931 0.057757 0.498187 0.111690
H16   H     H_    0.284585 0.815306 0.591364 0.127031
H17   H     H_    0.140420 0.856900 0.602345 0.115289
H18   H     H_    0.524493 0.013399 0.701513 0.124929
H19   H     H_    0.522668 0.819076 0.361590 0.122718
H20   H     H_    0.673594 0.005387 0.393293 0.115224
H21   H     H_    0.856642 0.087886 0.414385 0.128071
H22   H     H_    0.011806 0.101975 0.556572 0.100931
H23   H     H_    0.975769 0.822326 0.156241 0.130897
H24   H     H_    0.982025 0.028688 0.674747 0.115531
H25   H     H_    0.019108 0.676765 0.350155 0.107130
H26   H     H_    0.800992 0.949797 0.658156 0.112141
H27   H     H_    0.470206 0.318270 0.853608 0.143655
H28   H     H_    0.469394 0.370472 0.762726 0.157923
H29   H     H_    0.316220 0.377774 0.753536 0.153659
H30   H     H_    0.318205 0.318373 0.837765 0.163896
H31   H     H_    0.582021 0.455192 0.062898 0.148404
H32   H     H_    0.426877 0.452872 0.052862 0.162042
H33   H     H_    0.635818 0.673393 0.980268 0.150283
H34   H     H_    0.154979 0.836532 0.988005 0.100910
H35   H     H_    0.561620 0.577618 0.836944 0.157048
H36   H     H_    0.407200 0.578783 0.830744 0.151977
H37   H     H_    0.355341 0.676604 0.026482 0.087532
H38   H     H_    0.483571 0.675036 0.975202 0.142726
H39   H     H_    0.645420 0.600264 0.113831 0.156288
H40   H     H_    0.493268 0.598318 0.106219 0.151487
H41   H     H_    0.316871 0.138822 0.798019 0.123309
H42   H     H_    0.128843 0.994410 0.727026 0.106682
H43   H     H_    0.055480 0.991391 0.849656 0.118574
H44   H     H_    0.356214 0.282943 0.117980 0.117181
H45   H     H_    0.659328 0.167184 0.831466 0.087435
H46   H     H_    0.427181 0.285110 0.992267 0.113516
H47   H     H_    0.219136 0.011279 0.063286 0.125556
H48   H     H_    0.024049 0.178486 0.198586 0.126466
H49   H     H_    0.859601 0.324259 0.184718 0.113405
H50   H     H_    0.833137 0.950736 0.060438 0.114171
H51   H     H_    0.707259 0.859443 0.113294 0.107027
H52   H     H_    0.779443 0.845093 0.277680 0.117741
H53   H     H_    0.978553 0.935072 0.397237 0.119361
H54   H     H_    0.106425 0.036584 0.351166 0.118287
H55   H     H_    0.194872 0.751866 0.371528 0.119885
H56   H     H_    0.796521 0.677045 0.062749 0.110262
H57   H     H_    0.122786 0.247175 0.943908 0.126787
H58   H     H_    0.624020 0.321398 0.883511 0.094045
H59   H     H_    0.938834 0.236427 0.111907 0.092672
H60   H     H_    0.895833 0.324964 0.619170 0.102850
H61   H     H_    0.203714 0.576235 0.667092 0.106703
H62   H     H_    0.512001 0.091316 0.991185 0.102375
H63   H     H_    0.582048 0.282622 0.029181 0.093626
H64   H     H_    0.719960 0.438285 0.214333 0.113128
N1    N     N_R   0.947080 0.293830 0.002870 -0.041408
N2    N     N_R   0.153670 0.443180 0.946090 -0.036642
N3    N     N_R   0.002360 0.556820 0.208890 -0.038926
N4    N     N_R   0.210070 0.556820 0.002870 -0.033812
N5    N     N_R   0.945960 0.443180 0.152110 -0.039740
N6    N     N_R   0.151710 0.706170 0.208890 -0.042882
N7    N     N_R   0.004320 0.293830 0.946090 -0.041603
N8    N     N_R   0.789930 0.443180 0.997130 -0.035261
N9    N     N_R   0.054040 0.556820 0.847890 -0.040372
N10   N     N_R   0.848290 0.293830 0.791110 -0.041965
N11   N     N_R   0.995680 0.706170 0.053910 -0.041116
N12   N     N_R   0.052920 0.706170 0.997130 -0.041435
N13   N     N_R   0.791050 0.293830 0.847890 -0.038744
N14   N     N_R   0.846330 0.556820 0.053910 -0.036485
N15   N     N_R   0.997640 0.443180 0.791110 -0.040065
N16   N     N_R   0.208950 0.706170 0.152110 -0.039853
Ni1   Ni    Ni4+2 0.869690 0.369690 0.000000 0.211504
Ni2   Ni    Ni4+2 0.130310 0.630310 0.000000 0.217522
Ni3   Ni    Ni4+2 0.000970 0.369690 0.869780 0.215587
Ni4   Ni    Ni4+2 0.999030 0.630310 0.130220 0.213572

loop_
_geom_bond_atom_site_label_1
_geom_bond_atom_site_label_2
_ccdc_geom_bond_type
C70   H41   S    
C25   C31   A    
C66   C68   A    
C63   C65   A    
C58   C62   S    
C51   H26   S    
C6    C45   A    
C27   C29   A    
C41   C42   A    
C1    H59   S    
C35   C36   A    
C9    C72   S    
C71   C77   A    
C3    C6    A    
C40   N4    A    
C62   H38   S    
N11   N12   A    
C30   H61   S    
C39   C41   A    
C52   N5    A    
C25   H7    S    
C79   H50   S    
C26   C27   A    
C29   C30   A    
C9    C78   A    
C33   H15   S    
C18   H5    S    
N1    N7    A    
C60   C62   S    
C36   C37   A    
C56   N9    A    
C10   H63   S    
C57   H39   S    
C30   C31   A    
C12   C64   A    
C57   C59   S    
C48   H21   S    
C55   H30   S    
C10   C17   A    
C23   C40   A    
C54   H27   S    
C74   H48   S    
C50   H24   S    
N9    Ni2   S    
C36   H16   S    
C18   C19   A    
C43   H19   S    
C66   C77   S    
C67   H12   S    
N7    Ni3   S    
N14   Ni4   S    
C75   C85   S    
C83   C84   A    
N5    Ni1   S    
C68   C69   A    
N3    Ni4   S    
C45   H58   S    
N10   Ni3   S    
C67   N10   A    
C86   N12   A    
C32   C38   A    
C4    C12   A    
C73   C84   S    
C63   H42   S    
N8    N14   A    
C47   C53   A    
C28   C34   A    
C21   C22   A    
N16   Ni2   S    
N4    Ni2   S    
C23   C60   S    
C3    H56   S    
C7    C56   A    
C38   H11   S    
C83   H54   S    
C44   C46   A    
N8    Ni1   S    
C81   C82   A    
C49   H22   S    
C5    C7    A    
C54   C59   S    
C28   H25   S    
N15   Ni3   S    
C81   H52   S    
C22   C34   S    
C76   N7    A    
C74   C75   A    
C13   C14   A    
N10   N13   A    
C39   H18   S    
C17   H62   S    
C8    C41   S    
C37   H17   S    
C72   C73   A    
C56   H1    S    
C50   C51   A    
C25   C26   A    
C82   C83   A    
N9    N15   A    
C13   C24   S    
C60   C61   S    
C51   C53   A    
N13   Ni1   S    
C43   C44   A    
C14   H3    S    
C37   C38   A    
C9    C86   A    
C11   H64   S    
C47   C48   A    
C63   C70   A    
N6    N16   A    
C47   H20   S    
C82   H53   S    
C2    H45   S    
C16   N2    A    
C68   H44   S    
C75   C77   A    
C61   H40   S    
C3    N14   A    
C8    C67   A    
C39   C46   A    
N12   Ni2   S    
N11   Ni4   S    
C48   C49   A    
N2    N4    A    
C65   C66   A    
C16   C23   A    
C7    C19   S    
C26   H8    S    
C28   N3    A    
C18   C24   A    
C1    C85   A    
N3    N5    A    
C42   C43   A    
C73   C74   A    
C62   H36   S    
C57   H31   S    
C15   C17   A    
C40   H37   S    
C54   C55   S    
C58   H35   S    
C5    H60   S    
C61   H32   S    
C6    C59   S    
C2    C8    A    
C45   N8    A    
C80   C81   A    
C2    N13   A    
C71   H47   S    
C29   H10   S    
C65   H43   S    
C16   H13   S    
C57   C61   S    
C4    H2    S    
C64   N6    A    
C34   C52   A    
C32   C33   A    
C19   C20   A    
C58   C59   S    
C71   C72   A    
C42   C53   S    
C15   H4    S    
N2    Ni3   S    
C11   C13   A    
C79   C84   A    
C55   H29   S    
C69   H46   S    
N1    Ni1   S    
C54   H28   S    
N6    Ni4   S    
C58   H33   S    
C33   C35   A    
C4    N16   A    
C1    N1    A    
C78   H23   S    
C22   C24   A    
C5    N15   A    
C69   C70   A    
C10   C11   A    
C79   C80   A    
C76   H57   S    
C32   H14   S    
C20   C21   A    
C78   N11   A    
C12   C44   S    
C49   C50   A    
C64   H55   S    
C52   H49   S    
C14   C15   A    
C86   H34   S    
C27   H9    S    
C55   C60   S    
C35   C46   S    
C76   C85   A    
C21   H6    S    
C80   H51   S    
C20   C31   S    
