data_mof_unit_23831.cif
_audit_creation_date              2012-12-10T16:51:32-0500
_audit_creation_method            fapswitch 2.2
_symmetry_space_group_name_H-M    P1
_symmetry_Int_Tables_number       1
_space_group_crystal_system       triclinic
_cell_length_a                    7.828381
_cell_length_b                    8.570699
_cell_length_c                    12.106639
_cell_angle_alpha                 92.311029
_cell_angle_beta                  101.136904
_cell_angle_gamma                 94.206173
_cell_volume                      793.614556007

loop_
_atom_site_label
_atom_site_type_symbol
_atom_type_description
_atom_site_fract_x
_atom_site_fract_y
_atom_site_fract_z
_atom_type_partial_charge
C1    C     C_R   0.044717 0.794758 0.497399 0.974024
C2    C     C_R   0.159018 0.506110 0.832636 -0.262767
C3    C     C_2   0.068064 0.958532 0.496160 -0.386377
C4    C     C_R   0.106065 0.504705 0.710505 0.902681
C5    C     C_2   0.932448 0.041585 0.504912 -0.368654
C6    C     C_R   0.955463 0.205278 0.502981 0.944319
C7    C     C_R   0.892459 0.488247 0.289673 0.862344
C8    C     C_R   0.809712 0.287766 0.003009 -0.180083
C9    C     C_R   0.830144 0.457008 0.170010 -0.069605
C10   C     C_R   0.073835 0.597429 0.901146 0.635674
C11   C     C_R   0.145833 0.626325 0.014741 -0.207147
C12   C     C_R   0.396519 0.484882 0.990352 0.087598
C13   C     C_R   0.307296 0.573797 0.059041 -0.308578
C14   C     C_R   0.310235 0.434766 0.880503 0.010739
C15   C     C_R   0.568823 0.444307 0.026975 0.121338
C16   C     C_R   0.641187 0.333214 0.962975 0.183382
C17   C     C_R   0.542784 0.267204 0.861517 -0.220540
C18   C     C_R   0.379123 0.317461 0.820452 -0.156865
C19   C     C_R   0.672283 0.513901 0.125111 -0.241161
C20   C     C_R   0.902593 0.346693 0.108230 -0.197343
F1    F     F_    0.924707 0.663591 0.857840 -0.664023
H1    H     H_    0.025960 0.301373 0.143202 0.161460
H2    H     H_    0.306237 0.262346 0.741740 0.165841
H3    H     H_    0.195812 0.010156 0.487902 0.177798
H4    H     H_    0.804747 0.989981 0.513275 0.181824
H5    H     H_    0.469716 0.375147 0.416320 0.187470
H6    H     H_    0.530285 0.624813 0.583708 0.208283
H7    H     H_    0.593418 0.178803 0.812954 0.151978
H8    H     H_    0.865850 0.202059 0.955500 0.146987
H9    H     H_    0.629063 0.608206 0.171899 0.147109
H10   H     H_    0.357058 0.600964 0.147742 0.168232
H11   H     H_    0.079419 0.694735 0.067946 0.170302
N1    N     N_2   0.434800 0.456690 0.470850 -0.178698
N2    N     N_2   0.565200 0.543310 0.529150 -0.161587
O1    O     O_R   0.893060 0.738880 0.507150 -0.603674
O2    O     O_R   0.172250 0.711130 0.488470 -0.628010
O3    O     O_R   0.944700 0.520730 0.667600 -0.546091
O4    O     O_R   0.223890 0.492980 0.648920 -0.623873
O5    O     O_R   0.827750 0.288870 0.511530 -0.628472
O6    O     O_R   0.106940 0.261120 0.492850 -0.619950
O7    O     O_R   0.776110 0.507020 0.351080 -0.624494
O8    O     O_R   0.055300 0.479270 0.332400 -0.618986
Zn1   Zn    Zn3+2 0.813580 0.518530 0.512470 0.973828
Zn2   Zn    Zn3+2 0.186420 0.481470 0.487530 0.933769

loop_
_geom_bond_atom_site_label_1
_geom_bond_atom_site_label_2
_ccdc_geom_bond_type
O3    Zn1   S    
C2    C4    S    
O4    Zn2   S    
O1    Zn1   S    
C14   C18   A    
H5    N1    S    
C12   C15   A    
O6    Zn2   S    
N1    N2    D    
C19   H9    S    
C8    C16   A    
C12   C13   A    
C15   C19   A    
O7    Zn1   S    
C3    H3    S    
C8    C20   A    
O8    Zn2   S    
C5    H4    S    
C8    H8    S    
H6    N2    S    
C12   C14   A    
C11   H11   S    
C17   C18   A    
C7    O7    A    
C10   F1    S    
C5    C6    S    
C2    C14   A    
C6    O6    A    
O2    Zn2   S    
C10   C11   A    
C15   C16   A    
C2    C10   A    
C3    C5    D    
C11   C13   A    
C4    O3    A    
C1    O1    A    
C7    O8    A    
C7    C9    S    
C13   H10   S    
C6    O5    A    
O5    Zn1   S    
C9    C20   A    
C1    C3    S    
C4    O4    A    
C17   H7    S    
C9    C19   A    
N2    Zn1   S    
C18   H2    S    
C1    O2    A    
C20   H1    S    
C16   C17   A    
N1    Zn2   S    
