data_mof_unit_11946.cif
_audit_creation_date              2012-12-10T17:54:19-0500
_audit_creation_method            fapswitch 2.2
_symmetry_space_group_name_H-M    P1
_symmetry_Int_Tables_number       1
_space_group_crystal_system       triclinic
_cell_length_a                    27.716134
_cell_length_b                    10.698488
_cell_length_c                    9.933023
_cell_angle_alpha                 89.301084
_cell_angle_beta                  90.102482
_cell_angle_gamma                 93.970899
_cell_volume                      2938.05653654

loop_
_atom_site_label
_atom_site_type_symbol
_atom_type_description
_atom_site_fract_x
_atom_site_fract_y
_atom_site_fract_z
_atom_type_partial_charge
C1    C     C_R   0.503252 0.260408 0.502117 0.869971
C2    C     C_R   0.277561 0.514370 0.383631 -0.149951
C3    C     C_R   0.252887 0.499851 0.506030 0.335441
C4    C     C_R   0.101763 0.501976 0.518487 -0.096044
C5    C     C_R   0.124275 0.387958 0.523704 -0.060214
C6    C     C_R   0.096469 0.275086 0.541123 -0.129745
C7    C     C_R   0.130303 0.616818 0.509522 -0.021362
C8    C     C_R   0.353423 0.500134 0.501471 -0.055027
C9    C     C_R   0.646633 0.500312 0.500327 -0.043222
C10   C     C_R   0.972067 0.386559 0.499899 0.022349
C11   C     C_R   0.977295 0.613560 0.537405 0.067131
C12   C     C_R   0.406123 0.500279 0.500124 0.856125
C13   C     C_R   0.949338 0.499598 0.516248 0.079161
C14   C     C_R   0.944171 0.281430 0.452390 -0.297395
C15   C     C_R   0.893968 0.280367 0.441664 0.143544
C16   C     C_R   0.870320 0.388552 0.474843 -0.026926
C17   C     C_R   0.898348 0.499107 0.509339 -0.096655
C18   C     C_R   0.875483 0.609780 0.536251 -0.008358
C19   C     C_R   0.825116 0.607802 0.532209 0.500973
C20   C     C_R   0.819611 0.391645 0.472530 0.517508
C21   C     C_R   0.722204 0.503257 0.622871 -0.100923
C22   C     C_R   0.672102 0.503421 0.622748 -0.213878
C23   C     C_R   0.495312 0.738360 0.499603 0.887133
C24   C     C_R   0.671982 0.497021 0.378204 -0.211032
C25   C     C_R   0.722102 0.496706 0.378734 -0.101584
C26   C     C_R   0.747152 0.499859 0.500990 0.319315
C27   C     C_R   0.022513 0.384492 0.522532 0.017122
C28   C     C_R   0.050730 0.500680 0.522278 0.049541
C29   C     C_R   0.028197 0.615468 0.526122 0.038038
C30   C     C_R   0.046293 0.271961 0.545696 0.081640
C31   C     C_R   0.107362 0.730565 0.506866 0.138543
C32   C     C_R   0.953287 0.722072 0.567065 -0.227990
C33   C     C_R   0.903217 0.719788 0.567191 -0.141508
C34   C     C_R   0.593904 0.500413 0.500097 0.877499
C35   C     C_R   0.057147 0.728731 0.515712 -0.271926
C36   C     C_R   0.506946 0.107691 0.761603 -0.208448
C37   C     C_R   0.489934 0.042482 0.876383 -0.164488
C38   C     C_R   0.464322 0.926486 0.864320 0.154600
C39   C     C_R   0.460080 0.871566 0.737108 -0.189824
C40   C     C_R   0.481790 0.932182 0.622445 0.068251
C41   C     C_R   0.498418 0.057863 0.631192 0.096136
C42   C     C_R   0.505734 0.126589 0.508308 -0.114251
C43   C     C_R   0.507505 0.065129 0.385349 -0.229039
C44   C     C_R   0.500976 0.937521 0.381897 -0.196750
C45   C     C_R   0.174613 0.389553 0.517569 0.535737
C46   C     C_R   0.489432 0.870406 0.500078 -0.113428
C47   C     C_R   0.431216 0.322661 0.128557 0.065961
C48   C     C_R   0.400502 0.244010 0.046873 0.070224
C49   C     C_R   0.403151 0.252568 0.908901 0.039577
C50   C     C_R   0.436520 0.337394 0.851052 -0.241442
C51   C     C_R   0.468089 0.418010 0.925681 0.088704
C52   C     C_R   0.467047 0.415175 0.070576 0.078122
C53   C     C_R   0.530420 0.579284 0.070938 0.140853
C54   C     C_R   0.530277 0.578871 0.927720 -0.171989
C55   C     C_R   0.180965 0.613030 0.503701 0.529253
C56   C     C_R   0.278190 0.485546 0.626855 0.157004
C57   C     C_R   0.328452 0.485841 0.624183 -0.283212
C58   C     C_R   0.327684 0.514534 0.381146 -0.228352
H1    H     H_    0.346205 0.526385 0.285439 0.165254
H2    H     H_    0.653192 0.494603 0.282479 0.161479
H3    H     H_    0.886339 0.805281 0.590573 0.185185
H4    H     H_    0.041592 0.818297 0.508869 0.138304
H5    H     H_    0.495814 0.083694 0.974658 0.144830
H6    H     H_    0.439903 0.781729 0.728457 0.160846
H7    H     H_    0.113721 0.188099 0.556449 0.190289
N1    N     N_R   0.201521 0.500756 0.507629 -0.353291
N2    N     N_R   0.798550 0.499822 0.501592 -0.364287
N3    N     N_R   0.499540 0.498800 0.142780 -0.098976
N4    N     N_R   0.499520 0.498720 0.857170 -0.117449
O1    O     O_R   0.500000 0.316780 0.614690 -0.656712
O2    O     O_2   0.791271 0.287813 0.443493 -0.520931
O3    O     O_2   0.209782 0.719764 0.495335 -0.521966
O4    O     O_2   0.802675 0.712976 0.558050 -0.554106
O5    O     O_R   0.500000 0.316750 0.385360 -0.604033
O6    O     O_R   0.428760 0.500030 0.614650 -0.652289
O7    O     O_R   0.428750 0.500010 0.385320 -0.605785
O8    O     O_R   0.500000 0.683250 0.614640 -0.622031
O9    O     O_R   0.500000 0.683220 0.385310 -0.602035
O10   O     O_R   0.571250 0.499990 0.614680 -0.621083
O11   O     O_R   0.571240 0.499970 0.385350 -0.600149
O12   O     O_2   0.196722 0.280981 0.521669 -0.558825
Zn1   Zn    Zn3+2 0.500000 0.500020 0.653130 0.926356
Zn2   Zn    Zn3+2 0.500000 0.499980 0.346870 0.972870
N5    N     N_3   0.252621 0.471405 0.751822 -0.447902
H8    H     H_    0.261114 0.386612 0.796354 0.196531
H9    H     H_    0.265435 0.543742 0.815105 0.186992
N6    N     N_3   0.134507 0.849283 0.495050 -0.365101
H10   H     H_    0.122738 0.895319 0.408816 0.186942
H11   H     H_    0.126709 0.903052 0.578475 0.193392
H12   H     H_    0.972337 0.809471 0.594364 0.142943
H13   H     H_    0.741554 0.494313 0.284447 0.138370
H14   H     H_    0.514358 0.115470 0.291193 0.169839
H15   H     H_    0.528228 0.194429 0.778255 0.186043
H16   H     H_    0.257782 0.525641 0.290649 0.143377
N7    N     N_3   0.444141 0.864226 0.982221 -0.462627
H17   H     H_    0.472915 0.842027 0.044229 0.174295
H18   H     H_    0.425802 0.779151 0.956431 0.183618
H19   H     H_    0.505978 0.891601 0.286814 0.167283
N8    N     N_3   0.563129 0.664535 0.141292 -0.395425
H20   H     H_    0.556621 0.755482 0.109949 0.155953
H21   H     H_    0.598301 0.647521 0.112348 0.166156
N9    N     N_3   0.423440 0.302336 0.268226 -0.351722
H22   H     H_    0.428520 0.208328 0.290927 0.195626
H23   H     H_    0.387157 0.315330 0.289438 0.192407
N10   N     N_3   0.366147 0.153715 0.107889 -0.468911
H24   H     H_    0.373499 0.064456 0.075151 0.227548
H25   H     H_    0.331465 0.172498 0.075233 0.213190
N11   N     N_3   0.371805 0.173157 0.826579 -0.451558
H26   H     H_    0.351764 0.230201 0.764867 0.189437
H27   H     H_    0.393226 0.121665 0.764319 0.207834
H28   H     H_    0.436662 0.335387 0.745281 0.234353
H29   H     H_    0.555029 0.643451 0.872880 0.153618
H30   H     H_    0.653424 0.506056 0.718244 0.161184
H31   H     H_    0.741731 0.505542 0.717442 0.137915
N12   N     N_3   0.867657 0.168951 0.395379 -0.367947
H32   H     H_    0.880560 0.148415 0.299863 0.184104
H33   H     H_    0.875035 0.095083 0.460473 0.190499
H34   H     H_    0.961021 0.199906 0.417802 0.150325
N13   N     N_3   0.022016 0.157754 0.595737 -0.475918
H35   H     H_    0.016175 0.094746 0.516858 0.167297
H36   H     H_    0.989783 0.174147 0.644749 0.205885
H37   H     H_    0.347706 0.474717 0.718132 0.162196

loop_
_geom_bond_atom_site_label_1
_geom_bond_atom_site_label_2
_ccdc_geom_bond_type
C10   C27   A    
C21   C26   A    
C41   C42   A    
C20   N2    A    
N7    H17   S    
C7    C55   A    
O5    Zn2   S    
N6    H10   S    
C22   H30   S    
C53   C54   A    
C53   N8    S    
C40   C46   A    
C39   H6    S    
N10   H25   S    
C28   C29   A    
C26   N2    S    
C36   C37   A    
N5    H9    S    
C4    C7    A    
C5    C6    A    
C8    C57   A    
C56   N5    S    
C9    C22   A    
C30   N13   S    
N12   H32   S    
C56   C57   A    
C18   C19   A    
C53   N3    A    
N4    Zn1   S    
C8    C58   A    
C57   H37   S    
C44   H19   S    
C36   H15   S    
C6    H7    S    
C32   H12   S    
C48   N10   S    
C16   C17   A    
N12   H33   S    
C38   N7    S    
C20   O2    S    
C19   N2    A    
N11   H26   S    
C55   O3    S    
C52   N3    A    
C8    C12   S    
C34   O11   A    
C23   C46   S    
C21   C22   A    
C27   C30   A    
C36   C41   A    
O11   Zn2   S    
O9    Zn2   S    
O7    Zn2   S    
C37   H5    S    
C44   C46   A    
C50   C51   A    
C49   N11   S    
N13   H36   S    
C25   H13   S    
C7    C31   A    
C51   C52   A    
C19   O4    S    
N5    H8    S    
C31   N6    S    
C24   C25   A    
C10   C14   A    
C39   C40   A    
C4    C5    A    
C14   H34   S    
C58   H1    S    
C5    C45   A    
C43   C44   A    
C37   C38   A    
C34   O10   A    
C3    C56   A    
C47   C48   A    
C2    H16   S    
C16   C20   A    
C2    C58   A    
C17   C18   A    
C54   H29   S    
C9    C24   A    
C23   O8    A    
N9    H23   S    
C48   C49   A    
C6    C30   A    
C11   C32   A    
C12   O7    A    
C9    C34   S    
C31   C35   A    
C3    N1    S    
C42   C43   A    
C1    O5    A    
C45   N1    A    
C55   N1    A    
C40   C41   A    
N8    H21   S    
N3    Zn2   S    
C45   O12   S    
C43   H14   S    
C21   H31   S    
C10   C13   A    
O10   Zn1   S    
N13   H35   S    
N7    H18   S    
O6    Zn1   S    
C47   C52   A    
N10   H24   S    
C29   C35   A    
C1    O1    A    
N8    H20   S    
C13   C17   A    
C32   C33   A    
N6    H11   S    
C2    C3    A    
C25   C26   A    
C11   C13   A    
C38   C39   A    
C54   N4    A    
O8    Zn1   S    
C50   H28   S    
N11   H27   S    
C35   H4    S    
C15   N12   S    
C23   O9    A    
N9    H22   S    
O1    Zn1   S    
C18   C33   A    
C1    C42   S    
C11   C29   A    
C33   H3    S    
C49   C50   A    
C4    C28   A    
C12   O6    A    
C27   C28   A    
C47   N9    S    
C14   C15   A    
C24   H2    S    
C51   N4    A    
C15   C16   A    
