data_mof_unit_14958.cif
_audit_creation_date              2012-12-10T17:20:51-0500
_audit_creation_method            fapswitch 2.2
_symmetry_space_group_name_H-M    P1
_symmetry_Int_Tables_number       1
_space_group_crystal_system       triclinic
_cell_length_a                    14.334473
_cell_length_b                    10.766342
_cell_length_c                    9.630589
_cell_angle_alpha                 90.920165
_cell_angle_beta                  89.366829
_cell_angle_gamma                 92.325386
_cell_volume                      1484.79135965

loop_
_atom_site_label
_atom_site_type_symbol
_atom_type_description
_atom_site_fract_x
_atom_site_fract_y
_atom_site_fract_z
_atom_type_partial_charge
C1    C     C_R   0.496382 0.262650 0.499262 0.788111
C2    C     C_1   0.771113 0.500564 0.498428 -0.197594
C3    C     C_R   0.349383 0.124169 0.651738 -0.281656
C4    C     C_R   0.281710 0.057540 0.729307 0.055803
C5    C     C_R   0.283297 0.927770 0.731356 -0.106551
C6    C     C_R   0.351486 0.865398 0.656945 -0.236630
C7    C     C_R   0.421484 0.931605 0.580616 0.098802
C8    C     C_R   0.420514 0.062730 0.578181 0.106535
C9    C     C_R   0.489111 0.128457 0.498115 -0.089713
C10   C     C_R   0.553867 0.065641 0.417263 -0.192815
C11   C     C_R   0.554638 0.937688 0.419317 -0.203009
C12   C     C_R   0.331248 0.499587 0.500664 0.787910
C13   C     C_R   0.490685 0.870658 0.502262 -0.088816
C14   C     C_R   0.644801 0.627403 0.144847 -0.133728
C15   C     C_R   0.730264 0.647259 0.078263 -0.245533
C16   C     C_R   0.735176 0.634083 0.935322 -0.185396
C17   C     C_R   0.651027 0.627642 0.862461 0.217537
C18   C     C_R   0.571888 0.564174 0.926353 0.175156
C19   C     C_R   0.570720 0.563775 0.075402 0.180534
C20   C     C_R   0.432481 0.438521 0.073599 -0.047813
C21   C     C_R   0.432363 0.438765 0.926025 -0.057065
C22   C     C_R   0.496743 0.737056 0.500873 0.767276
C23   C     C_R   0.668736 0.500204 0.499371 0.793778
C24   C     C_1   0.228876 0.499823 0.501831 -0.202931
C25   C     C_1   0.143422 0.500092 0.501745 -0.002054
C26   C     C_1   0.042725 0.500420 0.500867 0.014428
C27   C     C_1   0.957270 0.500629 0.499869 0.011397
C28   C     C_1   0.856572 0.500708 0.498792 -0.004828
Cu1   Cu    Cu3+1 0.499990 0.499990 0.640660 0.930502
Cu2   Cu    Cu3+1 0.500010 0.500010 0.359340 0.939117
H1    H     H_    0.605719 0.116215 0.355073 0.155932
H2    H     H_    0.799088 0.666703 0.884056 0.161891
H3    H     H_    0.377116 0.387918 0.871220 0.127434
H4    H     H_    0.344385 0.223976 0.647459 0.131613
H5    H     H_    0.230918 0.874055 0.789084 0.176192
H6    H     H_    0.347297 0.765036 0.658348 0.163435
H7    H     H_    0.606770 0.890664 0.357935 0.140412
H8    H     H_    0.377290 0.387425 0.128197 0.141394
H9    H     H_    0.639271 0.663630 0.248445 0.184412
H10   H     H_    0.790267 0.683570 0.135481 0.166281
N1    N     N_R   0.500820 0.501210 0.147910 -0.185168
N2    N     N_R   0.500850 0.501290 0.852040 -0.185181
O1    O     O_R   0.499990 0.319640 0.618810 -0.568913
O2    O     O_R   0.500000 0.319660 0.381240 -0.566195
O3    O     O_R   0.376050 0.499990 0.618810 -0.575536
O4    O     O_R   0.376060 0.500010 0.381240 -0.552358
O5    O     O_R   0.500000 0.680340 0.618760 -0.583504
O6    O     O_R   0.500010 0.680360 0.381190 -0.581607
O7    O     O_R   0.623940 0.499990 0.618760 -0.547270
O8    O     O_R   0.623950 0.500010 0.381190 -0.571493
C29   C     C_3   0.640307 0.745670 0.782722 -0.756553
H11   H     H_    0.657552 0.731127 0.671420 0.225093
H12   H     H_    0.570615 0.783867 0.802879 0.239891
H13   H     H_    0.689420 0.822126 0.818453 0.199285
C30   C     C_2   0.209092 0.125193 0.806051 0.349220
H14   H     H_    0.208859 0.225941 0.802570 0.059290
O9    O     O_2   0.148818 0.069663 0.874082 -0.538750

loop_
_geom_bond_atom_site_label_1
_geom_bond_atom_site_label_2
_ccdc_geom_bond_type
C22   O6    A    
C30   H14   S    
Cu2   N1    S    
Cu1   Cu2   S    
Cu1   N2    S    
C16   H2    S    
C20   H8    S    
C9    C10   A    
C12   C24   S    
C1    O2    A    
Cu2   O4    S    
C29   H13   S    
C17   C29   S    
C30   O9    D    
C22   O5    A    
Cu2   O8    S    
C24   C25   T    
C7    C8    A    
Cu1   O7    S    
Cu1   O1    S    
C11   C13   A    
Cu2   O2    S    
C26   C27   T    
C6    C7    A    
Cu1   O5    S    
C4    C5    A    
C5    H5    S    
Cu2   O6    S    
C25   C26   S    
C6    H6    S    
C13   C22   S    
C20   N1    A    
C18   N2    A    
C4    C30   S    
C5    C6    A    
C15   H10   S    
C23   O7    A    
C21   H3    S    
C10   C11   A    
C29   H11   S    
C19   N1    A    
C7    C13   A    
C1    C9    S    
C20   C21   A    
C17   C18   A    
C3    C8    A    
C2    C23   S    
C11   H7    S    
C18   C19   A    
C14   C15   A    
C8    C9    A    
C23   O8    A    
C2    C28   T    
C21   N2    A    
C3    H4    S    
C29   H12   S    
C14   H9    S    
C14   C19   A    
C1    O1    A    
C3    C4    A    
C15   C16   A    
C16   C17   A    
Cu1   O3    S    
C12   O3    A    
C27   C28   S    
C12   O4    A    
C10   H1    S    
