data_mof_unit_5168.cif
_audit_creation_date              2012-12-11T16:33:20-0500
_audit_creation_method            fapswitch 2.2
_symmetry_space_group_name_H-M    P1
_symmetry_Int_Tables_number       1
_space_group_crystal_system       triclinic
_cell_length_a                    6.975159
_cell_length_b                    18.336525
_cell_length_c                    20.149377
_cell_angle_alpha                 68.600876
_cell_angle_beta                  90.176822
_cell_angle_gamma                 90.444046
_cell_volume                      2399.37444722

loop_
_atom_site_label
_atom_site_type_symbol
_atom_type_description
_atom_site_fract_x
_atom_site_fract_y
_atom_site_fract_z
_atom_type_partial_charge
O1    O     O_R   0.488960 0.443750 0.941980 -0.526949
O2    O     O_R   0.823890 0.406510 0.087590 -0.539779
O3    O     O_R   0.999680 0.556250 0.058020 -0.528598
C1    C     C_R   0.655724 0.382652 0.114585 0.691398
O4    O     O_R   0.818360 0.434410 0.944340 -0.519940
O5    O     O_R   0.994110 0.584350 0.913750 -0.540157
C2    C     C_R   0.650421 0.421409 0.923004 0.723641
O6    O     O_R   0.494530 0.415650 0.086250 -0.539517
O7    O     O_3   0.662590 0.549160 0.990130 -0.354532
V1    V     V_3+5 0.935320 0.490880 0.001830 1.554847
O8    O     O_R   0.324180 0.593490 0.912410 -0.530698
C3    C     C_R   0.156294 0.617573 0.885591 0.724571
O9    O     O_R   0.329720 0.565590 0.055660 -0.517577
C4    C     C_R   0.161994 0.578493 0.077026 0.732279
V2    V     V_3+5 0.435990 0.509120 0.998170 1.556703
O10   O     O_3   0.158850 0.450840 0.009870 -0.358790
C5    C     C_3   0.031573 0.705169 0.311725 -0.209545
C6    C     C_3   0.221637 0.681525 0.286330 -0.042230
H1    H     H_    0.950731 0.670581 0.360614 0.148350
H2    H     H_    0.450614 0.779189 0.284942 0.151641
C7    C     C_1   0.157053 0.623307 0.123267 -0.087257
C8    C     C_1   0.108557 0.874121 0.378458 -0.158651
C9    C     C_3   0.954958 0.730557 0.234144 0.176131
C10   C     C_3   0.144793 0.706158 0.209784 0.039955
C11   C     C_3   0.034284 0.814764 0.217010 -0.137087
C12   C     C_3   0.114511 0.788786 0.293937 0.100442
C13   C     C_3   0.224229 0.789213 0.193299 -0.045672
C14   C     C_3   0.306009 0.764674 0.269879 -0.155825
C15   C     C_1   0.154090 0.660535 0.162249 0.054899
C16   C     C_1   0.109348 0.835420 0.340627 0.015840
H3    H     H_    0.955324 0.869696 0.188453 0.165381
C17   C     C_R   0.142754 0.777437 0.878751 0.046638
C18   C     C_R   0.048076 0.842060 0.883313 -0.066588
C19   C     C_R   0.002844 0.904213 0.820547 -0.085462
C20   C     C_R   0.055448 0.900880 0.754333 -0.108492
C21   C     C_R   0.101466 0.826731 0.749567 0.016733
C22   C     C_R   0.132364 0.762078 0.814742 0.041218
C23   C     C_R   0.111758 0.814418 0.683604 -0.164674
C24   C     C_R   0.126789 0.736562 0.684145 0.036250
C25   C     C_R   0.159774 0.671728 0.749428 0.017702
C26   C     C_R   0.152802 0.684557 0.815461 -0.154281
C27   C     C_R   0.103036 0.720407 0.620664 -0.066391
C28   C     C_R   0.173294 0.651687 0.616560 -0.178168
C29   C     C_R   0.226086 0.590558 0.677833 -0.033455
C30   C     C_R   0.197681 0.596544 0.744827 -0.106853
H4    H     H_    0.167215 0.642437 0.566320 0.132121
C31   C     C_R   0.507489 0.105118 0.254156 -0.237720
C32   C     C_R   0.471183 0.093597 0.190747 -0.050125
C33   C     C_R   0.532070 0.149439 0.126094 0.155153
C34   C     C_R   0.621942 0.218417 0.125596 -0.117914
C35   C     C_R   0.618214 0.238499 0.187596 0.003649
C36   C     C_R   0.580087 0.177353 0.253941 0.068446
C37   C     C_R   0.650757 0.316448 0.185157 -0.165171
C38   C     C_R   0.665881 0.330760 0.250553 0.026919
C39   C     C_R   0.638218 0.266820 0.317261 0.024727
C40   C     C_R   0.610648 0.189073 0.318689 -0.144925
C41   C     C_R   0.705359 0.406759 0.253078 -0.076082
C42   C     C_R   0.738766 0.415495 0.318076 -0.156469
C43   C     C_R   0.697759 0.355022 0.381730 -0.029691
C44   C     C_R   0.625339 0.284052 0.380582 -0.104950
H5    H     H_    0.469163 0.058128 0.303351 0.124855
H6    H     H_    0.779007 0.472460 0.319074 0.151231
O11   O     O_R   0.770540 0.084530 0.414050 -0.539280
O12   O     O_R   0.445710 0.065660 0.555720 -0.512560
O13   O     O_R   0.270420 0.915650 0.586190 -0.535657
C45   C     C_R   0.613282 0.078345 0.577544 0.732315
O14   O     O_R   0.441140 0.093540 0.412470 -0.539991
O15   O     O_R   0.265820 0.943740 0.441930 -0.546346
C46   C     C_R   0.609262 0.119378 0.387209 0.683639
O16   O     O_R   0.775150 0.056440 0.558310 -0.531062
O17   O     O_3   0.602370 0.950960 0.510050 -0.367484
V3    V     V_3+5 0.329450 0.009140 0.498150 1.522169
O18   O     O_R   0.935790 0.934280 0.444060 -0.524762
C47   C     C_R   0.103759 0.920654 0.423379 0.717355
O19   O     O_R   0.940370 0.906390 0.587310 -0.535443
C48   C     C_R   0.108298 0.882088 0.613968 0.703683
V4    V     V_3+5 0.828810 0.990710 0.501460 1.513329
O20   O     O_3   0.105780 0.049100 0.489960 -0.352975
C49   C     C_3   0.720549 0.315567 0.715652 -0.151838
C50   C     C_3   0.527152 0.289331 0.692680 -0.129648
H7    H     H_    0.443702 0.322021 0.644051 0.187653
H8    H     H_    0.800169 0.370576 0.686432 0.170613
C51   C     C_1   0.614676 0.122703 0.624315 -0.113268
C52   C     C_1   0.647244 0.375787 0.877436 -0.086104
C53   C     C_3   0.798126 0.231624 0.733759 -0.080283
C54   C     C_3   0.607442 0.205704 0.710920 0.013239
C55   C     C_3   0.723852 0.207184 0.810878 -0.136981
C56   C     C_3   0.645303 0.290314 0.793097 0.024349
C57   C     C_3   0.532018 0.180694 0.788410 0.179144
C58   C     C_3   0.453006 0.264620 0.770614 0.185073
C59   C     C_1   0.607804 0.159743 0.663476 0.069827
C60   C     C_1   0.650448 0.337497 0.839361 0.082549
C61   C     C_1   0.321419 0.608044 0.325054 0.360229
N1    N     N_1   0.400030 0.550059 0.355555 -0.338267
C62   C     C_1   0.914722 0.973812 0.824015 0.386378
N2    N     N_1   0.843914 0.029488 0.826354 -0.328273
C63   C     C_1   0.073781 0.975231 0.695449 0.286836
N3    N     N_1   0.090972 0.035435 0.649727 -0.284055
C64   C     C_1   0.958425 0.758288 0.568454 0.271112
N4    N     N_1   0.837656 0.785479 0.527638 -0.327751
C65   C     C_1   0.189530 0.523397 0.805203 0.262928
N5    N     N_1   0.179155 0.464177 0.852498 -0.272811
C66   C     C_1   0.708937 0.370195 0.447281 0.349476
N6    N     N_1   0.717835 0.382215 0.499753 -0.335755
C67   C     C_1   0.378039 0.022318 0.193509 0.367514
N7    N     N_1   0.302448 0.965190 0.195752 -0.364736
I1    I     I_    0.493390 0.128828 0.029148 -0.269833
C68   C     C_1   0.760310 0.253644 0.069770 0.316639
N8    N     N_1   0.875578 0.278961 0.026070 -0.291362
C69   C     C_1   0.696177 0.479519 0.192790 0.280264
N9    N     N_1   0.685515 0.538631 0.145445 -0.270493
C70   C     C_1   0.484839 0.244698 0.434666 0.266552
N10   N     N_1   0.367244 0.216601 0.476779 -0.306560
I2    I     I_    0.197678 0.299958 0.808599 -0.370829
I3    I     I_    0.376542 0.075193 0.844997 -0.267189
C71   C     C_1   0.831497 0.163960 0.875951 0.495277
N11   N     N_1   0.916756 0.129955 0.927150 -0.228671
C72   C     C_1   0.981055 0.211607 0.708937 0.412595
N12   N     N_1   0.123382 0.195585 0.688467 -0.318949
C73   C     C_1   0.327043 0.835925 0.127963 0.455462
N13   N     N_1   0.408139 0.872795 0.076476 -0.242252
I4    I     I_    0.692977 0.697966 0.198679 -0.428617
C74   C     C_1   0.290927 0.519216 0.670430 0.335348
N14   N     N_1   0.343626 0.462616 0.663820 -0.338445
I5    I     I_    0.389088 0.743180 0.945855 -0.334685
C75   C     C_1   0.014465 0.847136 0.952389 0.419359
N15   N     N_1   0.986625 0.851128 0.007549 -0.289198

loop_
_geom_bond_atom_site_label_1
_geom_bond_atom_site_label_2
_ccdc_geom_bond_type
C42   H6    S    
C55   C56   S    
C57   I3    S    
O19   C48   A    
C11   H3    S    
C65   N5    T    
C1    C37   S    
O18   C47   A    
C62   N2    T    
C10   C13   S    
C49   C53   S    
C1    O6    A    
O12   V3    S    
C63   N3    T    
C74   N14   T    
C33   I1    S    
C23   C48   S    
C13   C73   S    
C71   N11   T    
C40   C46   S    
C75   N15   T    
O13   C48   A    
C22   C26   A    
C6    C10   S    
C5    C12   S    
C4    C7    S    
C21   C22   A    
O14   V3    S    
C20   C63   S    
C54   C59   S    
O5    C3    A    
C23   C24   A    
O15   C47   A    
V2    O10   S    
C68   N8    T    
C19   C20   A    
C69   N9    T    
C70   N10   T    
V3    O20   S    
C45   C51   S    
C72   N12   T    
O8    V2    S    
C56   C60   S    
C50   C54   S    
C9    C10   S    
O1    V2    S    
C24   C27   A    
O7    V1    S    
V4    O20   S    
C9    C11   S    
C2    C52   S    
C43   C44   A    
C39   C44   A    
O16   V4    S    
C34   C68   S    
O4    V1    S    
C49   C56   S    
C5    C6    S    
C9    I4    S    
C53   C55   S    
C25   C30   A    
C35   C36   A    
C31   C32   A    
O11   C46   A    
C6    C14   S    
C19   C62   S    
C24   C25   A    
O4    C2    A    
H2    C14   S    
C11   C12   S    
C53   C54   S    
C7    C15   T    
C35   C37   A    
C20   C21   A    
O12   C45   A    
C17   I5    S    
O2    C1    A    
C28   C29   A    
C31   H5    S    
C3    C26   S    
C44   C70   S    
C32   C67   S    
O15   V3    S    
C39   C40   A    
C34   C35   A    
C61   N1    T    
C5    C9    S    
C17   C22   A    
O19   V4    S    
C55   C71   S    
O3    C4    A    
C30   C65   S    
C32   C33   A    
C56   C58   S    
C12   C16   S    
O6    V2    S    
C55   C57   S    
C27   C28   A    
C8    C47   S    
O2    V1    S    
O17   V4    S    
C29   C30   A    
O11   V4    S    
C38   C39   A    
C25   C26   A    
C8    C16   T    
O1    C2    A    
C50   H7    S    
C54   C57   S    
O5    V1    S    
C49   H8    S    
O8    C3    A    
C41   C69   S    
C37   C38   A    
C31   C36   A    
C11   C13   S    
O13   V3    S    
C51   C59   T    
C67   N7    T    
C29   C74   S    
C12   C14   S    
C64   N4    T    
C43   C66   S    
C17   C18   A    
O9    V2    S    
C42   C43   A    
O17   V3    S    
O3    V1    S    
V1    O10   S    
C27   C64   S    
C41   C42   A    
C45   O16   A    
C21   C23   A    
C18   C75   S    
C5    H1    S    
C18   C19   A    
C58   I2    S    
C50   C58   S    
C53   C72   S    
C28   H4    S    
C49   C50   S    
C10   C15   S    
C33   C34   A    
C66   N6    T    
C6    C61   S    
O18   V4    S    
C73   N13   T    
C52   C60   T    
O14   C46   A    
C57   C58   S    
O9    C4    A    
C36   C40   A    
O7    V2    S    
C13   C14   S    
C38   C41   A    
