data_mof_unit_67612.cif
_audit_creation_date              2012-10-26T20:08:13-0400
_audit_creation_method            fapswitch 2.2
_symmetry_space_group_name_H-M    P1
_symmetry_Int_Tables_number       1
_space_group_crystal_system       triclinic
_cell_length_a                    10.824325
_cell_length_b                    10.872528
_cell_length_c                    9.519099
_cell_angle_alpha                 91.270933
_cell_angle_beta                  90.881192
_cell_angle_gamma                 90.297856
_cell_volume                      1119.85634312

loop_
_atom_site_label
_atom_site_type_symbol
_atom_type_description
_atom_site_fract_x
_atom_site_fract_y
_atom_site_fract_z
_atom_type_partial_charge
Br1   Br    Br    0.208162 0.970081 0.978153 -0.236061
Br2   Br    Br    0.797073 0.327743 0.118659 -0.283305
Br3   Br    Br    0.506674 0.121686 0.182657 -0.352061
Br4   Br    Br    0.493318 0.878313 0.817343 -0.352064
Br5   Br    Br    0.791799 0.029889 0.021791 -0.236081
Br6   Br    Br    0.181092 0.050138 0.315920 -0.293480
Br7   Br    Br    0.818902 0.949855 0.684023 -0.293506
Br8   Br    Br    0.117377 0.836585 0.550667 -0.280967
Br9   Br    Br    0.882642 0.163425 0.449306 -0.280954
Br10  Br    Br    0.121130 0.461095 0.113913 -0.376568
Br11  Br    Br    0.878861 0.538881 0.886094 -0.376578
Br12  Br    Br    0.202903 0.672218 0.881318 -0.283335
C1    C     C_R   0.500363 0.262053 0.498084 0.575686
C2    C     C_R   0.496758 0.069249 0.624445 -0.100042
C3    C     C_R   0.499457 0.871802 0.504713 0.008483
C4    C     C_R   0.500539 0.128198 0.495287 0.008476
C5    C     C_R   0.429826 0.417436 0.071002 0.093055
C6    C     C_R   0.570173 0.582565 0.928998 0.093057
C7    C     C_R   0.429752 0.417375 0.922258 0.072562
C8    C     C_R   0.570248 0.582625 0.077742 0.072561
C9    C     C_R   0.262352 0.502991 0.499108 0.570408
C10   C     C_R   0.737648 0.497009 0.500892 0.570404
C11   C     C_R   0.166370 0.879817 0.257384 0.180011
C12   C     C_R   0.499636 0.737946 0.501916 0.575692
C13   C     C_R   0.833622 0.120172 0.742577 0.180012
C14   C     C_R   0.136312 0.790311 0.355789 0.124895
C15   C     C_R   0.863690 0.209684 0.644185 0.124897
C16   C     C_R   0.118022 0.667025 0.311464 -0.040169
C17   C     C_R   0.881978 0.332968 0.688524 -0.040172
C18   C     C_R   0.139780 0.631604 0.171042 0.156546
C19   C     C_R   0.860212 0.368378 0.828947 0.156553
C20   C     C_R   0.172947 0.720662 0.073267 0.193717
C21   C     C_R   0.827037 0.279313 0.926708 0.193720
C22   C     C_R   0.181679 0.845430 0.115414 0.191156
C23   C     C_R   0.871406 0.496588 0.502147 0.056266
C24   C     C_R   0.818303 0.154549 0.884548 0.191151
C25   C     C_R   0.931838 0.573733 0.409560 -0.049009
C26   C     C_R   0.068162 0.426270 0.590441 -0.049006
C27   C     C_R   0.128595 0.503414 0.497853 0.056270
C28   C     C_R   0.939771 0.421360 0.592950 0.051387
C29   C     C_R   0.060229 0.578641 0.407048 0.051388
C30   C     C_R   0.503910 0.057466 0.369126 0.209672
C31   C     C_R   0.496086 0.942534 0.630874 0.209674
C32   C     C_R   0.503238 0.930751 0.375555 -0.100037
Cu1   Cu    Cu3+1 0.500000 0.500020 0.640660 1.053271
Cu2   Cu    Cu3+1 0.500000 0.499980 0.359340 1.053270
H1    H     H_    0.372984 0.351416 0.863671 0.148004
H2    H     H_    0.627016 0.648584 0.136329 0.148004
H3    H     H_    0.878702 0.632253 0.340537 0.155416
H4    H     H_    0.121298 0.367749 0.659464 0.155419
H5    H     H_    0.505395 0.878298 0.277492 0.180626
H6    H     H_    0.494601 0.121702 0.722508 0.180625
H7    H     H_    0.373130 0.351716 0.124416 0.193068
H8    H     H_    0.626870 0.648284 0.875584 0.193067
N1    N     N_R   0.500030 0.500030 0.852070 -0.240450
N2    N     N_R   0.499970 0.499970 0.147930 -0.240452
O1    O     O_R   0.499990 0.319660 0.618740 -0.544958
O2    O     O_R   0.500010 0.680340 0.381260 -0.544957
O3    O     O_R   0.499990 0.319630 0.381170 -0.443756
O4    O     O_R   0.500010 0.680370 0.618830 -0.443757
O5    O     O_R   0.319650 0.500020 0.618780 -0.478392
O6    O     O_R   0.680350 0.499980 0.381220 -0.478395
O7    O     O_R   0.319640 0.500000 0.381210 -0.494980
O8    O     O_R   0.680360 0.500000 0.618790 -0.494977

loop_
_geom_bond_atom_site_label_1
_geom_bond_atom_site_label_2
_ccdc_geom_bond_type
C3    C32   A    
C18   C20   A    
C19   C21   A    
Cu1   O4    S    
C1    O3    A    
Cu1   N1    S    
C5    H7    S    
Cu2   O3    S    
C10   O6    A    
C25   H3    S    
Br10  C18   S    
Cu1   O8    S    
C9    O5    A    
C9    C27   S    
Br9   C15   S    
C8    N2    A    
Cu2   O7    S    
C12   O4    A    
C11   C22   A    
C14   C16   A    
C16   C18   A    
C23   C28   A    
C3    C31   A    
C23   C25   A    
Br3   C30   S    
Cu1   Cu2   S    
Br12  C20   S    
C26   C28   A    
C10   C23   S    
C5    N2    A    
Cu1   O1    S    
C8    H2    S    
C30   C32   A    
C6    N1    A    
Cu2   O6    S    
C26   H4    S    
Br6   C11   S    
C32   H5    S    
Cu1   O5    S    
C3    C12   S    
C5    C7    A    
Br4   C31   S    
Br1   C22   S    
C6    C8    A    
C25   C29   A    
C26   C27   A    
C2    C4    A    
C1    C4    S    
C1    O1    A    
C2    H6    S    
C6    H8    S    
C13   C24   A    
Br11  C19   S    
Br5   C24   S    
C4    C30   A    
C16   C29   S    
C21   C24   A    
Br8   C14   S    
C15   C17   A    
C27   C29   A    
C12   O2    A    
C7    H1    S    
Cu2   N2    S    
C11   C14   A    
C7    N1    A    
C17   C28   S    
C20   C22   A    
C17   C19   A    
C10   O8    A    
Cu2   O2    S    
C9    O7    A    
Br2   C21   S    
C2    C31   A    
C13   C15   A    
Br7   C13   S    
