data_mof_unit_63070.cif
_audit_creation_date              2012-12-11T16:26:53-0500
_audit_creation_method            fapswitch 2.2
_symmetry_space_group_name_H-M    P1
_symmetry_Int_Tables_number       1
_space_group_crystal_system       triclinic
_cell_length_a                    8.211771
_cell_length_b                    17.45294
_cell_length_c                    18.750099
_cell_angle_alpha                 95.686101
_cell_angle_beta                  92.83138
_cell_angle_gamma                 96.508888
_cell_volume                      2651.79716241

loop_
_atom_site_label
_atom_site_type_symbol
_atom_type_description
_atom_site_fract_x
_atom_site_fract_y
_atom_site_fract_z
_atom_type_partial_charge
Ba1   Ba    Ba6+2 0.848080 0.535720 0.465810 1.698769
Ba2   Ba    Ba6+2 0.341750 0.464340 0.534200 1.718409
C1    C     C_3   0.637899 0.804975 0.263826 -0.337608
C2    C     C_3   0.646665 0.728930 0.296104 0.322802
C3    C     C_3   0.379462 0.277490 0.313905 0.536401
C4    C     C_3   0.396804 0.276246 0.233281 -0.307659
C5    C     C_3   0.088606 0.301896 0.729686 0.318114
C6    C     C_3   0.094413 0.278431 0.805585 -0.300858
C7    C     C_3   0.566022 0.257041 0.690728 0.350403
C8    C     C_3   0.534150 0.175467 0.712740 -0.322330
C9    C     C_2   0.328645 0.493925 0.294662 -0.309439
C10   C     C_3   0.461936 0.498450 0.242019 0.014738
C11   C     C_2   0.395488 0.506520 0.165722 0.223247
C12   C     C_3   0.161471 0.702553 0.272797 0.275876
C13   C     C_2   0.230782 0.498863 0.148733 -0.099840
C14   C     C_2   0.115516 0.485389 0.206896 -0.201566
C15   C     C_1   0.172353 0.476271 0.272722 0.006007
C16   C     C_R   0.047786 0.494194 0.932973 0.552890
C17   C     C_R   0.163130 0.497852 0.072974 0.533714
C18   C     C_R   0.085036 0.527005 0.804341 0.183014
C19   C     C_R   0.033446 0.516384 0.730077 0.043631
C20   C     C_R   0.777443 0.444449 0.757593 -0.009250
C21   C     C_R   0.829316 0.451370 0.831345 0.077627
C22   C     C_R   0.986721 0.491126 0.855407 -0.129687
C23   C     C_3   0.151108 0.720792 0.195249 -0.307262
C24   C     C_R   0.883611 0.472974 0.708096 -0.370419
C25   C     C_R   0.407551 0.721641 0.470107 -0.318385
C26   C     C_R   0.555602 0.747353 0.509371 0.060112
C27   C     C_R   0.611073 0.827782 0.520289 0.109208
C28   C     C_R   0.517580 0.880789 0.489616 -0.023079
C29   C     C_R   0.365351 0.853639 0.452574 -0.144813
C30   C     C_R   0.308606 0.774177 0.444950 0.003799
C31   C     C_R   0.589701 0.165650 0.483899 -0.094769
C32   C     C_R   0.647802 0.244673 0.487805 0.039211
C33   C     C_R   0.897350 0.221570 0.551819 0.032131
C34   C     C_3   0.228105 0.700764 0.618971 0.309984
C35   C     C_R   0.841095 0.141904 0.547473 -0.105480
C36   C     C_R   0.685917 0.113740 0.513344 -0.001222
C37   C     C_1   0.626075 0.031722 0.505712 0.057115
C38   C     C_1   0.574909 0.963255 0.498214 0.072112
C39   C     C_R   0.799668 0.272211 0.522428 -0.235203
C40   C     C_3   0.263107 0.787805 0.639734 -0.343755
C41   C     C_3   0.891497 0.298891 0.280553 0.422254
C42   C     C_3   0.962323 0.292212 0.206211 -0.101901
C43   C     C_3   0.722529 0.632481 0.680635 0.300794
C44   C     C_3   0.743974 0.654650 0.761387 -0.315477
H1    H     H_    0.776677 0.724837 0.312142 0.114622
H2    H     H_    0.370654 0.800674 0.679127 0.141181
H3    H     H_    0.289425 0.818315 0.591915 0.067371
H4    H     H_    0.154741 0.809960 0.664083 0.162655
H5    H     H_    0.781214 0.329777 0.279420 0.085240
H6    H     H_    0.999584 0.233681 0.192543 0.142414
H7    H     H_    0.072111 0.334388 0.204137 0.047365
H8    H     H_    0.840033 0.617106 0.660695 -0.004339
H9    H     H_    0.626651 0.581968 0.669560 0.066846
H10   H     H_    0.687455 0.854193 0.304034 0.103876
H11   H     H_    0.846633 0.702013 0.774028 0.138869
H12   H     H_    0.771394 0.604278 0.789390 0.069517
H13   H     H_    0.629359 0.674622 0.781522 0.173576
H14   H     H_    0.573641 0.729704 0.344337 -0.009462
H15   H     H_    0.508507 0.811466 0.247987 0.119532
H16   H     H_    0.299978 0.322160 0.330792 0.031222
H17   H     H_    0.490619 0.238295 0.216262 0.185131
H18   H     H_    0.280192 0.253079 0.202906 0.108699
H19   H     H_    0.435181 0.335602 0.219280 0.080510
H20   H     H_    0.711756 0.806323 0.215807 0.150320
H21   H     H_    0.221120 0.681268 0.162117 0.114978
H22   H     H_    0.177383 0.354517 0.728266 0.096494
H23   H     H_    0.962991 0.315634 0.716160 -0.062776
H24   H     H_    0.062360 0.326446 0.843568 0.100552
H25   H     H_    0.005023 0.226311 0.808793 0.124952
H26   H     H_    0.219745 0.265349 0.821194 0.165176
H27   H     H_    0.700012 0.270649 0.686082 -0.082906
H28   H     H_    0.501446 0.258117 0.637519 0.068767
H29   H     H_    0.579274 0.133636 0.671971 0.067392
H30   H     H_    0.400474 0.159424 0.716938 0.153566
H31   H     H_    0.104826 0.641925 0.274359 0.068245
H32   H     H_    0.599464 0.172297 0.765462 0.134453
H33   H     H_    0.984469 0.477003 0.193264 0.154025
H34   H     H_    0.366792 0.498704 0.351351 0.086881
H35   H     H_    0.843692 0.466155 0.651732 0.080067
H36   H     H_    0.471498 0.144293 0.457021 0.134456
H37   H     H_    0.289743 0.894124 0.431369 0.110827
H38   H     H_    0.917447 0.102471 0.569928 0.102004
H39   H     H_    0.292927 0.707836 0.291632 -0.013268
H40   H     H_    0.363765 0.660347 0.463146 0.068661
H41   H     H_    0.844068 0.333242 0.524567 0.070193
H42   H     H_    0.020910 0.712730 0.174018 0.145632
H43   H     H_    0.204150 0.781611 0.191675 0.133467
H44   H     H_    0.341370 0.678295 0.601329 -0.008576
H45   H     H_    0.131028 0.689524 0.574703 0.060056
N1    N     N_R   0.109785 0.562271 0.971795 -0.166637
N2    N     N_R   0.166886 0.564041 0.040097 -0.200704
N3    N     N_R   0.100243 0.429930 0.034564 -0.180598
N4    N     N_R   0.044449 0.428144 0.966167 -0.201087
O1    O     O_2   0.870670 0.457200 0.328780 -0.482769
O2    O     O_3   0.676765 0.696289 0.648464 -0.608228
O3    O     O_3   0.077376 0.754457 0.314904 -0.599888
O4    O     O_2   0.319030 0.542820 0.671260 -0.439009
O5    O     O_3   0.066510 0.541590 0.583850 -0.506814
O6    O     O_3   0.544220 0.404070 0.628440 -0.504006
O7    O     O_3   0.176981 0.666220 0.679295 -0.600696
O8    O     O_3   0.618730 0.408150 0.464380 -0.459729
O9    O     O_3   0.124970 0.364690 0.593190 -0.491106
O10   O     O_2   0.238096 0.229339 0.553913 -0.468312
O11   O     O_3   0.130399 0.240806 0.682229 -0.604129
O12   O     O_3   0.123190 0.458470 0.416160 -0.450701
O13   O     O_3   0.570980 0.591910 0.535630 -0.498532
O14   O     O_2   0.357950 0.313790 0.466200 -0.435303
O15   O     O_3   0.537170 0.296758 0.347183 -0.645196
O16   O     O_2   0.438431 0.452276 0.754232 -0.429699
O17   O     O_3   0.507175 0.309484 0.742270 -0.575534
O18   O     O_3   0.645490 0.595990 0.371560 -0.499093
O19   O     O_2   0.795249 0.567981 0.251477 -0.465704
O20   O     O_3   0.009649 0.332590 0.335609 -0.615977
O21   O     O_3   0.582683 0.666847 0.245307 -0.600989
O22   O     O_2   0.831760 0.686240 0.533840 -0.447912
O23   O     O_3   0.064740 0.635370 0.406810 -0.491212
O24   O     O_2   0.964814 0.772992 0.442784 -0.457374
P1    P     P_3+3 0.041170 0.434790 0.339740 1.005666
P2    P     P_3+3 0.658290 0.675180 0.554960 1.023629
P3    P     P_3+3 0.103386 0.735674 0.404382 0.961588
P4    P     P_3+3 0.148540 0.565270 0.660270 1.035850
P5    P     P_3+3 0.098485 0.263445 0.594140 0.990123
P6    P     P_3+3 0.623079 0.579629 0.277758 1.011520
P7    P     P_3+3 0.537062 0.312017 0.440894 1.024007
P8    P     P_3+3 0.567759 0.403712 0.721578 1.002082
I1    I     I_    0.809739 0.184007 0.306089 -0.343305
I2    I     I_    0.786166 0.311414 0.123731 -0.358203
Br1   Br    Br    0.283138 0.174782 0.332607 -0.543774
Br2   Br    Br    0.550596 0.516281 0.092546 -0.455639
Br3   Br    Br    0.287900 0.591152 0.835723 -0.487738
I3    I     I_    0.664105 0.407154 0.906192 -0.232807
I4    I     I_    0.827426 0.871584 0.586862 -0.436889

loop_
_geom_bond_atom_site_label_1
_geom_bond_atom_site_label_2
_ccdc_geom_bond_type
C19   C24   A    
Ba2   O14   S    
C44   H13   S    
C34   C40   S    
C23   H21   S    
O13   P2    S    
C8    H32   S    
C5    C6    S    
Ba2   P4    S    
C13   C17   S    
C35   C36   A    
Ba1   O18   S    
C16   C22   S    
C33   P5    S    
C33   C35   A    
C28   C29   A    
O18   P6    S    
C3    O15   S    
C13   C14   S    
Ba2   O12   S    
C29   H37   S    
C34   O7    S    
Ba1   Ba2   S    
O23   P3    S    
C12   H31   S    
C4    H18   S    
O8    P7    S    
O22   P2    D    
O17   P8    S    
O2    P2    S    
C15   P1    S    
C41   O20   S    
C5    H22   S    
C8    H30   S    
C42   H7    S    
C4    H19   S    
C9    C15   D    
C18   C22   A    
C14   C15   D    
C21   C22   A    
C35   H38   S    
C7    C8    S    
Ba1   O8    S    
C17   N2    A    
C42   H6    S    
C7    O17   S    
C27   I4    S    
Ba2   O5    S    
C44   H12   S    
C16   N4    A    
C32   C39   A    
C7    H27   S    
C18   Br3   S    
Ba1   O5    S    
C2    O21   S    
C12   O3    S    
C1    H15   S    
C36   C37   S    
C39   H41   S    
C6    H26   S    
C21   I3    S    
C30   P3    S    
C37   C38   T    
O19   P6    D    
C26   P2    S    
Ba1   O22   S    
C10   P6    S    
C40   H3    S    
Ba2   O6    S    
C42   I2    S    
C43   C44   S    
C23   H42   S    
O10   P5    D    
Ba1   P1    S    
C4    H17   S    
C19   P4    S    
C25   H40   S    
C41   C42   S    
C27   C28   A    
C1    H10   S    
C29   C30   A    
Ba2   O9    S    
C32   P7    S    
C2    H14   S    
C31   C32   A    
C11   Br2   S    
C5    O11   S    
C28   C38   S    
C40   H2    S    
C10   C11   S    
C17   N3    A    
C40   H4    S    
C34   H45   S    
C3    Br1   S    
O15   P7    S    
C43   H8    S    
C24   H35   S    
O21   P6    S    
C11   C13   D    
C44   H11   S    
O16   P8    D    
C1    H20   S    
C7    H28   S    
O7    P4    S    
O12   P1    S    
O4    P4    D    
C31   H36   S    
O24   P3    D    
C34   H44   S    
O3    P3    S    
C26   C27   A    
C6    H25   S    
C25   C30   A    
C23   H43   S    
O1    P1    D    
C12   H39   S    
C41   I1    S    
C5    H23   S    
C9    C10   S    
C8    H29   S    
O9    P5    S    
C6    H24   S    
C31   C36   A    
O5    P4    S    
C16   N1    A    
C14   H33   S    
Ba2   O4    S    
C43   O2    S    
C41   H5    S    
C20   P8    S    
C3    C4    S    
Ba2   O8    S    
Ba1   O1    S    
Ba2   O13   S    
N1    N2    A    
O6    P8    S    
C3    H16   S    
Ba1   O23   S    
C12   C23   S    
N3    N4    A    
C33   C39   A    
Ba1   P2    S    
C9    H34   S    
Ba1   O13   S    
Ba1   O12   S    
O14   P7    D    
C18   C19   A    
C43   H9    S    
O20   P1    S    
C20   C24   A    
O11   P5    S    
C25   C26   A    
C20   C21   A    
C1    C2    S    
C2    H1    S    
