data_mof_unit_25407.cif
_audit_creation_date              2012-12-10T17:46:21-0500
_audit_creation_method            fapswitch 2.2
_symmetry_space_group_name_H-M    P1
_symmetry_Int_Tables_number       1
_space_group_crystal_system       triclinic
_cell_length_a                    14.076496
_cell_length_b                    10.636068
_cell_length_c                    10.098151
_cell_angle_alpha                 89.250809
_cell_angle_beta                  90.290307
_cell_angle_gamma                 91.9426
_cell_volume                      1510.86647491

loop_
_atom_site_label
_atom_site_type_symbol
_atom_type_description
_atom_site_fract_x
_atom_site_fract_y
_atom_site_fract_z
_atom_type_partial_charge
C1    C     C_R   0.497888 0.261298 0.501297 0.870459
C2    C     C_R   0.575790 0.072141 0.459609 -0.219289
C3    C     C_R   0.579601 0.943018 0.457641 0.143711
C4    C     C_R   0.329834 0.500667 0.499777 0.838885
C5    C     C_R   0.498515 0.871879 0.499394 -0.134876
C6    C     C_R   0.342055 0.390423 0.124332 0.159365
C7    C     C_R   0.251694 0.424295 0.074004 -0.010060
C8    C     C_R   0.246751 0.501041 0.958762 0.076679
C9    C     C_R   0.329636 0.523334 0.884288 -0.204780
C10   C     C_R   0.417597 0.483225 0.930801 0.057258
C11   C     C_R   0.422705 0.453558 0.068566 0.022990
C12   C     C_1   0.771829 0.500173 0.500879 -0.223792
C13   C     C_R   0.575220 0.550159 0.072319 0.163393
C14   C     C_R   0.579040 0.538477 0.929771 0.163585
C15   C     C_R   0.501141 0.738921 0.499394 0.843535
C16   C     C_R   0.670199 0.499962 0.500273 0.873982
C17   C     C_1   0.228308 0.502115 0.499253 -0.208307
C18   C     C_1   0.142893 0.503035 0.499084 0.044525
C19   C     C_1   0.042848 0.502975 0.499322 0.060412
C20   C     C_1   0.957371 0.502195 0.499891 0.021790
C21   C     C_1   0.857325 0.500962 0.500621 -0.026561
C22   C     C_3   0.154717 0.556850 0.911093 -0.364952
C23   C     C_R   0.336522 0.118507 0.609359 -0.301457
C24   C     C_3   0.090387 0.459956 0.841267 -0.843012
C25   C     C_3   0.670070 0.580017 0.860157 -0.312817
C26   C     C_3   0.734536 0.467966 0.842078 -0.787606
C27   C     C_2   0.175200 0.111431 0.709104 0.374826
C28   C     C_3   0.672799 0.886284 0.417984 -0.408352
C29   C     C_3   0.700618 0.923939 0.276410 -0.860683
C30   C     C_3   0.648006 0.634631 0.142587 -0.363477
C31   C     C_3   0.744294 0.575024 0.168101 -0.804413
C32   C     C_3   0.355481 0.254247 0.166806 -0.402432
C33   C     C_3   0.302940 0.209247 0.291642 -0.794001
C34   C     C_R   0.257336 0.047230 0.653962 0.069045
C35   C     C_2   0.163038 0.376446 0.136298 0.421129
C36   C     C_R   0.257136 0.916214 0.644378 -0.122743
C37   C     C_R   0.335398 0.857519 0.592354 -0.217331
C38   C     C_R   0.416741 0.928528 0.549521 0.077688
C39   C     C_R   0.416415 0.059806 0.556212 0.084798
C40   C     C_R   0.495412 0.128770 0.505458 -0.131122
H1    H     H_    0.636862 0.129842 0.428223 0.154020
H2    H     H_    0.169860 0.635978 0.840385 0.192624
H3    H     H_    0.696365 0.387552 0.794227 0.274320
H4    H     H_    0.797454 0.497566 0.782242 0.240707
H5    H     H_    0.759986 0.432626 0.939166 0.237811
H6    H     H_    0.654374 0.636108 0.770874 0.222797
H7    H     H_    0.712587 0.652714 0.911896 0.168692
H8    H     H_    0.176811 0.213134 0.714876 0.053988
H9    H     H_    0.639265 0.909087 0.208244 0.258555
H10   H     H_    0.724353 0.024439 0.270931 0.257303
H11   H     H_    0.760433 0.866703 0.243632 0.256677
H12   H     H_    0.326579 0.587219 0.801205 0.188834
H13   H     H_    0.729771 0.920247 0.486637 0.211208
H14   H     H_    0.670752 0.782328 0.426708 0.189479
H15   H     H_    0.778616 0.619645 0.255553 0.247518
H16   H     H_    0.735768 0.472122 0.186633 0.271427
H17   H     H_    0.794278 0.592424 0.085227 0.243495
H18   H     H_    0.619589 0.666103 0.236029 0.267683
H19   H     H_    0.657863 0.725035 0.087922 0.155618
H20   H     H_    0.226364 0.190464 0.273689 0.233082
H21   H     H_    0.311990 0.276921 0.372777 0.259736
H22   H     H_    0.331735 0.117933 0.323264 0.247950
H23   H     H_    0.334493 0.219883 0.615293 0.139758
H24   H     H_    0.331601 0.192745 0.084002 0.182494
H25   H     H_    0.432250 0.236412 0.179656 0.234392
H26   H     H_    0.137185 0.281069 0.117873 0.059439
H27   H     H_    0.196400 0.858838 0.676920 0.168678
H28   H     H_    0.331034 0.756243 0.585918 0.143720
H29   H     H_    0.065152 0.384404 0.910395 0.260908
H30   H     H_    0.027227 0.506845 0.800114 0.249475
H31   H     H_    0.129315 0.417362 0.759077 0.251280
H32   H     H_    0.116495 0.597396 0.995562 0.246490
N1    N     N_R   0.499190 0.498800 0.142780 -0.133615
N2    N     N_R   0.499160 0.498720 0.857170 -0.123973
O1    O     O_R   0.500000 0.316780 0.614690 -0.599588
O2    O     O_2   0.116443 0.445128 0.204356 -0.578525
O3    O     O_R   0.499990 0.316750 0.385360 -0.604402
O4    O     O_R   0.373720 0.500010 0.614690 -0.621295
O5    O     O_R   0.373710 0.499990 0.385360 -0.565002
O6    O     O_R   0.500010 0.683250 0.614640 -0.624540
O7    O     O_R   0.500000 0.683220 0.385310 -0.622362
O8    O     O_R   0.626290 0.500010 0.614640 -0.599102
O9    O     O_R   0.626280 0.499990 0.385310 -0.598466
O10   O     O_2   0.105043 0.051921 0.748713 -0.576382
Zn1   Zn    Zn3+2 0.500010 0.500020 0.653130 0.915508
Zn2   Zn    Zn3+2 0.499990 0.499980 0.346870 0.935595

loop_
_geom_bond_atom_site_label_1
_geom_bond_atom_site_label_2
_ccdc_geom_bond_type
C27   H8    S    
C6    C32   S    
C1    O3    A    
C19   C20   T    
C36   H27   S    
C24   H30   S    
C7    C8    A    
C15   O7    A    
C29   H9    S    
C37   C38   A    
C14   N2    A    
C28   C29   S    
C38   C39   A    
C2    H1    S    
C37   H28   S    
C27   O10   D    
C18   C19   S    
C1    C40   S    
O1    Zn1   S    
C12   C16   S    
C8    C9    A    
C24   H29   S    
C8    C22   S    
C31   H16   S    
C9    C10   A    
C25   H7    S    
O7    Zn2   S    
C26   H5    S    
C23   H23   S    
C14   C25   S    
C5    C38   A    
C9    H12   S    
C22   H32   S    
C26   H3    S    
C29   H10   S    
C27   C34   S    
C35   O2    D    
C26   H4    S    
C1    O1    A    
C13   C30   S    
C32   H24   S    
C4    O5    A    
C11   N1    A    
C39   C40   A    
C28   H14   S    
C33   H22   S    
C35   H26   S    
C25   C26   S    
C12   C21   T    
C16   O9    A    
C4    O4    A    
O6    Zn1   S    
C15   O6    A    
C23   C34   A    
C30   H19   S    
C16   O8    A    
C17   C18   T    
C4    C17   S    
O4    Zn1   S    
C33   H21   S    
C13   N1    A    
O3    Zn2   S    
C33   H20   S    
C22   C24   S    
C6    C11   A    
C29   H11   S    
C3    C28   S    
C7    C35   S    
C3    C5    A    
C28   H13   S    
C6    C7    A    
O8    Zn1   S    
C32   C33   S    
C31   H17   S    
C2    C3    A    
C10   N2    A    
C30   C31   S    
C23   C39   A    
C30   H18   S    
C34   C36   A    
N2    Zn1   S    
N1    Zn2   S    
C5    C15   S    
C10   C11   A    
C2    C40   A    
O9    Zn2   S    
C20   C21   S    
C36   C37   A    
C22   H2    S    
C31   H15   S    
C13   C14   A    
C25   H6    S    
O5    Zn2   S    
C24   H31   S    
C32   H25   S    
