data_mof_unit_51405.cif
_audit_creation_date              2013-03-05T15:49:16-0500
_audit_creation_method            fapswitch 2.2
_symmetry_space_group_name_H-M    P1
_symmetry_Int_Tables_number       1
_space_group_crystal_system       triclinic
_cell_length_a                    20.670857
_cell_length_b                    22.84428
_cell_length_c                    6.937878
_cell_angle_alpha                 90.011829
_cell_angle_beta                  86.332266
_cell_angle_gamma                 90.01409
_cell_volume                      3269.43088703

loop_
_atom_site_label
_atom_site_type_symbol
_atom_site_description
_atom_site_fract_x
_atom_site_fract_y
_atom_site_fract_z
_atom_type_partial_charge
O1    O     O_R   0.387100 0.552640 0.378490 -0.599132
O2    O     O_R   0.612900 0.052640 0.621510 -0.594530
O3    O     O_R   0.249610 0.559600 0.072250 -0.573921
O4    O     O_R   0.750390 0.059600 0.927750 -0.568931
O5    O     O_R   0.249120 0.447360 0.902040 -0.607081
O6    O     O_R   0.750880 0.947360 0.097960 -0.609867
C1    C     C_R   0.224015 0.569928 0.245409 1.136923
C2    C     C_R   0.775933 0.070030 0.754522 1.137808
O7    O     O_R   0.386610 0.559560 0.048860 -0.552583
O8    O     O_R   0.613390 0.059560 0.951140 -0.559407
O9    O     O_R   0.387100 0.447320 0.878470 -0.567896
O10   O     O_R   0.612900 0.947320 0.121530 -0.572623
C3    C     C_R   0.406563 0.576252 0.214892 1.092569
C4    C     C_R   0.593283 0.076098 0.785745 1.098965
O11   O     O_R   0.249120 0.552680 0.402050 -0.565388
O12   O     O_R   0.750880 0.052680 0.597950 -0.567552
O13   O     O_3   0.318110 0.463180 0.223790 -0.292085
O14   O     O_3   0.681890 0.963180 0.776210 -0.292779
V1    V     V_3+5 0.318110 0.506830 0.948930 1.310044
V2    V     V_3+5 0.681890 0.006830 0.051070 1.306488
O15   O     O_R   0.386610 0.440400 0.548840 -0.596558
O16   O     O_R   0.613390 0.940400 0.451160 -0.591356
C5    C     C_R   0.406975 0.424716 0.714138 0.941227
C6    C     C_R   0.592928 0.924800 0.286093 0.935171
O17   O     O_R   0.249610 0.440440 0.572240 -0.594867
O18   O     O_R   0.750390 0.940440 0.427760 -0.593504
C7    C     C_R   0.226285 0.427269 0.744788 1.062533
C8    C     C_R   0.773741 0.927300 0.255173 1.063147
V3    V     V_3+5 0.318110 0.493170 0.448930 1.284518
V4    V     V_3+5 0.681890 0.993170 0.551070 1.287160
O19   O     O_3   0.318110 0.536820 0.723940 -0.250077
O20   O     O_3   0.681890 0.036820 0.276060 -0.248947
C9    C     C_R   0.171272 0.385307 0.757311 -0.264631
C10   C     C_R   0.828810 0.885406 0.242411 -0.270289
C11   C     C_R   0.171298 0.340754 0.618570 -0.254164
C12   C     C_R   0.828859 0.840776 0.380808 -0.253240
C13   C     C_R   0.117351 0.304862 0.599940 0.369090
C14   C     C_R   0.882828 0.804884 0.398872 0.370331
C15   C     C_R   0.062196 0.311210 0.730035 -0.105737
C16   C     C_R   0.937939 0.811338 0.268646 -0.106824
C17   C     C_R   0.062073 0.354950 0.874632 0.217104
C18   C     C_R   0.937980 0.855155 0.124400 0.216682
C19   C     C_R   0.116145 0.392488 0.886760 0.197793
C20   C     C_R   0.883887 0.892672 0.112775 0.197824
C21   C     C_R   0.900395 0.185941 0.855424 -0.079748
C22   C     C_R   0.100249 0.686291 0.144105 -0.077226
C23   C     C_R   0.845960 0.149853 0.873639 0.026356
C24   C     C_R   0.154645 0.650140 0.126537 0.025068
C25   C     C_R   0.880306 0.101554 0.572222 0.245247
C26   C     C_R   0.119545 0.601589 0.426900 0.245872
C27   C     C_R   0.936228 0.137079 0.556704 0.264176
C28   C     C_R   0.063679 0.637168 0.441657 0.264134
C29   C     C_R   0.945949 0.179951 0.697916 -0.068734
C30   C     C_R   0.054305 0.680148 0.300599 -0.068398
C31   C     C_2   0.003522 0.273973 0.716470 -0.073164
C32   C     C_2   0.996665 0.774153 0.281813 -0.072242
C33   C     C_2   0.005841 0.215767 0.689561 0.013133
C34   C     C_2   0.994395 0.715928 0.308270 0.011853
C35   C     C_R   0.834661 0.107676 0.732594 -0.327949
C36   C     C_R   0.165421 0.607696 0.267105 -0.323790
H1    H     H_    0.212692 0.335830 0.515755 0.184632
H2    H     H_    0.787498 0.835757 0.483699 0.189275
H3    H     H_    0.812520 0.155221 0.998799 0.210980
H4    H     H_    0.188559 0.655682 0.002470 0.207167
H5    H     H_    0.052054 0.193684 0.663247 0.175638
H6    H     H_    0.948179 0.693805 0.334200 0.175852
H7    H     H_    0.907881 0.217698 0.967844 0.183404
H8    H     H_    0.093107 0.718211 0.031972 0.182207
H9    H     H_    0.956345 0.294559 0.740021 0.172261
H10   H     H_    0.043821 0.794821 0.258635 0.172246
C37   C     C_R   0.575556 0.367543 0.738553 -0.004412
C38   C     C_R   0.424214 0.865469 0.344982 -0.005262
H11   H     H_    0.532259 0.452017 0.716558 0.166962
H12   H     H_    0.468096 0.949897 0.364914 0.158223
H13   H     H_    0.623271 0.386904 0.741016 0.181442
H14   H     H_    0.376412 0.884151 0.371944 0.184036
C39   C     C_R   0.461252 0.383128 0.715654 -0.139185
C40   C     C_R   0.538694 0.883040 0.290315 -0.125131
C41   C     C_R   0.475172 0.097240 0.802606 0.296239
C42   C     C_R   0.524242 0.596767 0.217765 0.299449
C43   C     C_R   0.422934 0.135447 0.831329 -0.170395
C44   C     C_R   0.575422 0.633049 0.262151 -0.179337
C45   C     C_R   0.431333 0.195810 0.838965 0.170378
C46   C     C_R   0.566824 0.692482 0.298588 0.174531
C47   C     C_R   0.493217 0.220970 0.790430 0.003556
C48   C     C_R   0.505992 0.719523 0.272864 0.003112
C49   C     C_R   0.548619 0.182489 0.782192 -0.139220
C50   C     C_R   0.451009 0.682093 0.247404 -0.140384
C51   C     C_R   0.502427 0.282853 0.758723 0.103729
C52   C     C_R   0.497023 0.781897 0.284374 0.103956
C53   C     C_R   0.566045 0.306493 0.752353 -0.096876
C54   C     C_R   0.433475 0.804858 0.315001 -0.093946
C55   C     C_R   0.619579 0.269328 0.759897 0.237509
C56   C     C_R   0.379828 0.767753 0.306893 0.235679
C57   C     C_R   0.611282 0.208505 0.770450 0.238828
C58   C     C_R   0.388309 0.708162 0.262339 0.237791
C59   C     C_R   0.451072 0.322213 0.723929 -0.161152
C60   C     C_R   0.548655 0.822842 0.256663 -0.159826
C61   C     C_R   0.523618 0.405267 0.723897 -0.046176
C62   C     C_R   0.476473 0.903679 0.338261 -0.063068
C63   C     C_R   0.539066 0.119651 0.789134 -0.328357
C64   C     C_R   0.460746 0.619813 0.217938 -0.315163
H15   H     H_    0.403408 0.306487 0.696935 0.140220
H16   H     H_    0.596302 0.809047 0.202820 0.139336
H17   H     H_    0.374908 0.117409 0.862041 0.202554
H18   H     H_    0.622747 0.613971 0.277930 0.206620
N1    N     N_R   0.982841 0.129431 0.396559 0.257540
O21   O     O_R   0.993830 0.171766 0.273658 -0.321255
O22   O     O_R   0.008108 0.078158 0.359816 -0.281833
N2    N     N_R   0.016720 0.629435 0.600843 0.257977
O23   O     O_R   0.006030 0.671461 0.725114 -0.319735
O24   O     O_R   0.991008 0.578232 0.635756 -0.282071
N3    N     N_R   0.684085 0.293047 0.750392 0.259518
O25   O     O_R   0.709083 0.314915 0.589243 -0.316297
O26   O     O_R   0.719188 0.289562 0.899035 -0.299404
N4    N     N_R   0.315322 0.791074 0.333302 0.260984
O27   O     O_R   0.293028 0.808343 0.503508 -0.317780
O28   O     O_R   0.277620 0.791873 0.190175 -0.297307
N5    N     N_R   0.461996 0.035314 0.797898 0.225808
O29   O     O_R   0.411451 0.016290 0.714338 -0.366650
O30   O     O_R   0.494240 0.998794 0.899022 -0.410375
N6    N     N_R   0.536885 0.535190 0.189788 0.229635
O31   O     O_R   0.581869 0.509447 0.281800 -0.366982
O32   O     O_R   0.508552 0.505970 0.058158 -0.422317
I1    I     I_    0.351145 0.239192 0.988480 -0.315601
I2    I     I_    0.644135 0.729315 0.450541 -0.319508
N7    N     N_R   0.668454 0.174330 0.777310 0.201879
O33   O     O_R   0.707745 0.171739 0.623449 -0.393983
O34   O     O_R   0.690682 0.164837 0.945553 -0.398995
N8    N     N_R   0.331287 0.674848 0.238293 0.204149
O35   O     O_R   0.288978 0.670093 0.384459 -0.394644
O36   O     O_R   0.312912 0.667372 0.064217 -0.399305
N9    N     N_R   0.870645 0.059277 0.424352 0.257478
O37   O     O_R   0.864402 0.076448 0.247848 -0.375811
O38   O     O_R   0.876995 0.003803 0.460185 -0.382601
N10   N     N_R   0.128970 0.559377 0.575139 0.257471
O39   O     O_R   0.133841 0.576538 0.752270 -0.374085
O40   O     O_R   0.123752 0.503848 0.538569 -0.384102
I3    I     I_    0.979190 0.364041 0.076005 -0.130264
I4    I     I_    0.020764 0.864357 0.922717 -0.130829
I5    I     I_    0.110441 0.463373 0.086643 -0.148266
I6    I     I_    0.889493 0.963634 0.913257 -0.149161
N11   N     N_R   0.117655 0.265873 0.437858 0.237498
O41   O     O_R   0.070933 0.268367 0.321379 -0.331744
O42   O     O_R   0.169877 0.236670 0.385249 -0.335365
N12   N     N_R   0.882593 0.765758 0.560508 0.237096
O43   O     O_R   0.929284 0.768260 0.677100 -0.333334
O44   O     O_R   0.830453 0.736354 0.612599 -0.333346

loop_
_geom_bond_atom_site_label_1
_geom_bond_atom_site_label_2
_geom_bond_distance
_ccdc_geom_bond_type
C14   C16   1.415658 A    
C50   C58   1.424205 A    
O13   V3    1.705504 S    
O4    C2    1.303397 A    
V1    O19   1.704810 S    
C15   C17   1.415657 A    
C42   N6    1.441632 S    
C7    C9    1.485426 S    
C22   H8    1.083371 S    
O9    V1    2.008062 S    
C11   C13   1.396589 A    
C46   C48   1.422600 A    
N12   O43   1.299591 A    
O3    C1    1.302866 A    
C2    C35   1.487384 S    
C23   H3    1.081687 S    
C38   C54   1.411373 A    
C48   C50   1.441939 A    
C24   H4    1.082215 S    
O12   V4    2.011430 S    
N11   O41   1.299589 A    
N4    O27   1.301040 A    
N11   O42   1.301303 A    
O7    V1    2.015194 S    
C21   C23   1.393971 A    
O7    C3    1.304963 A    
N2    O23   1.299726 A    
C14   N12   1.433942 S    
C51   C59   1.423728 A    
O13   V1    2.152101 S    
C49   C63   1.449335 A    
C34   H6    1.085485 S    
O6    C8    1.299701 A    
O8    V2    2.015782 S    
C16   C32   1.489382 S    
C49   C57   1.422598 A    
C40   C60   1.407792 A    
C26   C28   1.410660 A    
N1    O21   1.299768 A    
O3    V1    2.008872 S    
O14   V4    1.705762 S    
C51   C53   1.419561 A    
O16   V4    2.015686 S    
C10   C12   1.400701 A    
C38   H14   1.081678 S    
C24   C36   1.403268 A    
C15   C31   1.489133 S    
C16   C18   1.415541 A    
C8    C10   1.485661 S    
C2    O12   1.294983 A    
O5    C7    1.299721 A    
O17   V3    2.008091 S    
C17   C19   1.415363 A    
O10   V2    2.007722 S    
C18   C20   1.415406 A    
C45   I1    2.141500 S    
V2    O20   1.704551 S    
C12   H2    1.084236 S    
C54   C56   1.399599 A    
C43   C45   1.391203 A    
C28   C30   1.408554 A    
O11   V3    2.011996 S    
N12   O44   1.301269 A    
C47   C49   1.442094 A    
C46   I2    2.141912 S    
C55   C57   1.401314 A    
C13   C15   1.415584 A    
C22   C24   1.394307 A    
C37   H13   1.081966 S    
C23   C35   1.403266 A    
C18   I4    2.150341 S    
C9    C19   1.414593 A    
C20   I6    2.130184 S    
C10   C20   1.414762 A    
C42   C44   1.393605 A    
O8    C4    1.301339 A    
C41   C43   1.392971 A    
C29   C33   1.481823 S    
C4    C63   1.497887 S    
H12   C62   1.083906 S    
C1    O11   1.295383 A    
C25   C27   1.410691 A    
O15   V3    2.016275 S    
C41   N5    1.441335 S    
C27   C29   1.408579 A    
C40   C62   1.390205 A    
N8    O36   1.300226 A    
N7    O34   1.299763 A    
C21   H7    1.083392 S    
C53   C55   1.398570 A    
C52   C54   1.417872 A    
C28   N2    1.433869 S    
C22   C30   1.403045 A    
O1    V3    2.007076 S    
C11   H1    1.084218 S    
C55   N3    1.436748 S    
C5    C39   1.470900 S    
C47   C51   1.441434 A    
C56   C58   1.404439 A    
C59   H15   1.076221 S    
N5    O30   1.301080 A    
N4    O28   1.301054 A    
C6    C40   1.470710 S    
C45   C47   1.422938 A    
O18   V4    2.008297 S    
C44   C46   1.390356 A    
C31   C33   1.343128 D    
C48   C52   1.438504 A    
N9    O37   1.300196 A    
C30   C34   1.482084 S    
O16   C6    1.295821 A    
C19   I5    2.130135 S    
O1    C3    1.297226 A    
N6    O32   1.300224 A    
N7    O33   1.300653 A    
C1    C36   1.486997 S    
N10   O40   1.299405 A    
C58   N8    1.421617 S    
N3    O25   1.301061 A    
C38   C62   1.387121 A    
H11   C61   1.083428 S    
C43   H17   1.083279 S    
C25   N9    1.432081 S    
C56   N4    1.436799 S    
C13   N11   1.434065 S    
O18   C8    1.297229 A    
C33   H5    1.085468 S    
N10   O39   1.299870 A    
C50   C64   1.449577 A    
N5    O29   1.301441 A    
O5    V1    2.010827 S    
O17   C7    1.297038 A    
O6    V2    2.011391 S    
O10   C6    1.295554 A    
C32   H10   1.085669 S    
C25   C35   1.418969 A    
O2    V4    2.007416 S    
C26   C36   1.418904 A    
C31   H9    1.085667 S    
O15   C5    1.297221 A    
N8    O35   1.300598 A    
C3    C64   1.499213 S    
V3    O19   2.152658 S    
C26   N10   1.432385 S    
C12   C14   1.396748 A    
V4    O20   2.153023 S    
N1    O22   1.301102 A    
C37   C61   1.385688 A    
C60   H16   1.077933 S    
O9    C5    1.294305 A    
C9    C11   1.400699 A    
C32   C34   1.343138 D    
C39   C61   1.389266 A    
O14   V2    2.151736 S    
C44   H18   1.082975 S    
O2    C4    1.300249 A    
N2    O24   1.301029 A    
C17   I3    2.150381 S    
C21   C29   1.402820 A    
O4    V2    2.008666 S    
C57   N7    1.419879 S    
C37   C53   1.410799 A    
C27   N1    1.434023 S    
C42   C64   1.414212 A    
N9    O38   1.299757 A    
C41   C63   1.413886 A    
C39   C59   1.407956 A    
N6    O31   1.301678 A    
C52   C60   1.422766 A    
N3    O26   1.300831 A    
