data_mof_unit_32047.cif
_audit_creation_date              2012-10-26T20:22:29-0400
_audit_creation_method            fapswitch 2.2
_symmetry_space_group_name_H-M    P1
_symmetry_Int_Tables_number       1
_space_group_crystal_system       triclinic
_cell_length_a                    9.656844
_cell_length_b                    10.830386
_cell_length_c                    17.416892
_cell_angle_alpha                 95.302206
_cell_angle_beta                  85.281382
_cell_angle_gamma                 90.046347
_cell_volume                      1807.60241203

loop_
_atom_site_label
_atom_site_type_symbol
_atom_type_description
_atom_site_fract_x
_atom_site_fract_y
_atom_site_fract_z
_atom_type_partial_charge
C1    C     C_R   0.500021 0.737562 0.500303 0.545485
C2    C     C_R   0.080274 0.414385 0.452219 0.151503
C3    C     C_R   0.067392 0.588078 0.544987 0.341516
C4    C     C_R   0.932608 0.411920 0.455014 0.341532
C5    C     C_R   0.481190 0.494964 0.649716 0.566956
C6    C     C_R   0.518811 0.505031 0.350283 0.566933
C7    C     C_R   0.475236 0.486165 0.734507 0.062081
C8    C     C_R   0.524774 0.513792 0.265487 0.062068
C9    C     C_R   0.594317 0.439197 0.764981 0.215294
C10   C     C_R   0.405664 0.560665 0.234992 0.215334
C11   C     C_R   0.609730 0.459916 0.844230 -0.133500
C12   C     C_R   0.499979 0.262438 0.499698 0.545509
C13   C     C_R   0.390286 0.539900 0.155741 -0.133488
C14   C     C_R   0.505878 0.520956 0.893307 0.005226
C15   C     C_R   0.494198 0.478913 0.106681 0.005221
C16   C     C_R   0.381028 0.552876 0.865540 -0.130703
C17   C     C_R   0.619064 0.447086 0.134467 -0.130713
C18   C     C_R   0.361752 0.532440 0.786694 -0.042888
C19   C     C_R   0.638309 0.467577 0.213314 -0.042879
C20   C     C_2   0.523754 0.542886 0.976163 0.010555
C21   C     C_2   0.476362 0.456961 0.023820 0.010555
C22   C     C_3   0.781770 0.444194 0.237513 -0.267223
C23   C     C_R   0.625928 0.936104 0.499304 -0.145721
C24   C     C_3   0.854215 0.566530 0.259575 -0.408289
C25   C     C_3   0.218313 0.555952 0.762509 -0.267236
C26   C     C_3   0.145732 0.433679 0.740464 -0.408312
C27   C     C_3   0.405059 0.338684 0.993035 -0.266606
C28   C     C_3   0.360923 0.250977 0.054531 -0.443638
C29   C     C_3   0.595047 0.661169 0.006949 -0.266605
C30   C     C_3   0.639170 0.748881 0.945454 -0.443640
C31   C     C_3   0.842591 0.680270 0.606465 -0.202765
C32   C     C_3   0.865628 0.659994 0.690301 -0.437370
C33   C     C_3   0.157409 0.319730 0.393536 -0.202737
C34   C     C_R   0.374072 0.063896 0.500697 -0.145715
C35   C     C_3   0.134332 0.339988 0.309702 -0.437246
C36   C     C_R   0.625910 0.063868 0.499088 -0.122927
C37   C     C_R   0.374090 0.936132 0.500913 -0.122940
C38   C     C_R   0.499978 0.128376 0.499781 0.023298
C39   C     C_R   0.500022 0.871624 0.500220 0.023285
C40   C     C_R   0.919725 0.585612 0.547783 0.151512
Cu1   Cu    Cu3+1 0.359340 0.499980 0.500000 0.940874
Cu2   Cu    Cu3+1 0.640660 0.500020 0.500000 0.940862
H1    H     H_    0.298010 0.592178 0.906156 0.109781
H2    H     H_    0.231627 0.654512 0.252920 0.306031
H3    H     H_    0.874855 0.618039 0.207591 0.133546
H4    H     H_    0.790163 0.626303 0.303997 0.187484
H5    H     H_    0.954564 0.548022 0.282944 0.136342
H6    H     H_    0.776017 0.382826 0.284470 0.166082
H7    H     H_    0.848063 0.393383 0.189592 0.122670
H8    H     H_    0.045389 0.452269 0.717114 0.136348
H9    H     H_    0.209709 0.373857 0.696033 0.187493
H10   H     H_    0.125063 0.382183 0.792450 0.133552
H11   H     H_    0.152085 0.606823 0.810435 0.122690
H12   H     H_    0.702122 0.407826 0.093862 0.109772
H13   H     H_    0.224131 0.617317 0.715550 0.166039
H14   H     H_    0.452691 0.220795 0.082663 0.156737
H15   H     H_    0.284067 0.297111 0.098957 0.151028
H16   H     H_    0.311787 0.167451 0.026805 0.131528
H17   H     H_    0.310736 0.364111 0.965384 0.143832
H18   H     H_    0.476950 0.286841 0.948298 0.148941
H19   H     H_    0.716025 0.702753 0.901025 0.151036
H20   H     H_    0.547397 0.779059 0.917323 0.156734
H21   H     H_    0.688299 0.832407 0.973181 0.131528
H22   H     H_    0.523153 0.713004 0.051689 0.148948
H23   H     H_    0.297482 0.571174 0.132065 0.091727
H24   H     H_    0.689373 0.635749 0.034597 0.143823
H25   H     H_    0.843319 0.562699 0.701121 0.188269
H26   H     H_    0.972967 0.682774 0.704308 0.178569
H27   H     H_    0.794056 0.721001 0.730222 0.118784
H28   H     H_    0.876003 0.775358 0.594600 0.146978
H29   H     H_    0.730715 0.679202 0.604584 0.196093
H30   H     H_    0.027058 0.316976 0.295673 0.178527
H31   H     H_    0.156372 0.437337 0.298911 0.188244
H32   H     H_    0.206076 0.279149 0.269776 0.118782
H33   H     H_    0.269286 0.320820 0.395410 0.196102
H34   H     H_    0.702519 0.428573 0.867891 0.091725
H35   H     H_    0.124026 0.224637 0.405410 0.146933
H36   H     H_    0.219077 0.660794 0.597335 0.368123
H37   H     H_    0.780921 0.339202 0.402665 0.368117
H38   H     H_    0.724454 0.888154 0.498654 0.128432
H39   H     H_    0.275546 0.111846 0.501348 0.128434
H40   H     H_    0.724442 0.111783 0.498365 0.169856
H41   H     H_    0.275558 0.888217 0.501636 0.169852
H42   H     H_    0.768291 0.345264 0.747018 0.306059
N1    N     N_R   0.147930 0.499970 0.499980 -0.266020
N2    N     N_R   0.852070 0.500030 0.500020 -0.266012
O1    O     O_R   0.381260 0.680340 0.500000 -0.488585
O2    O     O_3   0.306820 0.628211 0.283495 -0.690705
O3    O     O_3   0.126359 0.685924 0.586241 -0.746334
O4    O     O_3   0.873641 0.314075 0.413759 -0.746343
O5    O     O_R   0.618740 0.319660 0.500000 -0.488564
O6    O     O_R   0.618830 0.680370 0.500010 -0.544516
O7    O     O_R   0.381170 0.319630 0.499990 -0.544517
O8    O     O_R   0.367440 0.500000 0.613600 -0.548341
O9    O     O_R   0.632560 0.500000 0.386400 -0.548351
O10   O     O_R   0.605010 0.500030 0.613600 -0.457544
O11   O     O_R   0.394990 0.499970 0.386400 -0.457500
O12   O     O_3   0.693104 0.371619 0.716457 -0.690695

loop_
_geom_bond_atom_site_label_1
_geom_bond_atom_site_label_2
_ccdc_geom_bond_type
C1    O1    A    
C22   H6    S    
C35   H32   S    
C9    O12   S    
C3    N1    A    
C34   C37   A    
Cu1   Cu2   S    
C12   O5    A    
C5    O8    A    
C28   H14   S    
C13   H23   S    
C28   H15   S    
C10   O2    S    
Cu2   O10   S    
C24   H3    S    
C25   H11   S    
C11   H34   S    
C26   H8    S    
C11   C14   A    
C4    N2    A    
C31   C40   S    
C2    N1    A    
C7    C9    A    
Cu2   O5    S    
C40   N2    A    
Cu1   O11   S    
C17   C19   A    
C33   H33   S    
C31   H28   S    
Cu1   O7    S    
Cu1   O8    S    
C36   H40   S    
H37   O4    S    
Cu2   N2    S    
C34   H39   S    
C23   H38   S    
Cu2   O6    S    
C32   H26   S    
C31   H29   S    
C21   C27   S    
C29   H22   S    
C30   H21   S    
C18   C25   S    
C4    O4    S    
C20   C29   S    
H36   O3    S    
Cu1   O1    S    
C8    C19   A    
Cu2   O9    S    
C6    O11   A    
C14   C20   S    
C19   C22   S    
C5    C7    S    
C6    C8    S    
C25   C26   S    
C2    C4    A    
C29   C30   S    
C26   H10   S    
C31   C32   S    
C7    C18   A    
C9    C11   A    
C16   H1    S    
C32   H25   S    
C2    C33   S    
C16   C18   A    
C35   H30   S    
C23   C36   A    
C1    O6    A    
C13   C15   A    
C14   C16   A    
C12   O7    A    
C5    O10   A    
C22   H7    S    
C15   C17   A    
C35   H31   S    
C34   C38   A    
C24   H5    S    
C25   H13   S    
C10   C13   A    
C3    C40   A    
C32   H27   S    
C28   H16   S    
Cu1   N1    S    
C3    O3    S    
C27   H18   S    
C24   H4    S    
C30   H20   S    
H42   O12   S    
C37   C39   A    
C27   H17   S    
C26   H9    S    
C33   H35   S    
C23   C39   A    
C36   C38   A    
C33   C35   S    
C22   C24   S    
C12   C38   S    
C1    C39   S    
C29   H24   S    
C15   C21   S    
C20   C21   D    
C8    C10   A    
C6    O9    A    
C30   H19   S    
C27   C28   S    
C37   H41   S    
H2    O2    S    
C17   H12   S    
