data_mof_unit_5774.cif
_audit_creation_date              2013-03-05T16:02:15-0500
_audit_creation_method            fapswitch 2.2
_symmetry_space_group_name_H-M    P1
_symmetry_Int_Tables_number       1
_space_group_crystal_system       triclinic
_cell_length_a                    22.008052
_cell_length_b                    6.896065
_cell_length_c                    14.546993
_cell_angle_alpha                 89.999963
_cell_angle_beta                  103.468876
_cell_angle_gamma                 89.999939
_cell_volume                      2147.06042056

loop_
_atom_site_label
_atom_site_type_symbol
_atom_site_description
_atom_site_fract_x
_atom_site_fract_y
_atom_site_fract_z
_atom_type_partial_charge
O1    O     O_R   0.835850 0.638310 0.002120 -0.592346
O2    O     O_R   0.164150 0.361690 0.997880 -0.592136
O3    O     O_R   0.664150 0.138310 0.997880 -0.592331
O4    O     O_R   0.335850 0.861690 0.002120 -0.592106
O5    O     O_R   0.717530 0.306070 0.861970 -0.571333
O6    O     O_R   0.282470 0.693930 0.138030 -0.570975
O7    O     O_R   0.782470 0.806070 0.138030 -0.571329
O8    O     O_R   0.217530 0.193930 0.861970 -0.570949
C1    C     C_R   0.700687 0.475094 0.824551 1.010344
C2    C     C_R   0.299321 0.524900 0.175446 1.010549
C3    C     C_R   0.799313 0.975094 0.175449 1.010373
C4    C     C_R   0.200681 0.024900 0.824553 1.010603
O9    O     O_R   0.838690 0.308440 0.993250 -0.581272
O10   O     O_R   0.161310 0.691560 0.006750 -0.581435
O11   O     O_R   0.661310 0.808440 0.006750 -0.581290
O12   O     O_R   0.338690 0.191560 0.993250 -0.581456
O13   O     O_R   0.786170 0.140510 0.130090 -0.572173
O14   O     O_R   0.213830 0.859490 0.869910 -0.572017
O15   O     O_R   0.713830 0.640510 0.869910 -0.572187
O16   O     O_R   0.286170 0.359490 0.130090 -0.572054
C5    C     C_R   0.864668 0.477399 0.992853 1.007824
C6    C     C_R   0.135317 0.522611 0.007081 1.008660
C7    C     C_R   0.635331 0.977399 0.007142 1.007847
C8    C     C_R   0.364684 0.022611 0.992928 1.008716
O17   O     O_3   0.732630 0.472520 0.044740 -0.250354
O18   O     O_3   0.267370 0.527480 0.955260 -0.250353
O19   O     O_3   0.767370 0.972520 0.955260 -0.250368
O20   O     O_3   0.232630 0.027480 0.044740 -0.250381
V1    V     V_3+5 0.753220 0.196740 0.991700 1.308515
V2    V     V_3+5 0.246780 0.803260 0.008300 1.308902
V3    V     V_3+5 0.746780 0.696740 0.008300 1.308502
V4    V     V_3+5 0.253220 0.303260 0.991700 1.308889
H1    H     H_    0.589165 0.893962 0.327876 0.196724
H2    H     H_    0.410876 0.106868 0.672247 0.196862
H3    H     H_    0.910837 0.394282 0.672102 0.196732
H4    H     H_    0.089123 0.606618 0.327776 0.196894
C9    C     C_R   0.545990 0.023141 0.833392 -0.348102
C10   C     C_R   0.454040 0.977287 0.166690 -0.348047
C11   C     C_R   0.954011 0.522981 0.166614 -0.348122
C12   C     C_R   0.045960 0.477494 0.833307 -0.348058
C13   C     C_R   0.506002 0.053849 0.745169 0.320488
C14   C     C_R   0.494040 0.946954 0.254937 0.320435
C15   C     C_R   0.993997 0.553646 0.254842 0.320440
C16   C     C_R   0.005961 0.447227 0.745054 0.320407
C17   C     C_R   0.442809 0.080903 0.739988 -0.251821
C18   C     C_R   0.557230 0.919791 0.260122 -0.251660
C19   C     C_R   0.057191 0.580692 0.260031 -0.251740
C20   C     C_R   0.942771 0.420057 0.739861 -0.251643
C21   C     C_R   0.418980 0.070548 0.820544 0.361590
C22   C     C_R   0.581046 0.929695 0.179538 0.361553
C23   C     C_R   0.081021 0.570401 0.179473 0.361594
C24   C     C_R   0.918955 0.429869 0.820447 0.361550
C25   C     C_R   0.457941 0.033901 0.911266 -0.028624
C26   C     C_R   0.542080 0.966194 0.088803 -0.029013
C27   C     C_R   0.042060 0.533821 0.088744 -0.028680
C28   C     C_R   0.957920 0.466286 0.911190 -0.029039
C29   C     C_R   0.523588 0.015236 0.917326 0.066851
C30   C     C_R   0.476434 0.984918 0.082745 0.066684
C31   C     C_R   0.976413 0.515148 0.082680 0.066880
C32   C     C_R   0.023566 0.485023 0.917253 0.066707
C33   C     C_R   0.433789 0.014741 0.994590 -0.229022
C34   C     C_R   0.566229 0.985277 0.005474 -0.228823
C35   C     C_R   0.066213 0.514747 0.005416 -0.228998
C36   C     C_R   0.933771 0.485274 0.994524 -0.228810
H5    H     H_    0.594911 0.002876 0.835062 0.169016
H6    H     H_    0.405119 0.997587 0.165012 0.168902
H7    H     H_    0.905088 0.502725 0.164939 0.169017
H8    H     H_    0.094882 0.497795 0.834990 0.168910
C37   C     C_R   0.171793 0.025242 0.720671 -0.136115
C38   C     C_R   0.828167 0.974697 0.279340 -0.136213
C39   C     C_R   0.328207 0.525244 0.279328 -0.136077
C40   C     C_R   0.671831 0.474698 0.720659 -0.136170
C41   C     C_R   0.178946 0.112892 0.561713 -0.080647
C42   C     C_R   0.821107 0.885886 0.438203 -0.079592
C43   C     C_R   0.321062 0.612997 0.438276 -0.080558
C44   C     C_R   0.678889 0.385846 0.561800 -0.079552
C45   C     C_R   0.204462 0.105662 0.658096 0.007110
C46   C     C_R   0.795690 0.892667 0.341775 0.007907
C47   C     C_R   0.295551 0.605772 0.341892 0.007194
C48   C     C_R   0.704307 0.392649 0.658227 0.007958
C49   C     C_R   0.108736 0.974807 0.684660 -0.164594
C50   C     C_R   0.891071 0.026717 0.315488 -0.164876
C51   C     C_R   0.391256 0.474715 0.315349 -0.164660
C52   C     C_R   0.608928 0.526726 0.684510 -0.164911
C53   C     C_R   0.079015 0.003527 0.586837 0.178485
C54   C     C_R   0.920799 0.997927 0.413297 0.177976
C55   C     C_R   0.420979 0.503470 0.413169 0.178488
C56   C     C_R   0.579198 0.497906 0.586704 0.177989
C57   C     C_R   0.117133 0.055470 0.524174 0.000318
C58   C     C_R   0.882738 0.944947 0.475870 -0.000023
C59   C     C_R   0.382866 0.555496 0.475825 0.000322
C60   C     C_R   0.617257 0.444898 0.524132 -0.000006
C61   C     C_R   0.012931 0.988258 0.549660 0.105288
C62   C     C_R   0.986863 0.013652 0.450501 0.105719
C63   C     C_R   0.487063 0.488186 0.450346 0.105273
C64   C     C_R   0.513133 0.513622 0.549502 0.105690
C65   C     C_R   0.027896 0.040707 0.390571 -0.257588
C66   C     C_R   0.971883 0.961040 0.609560 -0.258568
C67   C     C_R   0.472101 0.540721 0.609430 -0.257593
C68   C     C_R   0.528108 0.460935 0.390445 -0.258557
C69   C     C_R   0.092205 0.058892 0.425626 0.300295
C70   C     C_R   0.907605 0.941874 0.574436 0.300485
C71   C     C_R   0.407793 0.558940 0.574372 0.300267
C72   C     C_R   0.592387 0.441781 0.425567 0.300482
H9    H     H_    0.915811 0.083002 0.265417 0.103198
H10   H     H_    0.083910 0.919681 0.734862 0.102512
H11   H     H_    0.584189 0.583029 0.734579 0.103184
H12   H     H_    0.416077 0.419506 0.265157 0.102528
H13   H     H_    0.750270 0.831281 0.317569 0.218134
H14   H     H_    0.250106 0.165507 0.682122 0.217829
H15   H     H_    0.749726 0.331257 0.682436 0.218146
H16   H     H_    0.249919 0.665705 0.317852 0.217871
H17   H     H_    0.207297 0.174683 0.517531 0.182137
H18   H     H_    0.792891 0.823019 0.482308 0.182223
H19   H     H_    0.292718 0.674864 0.482451 0.182135
H20   H     H_    0.707103 0.322963 0.517697 0.182230
H21   H     H_    0.011299 0.040098 0.314891 0.155536
H22   H     H_    0.988445 0.961786 0.685241 0.155756
H23   H     H_    0.488698 0.540132 0.685110 0.155536
H24   H     H_    0.511544 0.461655 0.314764 0.155746
N1    N     N_R   0.529234 0.055559 0.660615 0.235898
O21   O     O_R   0.491034 0.081866 0.578813 -0.363544
O22   O     O_R   0.588169 0.026613 0.664088 -0.400796
N2    N     N_R   0.470824 0.945720 0.339507 0.235849
O23   O     O_R   0.509064 0.920373 0.421356 -0.363348
O24   O     O_R   0.411860 0.974169 0.335994 -0.400514
N3    N     N_R   0.970760 0.555361 0.339392 0.235915
O25   O     O_R   0.008945 0.581931 0.421185 -0.363560
O26   O     O_R   0.911835 0.526215 0.335923 -0.400748
N4    N     N_R   0.029181 0.446027 0.660486 0.235869
O27   O     O_R   0.990956 0.420419 0.578646 -0.363372
O28   O     O_R   0.088132 0.474727 0.663994 -0.400424
N5    N     N_R   0.353893 0.093222 0.806865 0.188213
O29   O     O_R   0.330516 0.266331 0.807454 -0.365391
O30   O     O_R   0.318197 0.942218 0.784658 -0.420480
N6    N     N_R   0.646115 0.906489 0.193189 0.188319
O31   O     O_R   0.681970 0.056860 0.216331 -0.420307
O32   O     O_R   0.669311 0.733163 0.192463 -0.365688
N7    N     N_R   0.146106 0.593138 0.193153 0.188224
O33   O     O_R   0.169463 0.766268 0.192533 -0.365408
O34   O     O_R   0.181820 0.442193 0.215427 -0.420471
N8    N     N_R   0.853886 0.406616 0.806794 0.188311
O35   O     O_R   0.818019 0.556951 0.783627 -0.420297
O36   O     O_R   0.830705 0.233275 0.807539 -0.365718
N9    N     N_R   0.131773 0.070388 0.359527 0.245173
O37   O     O_R   0.184552 0.976769 0.376030 -0.389244
O38   O     O_R   0.109916 0.140305 0.275234 -0.358944
N10   N     N_R   0.868003 0.929463 0.640463 0.245475
O39   O     O_R   0.814923 0.021428 0.623692 -0.389266
O40   O     O_R   0.889992 0.860312 0.724880 -0.358769
N11   N     N_R   0.368224 0.570515 0.640469 0.245154
O41   O     O_R   0.315433 0.476965 0.623967 -0.389180
O42   O     O_R   0.390089 0.640434 0.724760 -0.358938
N12   N     N_R   0.631986 0.429337 0.359538 0.245460
O43   O     O_R   0.685063 0.521315 0.376291 -0.389242
O44   O     O_R   0.609997 0.360132 0.275132 -0.358771

loop_
_geom_bond_atom_site_label_1
_geom_bond_atom_site_label_2
_geom_bond_distance
_ccdc_geom_bond_type
O17   V3    1.686926 S    
C51   C55   1.434747 A    
C4    C37   1.496754 S    
C56   C64   1.432498 A    
O1    C5    1.300605 A    
C8    C33   1.516372 S    
C12   C32   1.420285 A    
C27   C31   1.432614 A    
O19   V1    1.686926 S    
O13   V1    2.012206 S    
C37   C45   1.399267 A    
O3    C7    1.300601 A    
C63   C64   1.433536 A    
C1    C40   1.496751 S    
C68   C72   1.393922 A    
O4    V2    2.023646 S    
O15   V3    2.012206 S    
C39   C47   1.399271 A    
N9    O37   1.301439 A    
C3    C38   1.496743 S    
C14   N2    1.437862 S    
C29   C34   1.416702 A    
O7    C3    1.303201 A    
C69   N9    1.441953 S    
C31   C36   1.416706 A    
C61   C62   1.433534 A    
C47   H16   1.066793 S    
C32   C35   1.416689 A    
O9    V1    2.027898 S    
N10   O40   1.301063 A    
C10   C14   1.392927 A    
C55   C59   1.420984 A    
O16   V4    2.012207 S    
O4    C8    1.300616 A    
C38   C46   1.399360 A    
C16   N4    1.437873 S    
C42   H18   1.082040 S    
C64   C67   1.406099 A    
O1    V3    2.023645 S    
C52   H11   1.078154 S    
C41   H17   1.082036 S    
C51   H12   1.078071 S    
H4    C19   1.083704 S    
O2    V4    2.023647 S    
C14   C18   1.387762 A    
C50   H9    1.078151 S    
C13   N1    1.437862 S    
O3    V1    2.023648 S    
C41   C45   1.384512 A    
C58   C70   1.410778 A    
C5    C36   1.516320 S    
C54   C62   1.432490 A    
C70   N10   1.442028 S    
C6    C35   1.516370 S    
C10   C30   1.420281 A    
C53   C61   1.432618 A    
C1    O15   1.315818 A    
C7    C34   1.516310 S    
C10   H6    1.080352 S    
C2    O16   1.315783 A    
C27   C35   1.438520 A    
O2    C6    1.300620 A    
N11   O41   1.301449 A    
C28   C36   1.438506 A    
C68   H24   1.076106 S    
C12   C16   1.392920 A    
N12   O44   1.301065 A    
C71   N11   1.441952 S    
C2    C39   1.496752 S    
C30   C33   1.416692 A    
O11   C7    1.298470 A    
O12   C8    1.298446 A    
C9    C13   1.392933 A    
H1    C18   1.083714 S    
C25   C33   1.438522 A    
O10   V2    2.027896 S    
H3    C20   1.083714 S    
N9    O38   1.301042 A    
C66   H22   1.076103 S    
O5    V1    2.014034 S    
O17   V1    2.140181 S    
C9    C29   1.420300 A    
N7    O33   1.300735 A    
O7    V3    2.014036 S    
O19   V3    2.140180 S    
O8    V4    2.014035 S    
C56   C60   1.420874 A    
O20   V4    2.140181 S    
N10   O39   1.301396 A    
N6    O32   1.300728 A    
C67   C71   1.393816 A    
C54   C58   1.420869 A    
C15   N3    1.437861 S    
C25   C29   1.432608 A    
O18   V4    1.686926 S    
C19   C23   1.392721 A    
C26   C34   1.438504 A    
C62   C65   1.406097 A    
C66   C70   1.393923 A    
C24   N8    1.408316 S    
C28   C32   1.432619 A    
C55   C63   1.432615 A    
N4    O28   1.301600 A    
N3    O26   1.301615 A    
O5    C1    1.303205 A    
C17   C21   1.392714 A    
O8    C4    1.303257 A    
C11   C31   1.420296 A    
N12   O43   1.301394 A    
O9    C5    1.298475 A    
H2    C17   1.083704 S    
C22   C26   1.419035 A    
N1    O21   1.299886 A    
C40   C52   1.408058 A    
C44   C60   1.399891 A    
O14   V2    2.012206 S    
C9    H5    1.080351 S    
O6    V2    2.014035 S    
O18   V2    2.140180 S    
C12   H8    1.080347 S    
N5    O29   1.300739 A    
N8    O36   1.300727 A    
C43   H19   1.082053 S    
N3    O25   1.299892 A    
N2    O24   1.301598 A    
C26   C30   1.432620 A    
C21   N5    1.408241 S    
C49   H10   1.078060 S    
C3    O13   1.315820 A    
C53   C57   1.420985 A    
C57   C69   1.410779 A    
C63   C68   1.406174 A    
C11   H7    1.080353 S    
C52   C56   1.434673 A    
C59   C71   1.410779 A    
N6    O31   1.299064 A    
O6    C2    1.303258 A    
C11   C15   1.392932 A    
C44   C48   1.384634 A    
O11   V3    2.027894 S    
C43   C59   1.399850 A    
O12   V4    2.027896 S    
C18   C22   1.392760 A    
C42   C58   1.399890 A    
O20   V2    1.686926 S    
N4    O27   1.299881 A    
C41   C57   1.399855 A    
C40   C48   1.399359 A    
C22   N6    1.408313 S    
C50   C54   1.434664 A    
N7    O34   1.299107 A    
O10   C6    1.298449 A    
C43   C47   1.384514 A    
C21   C25   1.419025 A    
C48   H15   1.066983 S    
C44   H20   1.082038 S    
C46   H13   1.066980 S    
C23   C27   1.419026 A    
N11   O42   1.301039 A    
C65   H21   1.076168 S    
C45   H14   1.066783 S    
C38   C50   1.408048 A    
C65   C69   1.393807 A    
N1    O22   1.301601 A    
C37   C49   1.408072 A    
C60   C72   1.410779 A    
C67   H23   1.076170 S    
C16   C20   1.387761 A    
C20   C24   1.392769 A    
C42   C46   1.384636 A    
C4    O14   1.315783 A    
N5    O30   1.299105 A    
C13   C17   1.387756 A    
N8    O35   1.299062 A    
C39   C51   1.408075 A    
C72   N12   1.442029 S    
C15   C19   1.387761 A    
C61   C66   1.406180 A    
C49   C53   1.434744 A    
C24   C28   1.419033 A    
N2    O23   1.299882 A    
C23   N7    1.408248 S    
