data_mof_unit_15475.cif
_audit_creation_date              2013-03-05T15:53:42-0500
_audit_creation_method            fapswitch 2.2
_symmetry_space_group_name_H-M    P1
_symmetry_Int_Tables_number       1
_space_group_crystal_system       triclinic
_cell_length_a                    15.089017
_cell_length_b                    14.74963
_cell_length_c                    17.247545
_cell_angle_alpha                 108.276071
_cell_angle_beta                  106.576427
_cell_angle_gamma                 107.843666
_cell_volume                      3145.61783629

loop_
_atom_site_label
_atom_site_type_symbol
_atom_site_description
_atom_site_fract_x
_atom_site_fract_y
_atom_site_fract_z
_atom_type_partial_charge
C1    C     C_R   0.090131 0.273778 0.042222 -0.075762
H1    H     H_    0.167822 0.288783 0.079536 0.099817
N1    N     N_R   0.055640 0.348550 0.045600 -0.044685
C2    C     C_R   0.936000 0.505610 0.742680 -0.031672
H2    H     H_    0.858846 0.476330 0.692828 0.116796
N2    N     N_R   0.960830 0.507850 0.823710 -0.041534
C3    C     C_R   0.728550 0.210088 0.818157 0.185780
N3    N     N_R   0.811290 0.303400 0.871650 -0.069832
C4    C     C_R   0.263660 0.541328 0.955264 -0.080540
H3    H     H_    0.282216 0.581282 0.915330 0.115755
N4    N     N_R   0.205180 0.552990 0.997660 -0.055190
C5    C     C_R   0.741486 0.305580 0.740754 -0.055484
H4    H     H_    0.726760 0.334387 0.690468 0.139044
N5    N     N_R   0.814810 0.361830 0.823710 -0.055945
C6    C     C_R   0.263774 0.447983 0.035771 -0.164195
H5    H     H_    0.287223 0.405638 0.072037 0.108615
N6    N     N_R   0.201660 0.494570 0.045600 -0.044873
C7    C     C_R   0.107828 0.591240 0.819215 -0.048844
H6    H     H_    0.187229 0.642283 0.839530 0.096769
N7    N     N_R   0.068420 0.560530 0.871650 -0.055971
C8    C     C_R   0.920408 0.191054 0.961608 -0.111656
H7    H     H_    0.843790 0.130417 0.919945 0.131373
N8    N     N_R   0.948050 0.295860 0.997660 -0.050332
C9    C     C_R   0.007572 0.173972 0.986218 0.072031
C10   C     C_R   0.026713 0.555995 0.738747 0.060075
C11   C     C_R   0.686113 0.209477 0.735759 -0.000100
C12   C     C_R   0.300037 0.474290 0.977087 0.120571
C13   C     C_R   0.217185 0.700068 0.262296 -0.105048
H8    H     H_    0.225074 0.675105 0.315442 0.110623
N9    N     N_R   0.185190 0.638170 0.176290 -0.048163
C14   C     C_R   0.706193 0.499562 0.916093 0.300047
N10   N     N_R   0.798340 0.505430 0.954400 -0.089105
C15   C     C_R   0.891082 0.403709 0.177998 -0.004065
H9    H     H_    0.810756 0.354011 0.156114 0.113021
N11   N     N_R   0.931580 0.439470 0.128350 -0.063267
C16   C     C_R   0.079120 0.808486 0.029971 -0.142171
H10   H     H_    0.156510 0.869180 0.058905 0.103098
N12   N     N_R   0.051950 0.704140 0.002340 -0.052087
C17   C     C_R   0.908900 0.725420 0.960823 -0.076347
H11   H     H_    0.829249 0.709932 0.931995 0.138831
N13   N     N_R   0.944360 0.651450 0.954400 -0.035873
C18   C     C_R   0.062797 0.484066 0.253431 -0.092003
H12   H     H_    0.139439 0.506375 0.300609 0.107929
N14   N     N_R   0.039170 0.492150 0.176290 -0.052563
C19   C     C_R   0.231588 0.798857 0.187139 -0.135438
H13   H     H_    0.257969 0.865924 0.173086 0.103559
N15   N     N_R   0.188710 0.696600 0.128350 -0.045147
C20   C     C_R   0.700723 0.411703 0.999925 -0.144804
H14   H     H_    0.673508 0.361004 0.029795 0.138457
N16   N     N_R   0.794820 0.447010 0.002340 -0.068962
Ni1   Ni    Ni4+2 0.119330 0.493420 0.109950 0.232358
Ni2   Ni    Ni4+2 0.880670 0.506580 0.890050 0.294878
Ni3   Ni    Ni4+2 0.872590 0.372590 0.000000 0.228362
Ni4   Ni    Ni4+2 0.127410 0.627410 0.000000 0.213089
C21   C     C_R   0.246628 0.801735 0.270726 0.068936
C22   C     C_R   0.643860 0.442603 0.944519 -0.000909
C23   C     C_R   0.971913 0.430244 0.255636 0.187776
C24   C     C_R   0.991410 0.825545 0.008048 0.070434
C25   C     C_R   0.450512 0.537347 0.952526 0.150104
C26   C     C_R   0.377465 0.454713 0.954200 -0.018713
C27   C     C_R   0.377874 0.354903 0.928217 -0.311185
H15   H     H_    0.315317 0.287961 0.920504 0.179950
C28   C     C_R   0.461213 0.343477 0.913407 0.363888
C29   C     C_R   0.543883 0.435102 0.930113 -0.091019
C30   C     C_R   0.533326 0.528227 0.942407 0.236354
C31   C     C_3   0.604972 0.640618 0.009068 -0.491424
C32   C     C_3   0.512138 0.651002 0.020554 -0.498843
H16   H     H_    0.662307 0.647211 0.070348 0.204440
H17   H     H_    0.637134 0.688723 0.976910 0.209542
H18   H     H_    0.515274 0.663766 0.088550 0.207003
H19   H     H_    0.490703 0.705333 0.995205 0.201596
C33   C     C_R   0.965741 0.418368 0.333303 -0.257548
C34   C     C_R   0.033519 0.556616 0.658324 -0.034124
C35   C     C_R   0.974962 0.602938 0.539471 -0.079218
C36   C     C_R   0.002182 0.623164 0.628278 -0.241534
C37   C     C_R   0.045586 0.473074 0.602812 0.356851
C38   C     C_R   0.023168 0.454471 0.512670 -0.147691
C39   C     C_R   0.982014 0.517591 0.480549 -0.037486
C40   C     C_R   0.948898 0.495436 0.390074 0.294665
C41   C     C_R   0.008495 0.356770 0.362842 0.293697
C42   C     C_R   0.037035 0.373799 0.452812 0.026089
H20   H     H_    0.945549 0.652928 0.517051 0.175236
H21   H     H_    0.990930 0.685525 0.671949 0.150501
C43   C     C_R   0.601995 0.123201 0.656766 0.076388
C44   C     C_R   0.314493 0.891158 0.354690 0.115443
C45   C     C_R   0.362033 0.061441 0.470052 -0.183854
C46   C     C_R   0.296203 0.979976 0.384576 -0.146007
C47   C     C_R   0.396189 0.881759 0.407735 -0.255350
C48   C     C_R   0.461016 0.960740 0.492248 0.167132
C49   C     C_R   0.446853 0.053964 0.523967 0.087209
C50   C     C_R   0.520193 0.137676 0.607037 0.102146
C51   C     C_R   0.610924 0.028393 0.626732 -0.233310
C52   C     C_R   0.540774 0.947276 0.544208 -0.185459
H22   H     H_    0.675355 0.019243 0.665475 0.142825
H23   H     H_    0.345656 0.128841 0.493061 0.148366
H24   H     H_    0.550355 0.875173 0.520035 0.140393
H25   H     H_    0.230639 0.984987 0.342861 0.138817
H26   H     H_    0.409204 0.811846 0.382737 0.126051
C53   C     C_R   0.104855 0.063814 0.963191 0.145504
C54   C     C_R   0.011400 0.069986 0.951672 0.055649
C55   C     C_R   0.920567 0.974272 0.896038 -0.191607
H27   H     H_    0.845975 0.971878 0.887532 0.132869
C56   C     C_R   0.924353 0.881752 0.843564 -0.168706
H28   H     H_    0.853838 0.811336 0.796588 0.151434
C57   C     C_R   0.018472 0.882557 0.846795 0.020782
C58   C     C_R   0.108051 0.971716 0.912216 0.093547
C59   C     C_3   0.199919 0.031110 0.902069 -0.352017
C60   C     C_3   0.195924 0.131839 0.956537 -0.514173
H29   H     H_    0.268389 0.022256 0.937911 0.206404
H30   H     H_    0.183844 0.016542 0.831099 0.210933
H31   H     H_    0.263150 0.182224 0.023000 0.201815
H32   H     H_    0.174612 0.174117 0.916563 0.198722
N17   N     N_R   0.672451 0.512194 0.834749 0.216988
O1    O     O_R   0.735316 0.534599 0.798066 -0.477666
O2    O     O_R   0.576357 0.487599 0.790189 -0.413805
N18   N     N_R   0.460989 0.241167 0.881237 0.228837
O3    O     O_R   0.497371 0.215711 0.821972 -0.431032
O4    O     O_R   0.410424 0.167994 0.899502 -0.430512
N19   N     N_R   0.907461 0.558518 0.357023 0.229511
O5    O     O_R   0.809650 0.519126 0.307239 -0.405463
O6    O     O_R   0.968600 0.651802 0.370770 -0.404967
N20   N     N_R   0.030294 0.282806 0.302854 0.242366
O7    O     O_R   0.121302 0.285332 0.327591 -0.406126
O8    O     O_R   0.962113 0.219296 0.220525 -0.408831
N21   N     N_2   0.089225 0.317226 0.483196 -0.086850
H33   H     H_    0.157080 0.357702 0.540582 0.211967
C61   C     C_3   0.032088 0.204183 0.451296 -0.631320
H34   H     H_    0.033581 0.185929 0.509211 0.251697
H35   H     H_    0.068535 0.161639 0.415928 0.237298
H36   H     H_    0.950772 0.174774 0.404272 0.228281
N22   N     N_R   0.063968 0.398908 0.634951 0.220876
O9    O     O_R   0.152978 0.427514 0.697866 -0.428436
O10   O     O_R   0.986346 0.313234 0.616106 -0.409851
N23   N     N_2   0.514315 0.236325 0.640265 -0.091521
H37   H     H_    0.452235 0.231787 0.655463 0.222969
C62   C     C_3   0.533265 0.300448 0.592516 -0.823107
H38   H     H_    0.590801 0.382303 0.641291 0.306061
H39   H     H_    0.461822 0.304491 0.556432 0.241977
H40   H     H_    0.563049 0.268857 0.543283 0.230614
N24   N     N_2   0.683880 0.130950 0.844296 -0.128934
H41   H     H_    0.617327 0.066238 0.794714 0.195830
C63   C     C_3   0.683091 0.163591 0.932318 -0.852440
H42   H     H_    0.673366 0.096974 0.951167 0.243177
H43   H     H_    0.617716 0.182955 0.930910 0.297633
H44   H     H_    0.755515 0.232007 0.984653 0.236243

loop_
_geom_bond_atom_site_label_1
_geom_bond_atom_site_label_2
_geom_bond_distance
_ccdc_geom_bond_type
C31   H16   1.112316 S    
N9    Ni1   1.836794 S    
C55   H27   1.080629 S    
N11   Ni3   1.906280 S    
C34   C36   1.385374 A    
N1    N8    1.407489 A    
N6    Ni1   1.887056 S    
C2    C10   1.375354 A    
C3    N3    1.340693 A    
C17   N13   1.343377 A    
C41   N20   1.440488 S    
C38   C39   1.428550 A    
C53   C60   1.491774 S    
C13   H8    1.079909 S    
C3    C11   1.378038 A    
C16   H10   1.077356 S    
N24   C63   1.446427 S    
C1    H1    1.076378 S    
C33   C40   1.391562 A    
C16   C24   1.391412 A    
C12   C26   1.415112 S    
C3    N24   1.428756 S    
C15   N11   1.330121 A    
C37   N22   1.435061 S    
C31   H17   1.111751 S    
C58   C59   1.486595 S    
C6    H5    1.077351 S    
N18   O3    1.301139 A    
C6    N6    1.338511 A    
C7    H6    1.080374 S    
C19   N15   1.337922 A    
C27   C28   1.400397 A    
N10   Ni2   1.887059 S    
C25   C32   1.496692 S    
N5    Ni2   1.836795 S    
C14   N10   1.320407 A    
C40   N19   1.437849 S    
C32   H19   1.111677 S    
N3    N5    1.368639 A    
C59   C60   1.518337 S    
C22   C29   1.419980 S    
C43   C50   1.406063 A    
C14   C22   1.366766 A    
C4    H3    1.078689 S    
N13   Ni2   1.834863 S    
C7    N7    1.332424 A    
C47   C48   1.364444 A    
C20   N16   1.337295 A    
C31   C32   1.515142 S    
C25   C26   1.384977 A    
C55   C56   1.409706 A    
C8    H7    1.068665 S    
C59   H29   1.111527 S    
C63   H44   1.103334 S    
C7    C10   1.372150 A    
C18   N14   1.329065 A    
C35   H20   1.082408 S    
C62   H40   1.112687 S    
C18   C23   1.376148 A    
C13   C21   1.373058 A    
N8    Ni3   1.834722 S    
N19   O6    1.301183 A    
N16   Ni3   1.836346 S    
C35   C36   1.372281 A    
C44   C46   1.391848 A    
N9    N15   1.368638 A    
C37   C38   1.407981 A    
N12   N13   1.407491 A    
C2    N2    1.326408 A    
C45   C49   1.409477 A    
C17   H11   1.078617 S    
N1    Ni1   1.834864 S    
C45   C46   1.387755 A    
C2    H2    1.081181 S    
N23   C62   1.453166 S    
C19   H13   1.076958 S    
C17   C24   1.390889 A    
N17   O2    1.300618 A    
C60   H32   1.110699 S    
C5    C11   1.367958 A    
C26   C27   1.400540 A    
C1    N1    1.348817 A    
C21   C44   1.419010 S    
C61   H35   1.109568 S    
C6    C12   1.380799 A    
C53   C54   1.402296 A    
N12   Ni4   1.834721 S    
C38   C42   1.425073 A    
C51   H22   1.084528 S    
C15   H9    1.081563 S    
C56   C57   1.401501 A    
N24   H41   1.030260 S    
N11   N14   1.407487 A    
C4    N4    1.313477 A    
N10   N16   1.368520 A    
N4    Ni4   1.836347 S    
N15   Ni4   1.906261 S    
C28   N18   1.433779 S    
N14   Ni1   1.887261 S    
N7    Ni4   1.906283 S    
C20   H14   1.080456 S    
C5    N5    1.322598 A    
C52   H24   1.084553 S    
C8    N8    1.343229 A    
N21   H33   1.030015 S    
C34   C37   1.401858 A    
C63   H43   1.103905 S    
C18   H12   1.081538 S    
N20   O8    1.301465 A    
N22   O9    1.301282 A    
C4    C12   1.367039 A    
C62   H39   1.110343 S    
N17   O1    1.300288 A    
C44   C47   1.384422 A    
C20   C22   1.379149 A    
C53   C58   1.391353 A    
N4    N6    1.368521 A    
C15   C23   1.371389 A    
C42   N21   1.425662 S    
C9    C54   1.487117 S    
C41   C42   1.401588 A    
N22   O10   1.300933 A    
N3    Ni3   1.906264 S    
N19   O5    1.300601 A    
N23   H37   1.031168 S    
N2    N7    1.407487 A    
C57   C58   1.392593 A    
C60   H31   1.111542 S    
C32   H18   1.112408 S    
C29   C30   1.388408 A    
C13   N9    1.318679 A    
N20   O7    1.301357 A    
C61   H36   1.112114 S    
C33   C41   1.401130 A    
C25   C30   1.350084 A    
C11   C43   1.422197 S    
C39   C40   1.388075 A    
C36   H21   1.084593 S    
C49   C50   1.396562 A    
C50   N23   1.427774 S    
C16   N12   1.343777 A    
C51   C52   1.368918 A    
C59   H30   1.112209 S    
N18   O4    1.300749 A    
C10   C34   1.422453 S    
C23   C33   1.429035 S    
C48   C52   1.390551 A    
C27   H15   1.076281 S    
C45   H23   1.079765 S    
C28   C29   1.408189 A    
C5    H4    1.077577 S    
C19   C21   1.378695 A    
C1    C9    1.396311 A    
C30   C31   1.495245 S    
C35   C39   1.403643 A    
C8    C9    1.387467 A    
C56   H28   1.081830 S    
N21   C61   1.448810 S    
C63   H42   1.109894 S    
C62   H38   1.105866 S    
C54   C55   1.416485 A    
C43   C51   1.393888 A    
N2    Ni2   1.887259 S    
C48   C49   1.417965 A    
C14   N17   1.441104 S    
C47   H26   1.086919 S    
C61   H34   1.109212 S    
C46   H25   1.083439 S    
